15
Coordinates from ORCA-job run
  C   -0.62464193310518      0.26145411749453     -0.17688182005020
  C   0.78277280530715     -0.35348423476604      0.09892294556238
  Cl  -0.73007566237642      0.76529317096439     -1.85416263537212
  H   0.75252430622685     -0.68217651291218      1.14384027911577
  N   -1.63258774960756     -0.85927183276741      0.11680676741881
  O   -2.28702032231865     -1.35867568615201     -0.78124454760113
  O   -1.65113368446480     -1.16740931277923      1.30743110358488
  N   -1.00159539273032      1.34546848732044      0.66967867569327
  H   -0.87276160693110      1.11131044509502      1.64590308201704
  H   -0.52079879662324      2.19816801413901      0.42210017726818
  N   1.89608302166751      0.54891635052751     -0.06067654111055
  H   1.85306208254296      1.30280226197319      0.61167725544653
  H   1.93453931101805      0.92596339919547     -0.99928324027335
  C   0.97836925048645     -1.54487755555197     -0.73488201077425
  N   1.12326437090830     -2.49348111178071     -1.41122949092525
