15
Coordinates from ORCA-job run
  C   -0.70320951016442      0.32601486039983     -0.09416312703609
  C   0.71919725323363     -0.27572292321203      0.02235421322566
  Cl  -0.97445891877522      0.83032834786365     -1.75838284173764
  H   0.81503665657338     -0.59258947504412      1.06525184671426
  N   -1.67171908390869     -0.80219133430263      0.28854166367531
  O   -2.41684211336716     -1.28421918564628     -0.54627029285353
  O   -1.56920657119414     -1.13875931941334      1.46719175364746
  N   -0.97202180714653      1.40468842292310      0.79349053328131
  H   -0.25339588611811      2.10787910965235      0.66062389258309
  H   -0.93351272319894      1.06370041961989      1.74811067888418
  N   1.68412212992656      0.77905672013335     -0.22645653798843
  H   1.79277432342575      0.92983378636148     -1.22244980986206
  H   2.58627301332644      0.52242181418667      0.15386852982762
  C   0.86660361274654     -1.46750104438121     -0.82975445485552
  N   1.03035962464091     -2.40294019914072     -1.52195604750560
