15
Coordinates from ORCA-job run
  C   -0.65787637768597      0.20408723093877      0.06297426663171
  C   0.78043614211877     -0.32572146098566     -0.01074117170738
  Cl  -1.12405281303434      0.82118183214550     -1.58590489636651
  H   0.96637206595183     -0.81798718863072      0.94719737888844
  N   -1.64429545368456     -0.91793544287348      0.36965561642785
  O   -2.80998678395508     -0.57472129554067      0.50120423793740
  O   -1.18778467591092     -2.04700895091849      0.51182729662020
  N   -0.77168559120394      1.12551029364105      1.10470693739471
  H   -0.01070280772773      1.79250988764496      1.06166088406949
  H   -1.68046567816844      1.56915498137828      1.12882224215112
  N   1.66630142543138      0.82642601557139     -0.11926817489652
  H   1.69377432106378      1.15206867933427     -1.07894574048982
  H   2.60605717666888      0.56282861185241      0.14922458462249
  C   0.96120594874965     -1.31539637253977     -1.08322546117289
  N   1.21270310138668     -2.05499682101784     -1.96018800011029
