18

C	-0.568911	-0.012045	-1.406026
C	0.0	0.0	0.0
Br	0.401389	1.438735	-2.486455
H	1.093993	0.0	0.0
N	-0.20993	-1.252197	-2.208155
O	0.777782	-1.891313	-1.874812
O	-0.943221	-1.510712	-3.163098
N	-1.954174	0.144806	-1.432186
H	-2.166094	0.906733	-0.794901
H	-2.316265	0.292454	-2.363147
C	-0.510481	-1.188898	0.800555
H	-1.59931	-1.178643	0.922459
H	-0.205249	-2.126734	0.336692
H	-0.032512	-1.156095	1.784616
N	-0.51127	1.258116	0.608834
H	-0.508407	1.115667	1.613482
H	0.211291	1.952259	0.433504
F	2.638083	0.0	0.0
