18

C	-0.61773	0.019276	-1.386259
C	0.0	0.0	0.0
Br	0.427752	1.363795	-2.522385
H	1.093979	0.0	0.0
N	-0.405728	-1.257496	-2.182515
O	0.541189	-1.973718	-1.888745
O	-1.204679	-1.468316	-3.094928
N	-1.984698	0.29684	-1.357385
H	-2.369823	0.463848	-2.275937
H	-2.092548	1.090173	-0.730983
C	-0.534607	-1.158138	0.828913
H	-1.609884	-1.068649	1.022016
H	-0.335135	-2.116636	0.351316
H	0.007809	-1.158573	1.77907
N	-0.42738	1.288809	0.619328
H	-0.562478	1.119336	1.610098
H	0.389186	1.890756	0.552181
F	2.631326	0.0	0.0
