11

C	-0.111461	0.045467	0.013928
C	-0.516402	-0.088571	-1.455013
Cl	1.627729	-0.353074	0.257779
H	-1.60624	0.02732	-1.465965
H	-0.719245	-0.635942	0.611112
H	-0.035049	0.687649	-2.056147
C	-0.332329	1.41636	0.46392
N	-0.44081	2.53666	0.797826
C	-0.171828	-1.393404	-2.011549
N	0.133186	-2.413864	-2.503945
Cl	-3.207481	-0.648246	0.347274
