11

C	-0.100434	0.05659	0.014409
C	-0.495838	0.169696	-1.45884
Cl	1.642554	-0.357328	0.19939
H	-1.586917	0.274014	-1.457816
H	-0.702273	-0.72367	0.482692
H	-0.02103	1.042494	-1.915363
C	-0.340977	1.328119	0.689612
N	-0.464927	2.372855	1.210666
C	-0.132595	-1.017405	-2.226643
N	0.184094	-1.937349	-2.882552
Cl	-3.189044	-0.719803	0.201915
