11

C	-0.109938	0.047498	0.010184
C	-0.503046	-0.287535	-1.429601
Cl	1.633933	-0.287625	0.312494
H	-0.030909	0.411047	-2.125825
H	-0.710504	-0.557846	0.690669
H	-1.594488	-0.191535	-1.460655
C	-0.353884	1.462603	0.271457
N	-0.485156	2.616385	0.444316
C	-0.134699	-1.648797	-1.805769
N	0.179659	-2.725773	-2.1494
Cl	-3.197692	-0.64011	0.419965
