19

C	-0.396427	0.032936	-1.478621
C	0.0	0.0	0.0
Br	-2.388962	0.000174	-1.620896
H	1.097443	0.0	0.0
C	0.084904	1.358301	-2.05097
H	-0.362021	2.197368	-1.52237
H	1.171643	1.398624	-1.917382
H	-0.154232	1.415026	-3.115614
C	0.164038	-1.122889	-2.290812
H	-0.043865	-0.954601	-3.35013
H	-0.250583	-2.083798	-1.99819
H	1.245417	-1.147753	-2.127823
N	-0.423045	-1.319784	0.645295
O	0.15464	-2.343052	0.289916
O	-1.318672	-1.280589	1.49151
N	-0.469633	1.122323	0.734833
H	-1.424827	0.976659	1.030822
H	0.114001	1.246915	1.550146
Br	3.465535	0.0	0.0
