19

C	-0.520668	0.040915	-1.450158
C	0.0	0.0	0.0
Br	-0.104006	-1.666707	-2.348322
H	1.090951	0.0	0.0
C	-2.023842	0.246707	-1.556985
H	-2.288971	1.197729	-1.086511
H	-2.312212	0.287696	-2.609669
H	-2.577104	-0.558402	-1.073203
C	0.257415	1.132121	-2.172849
H	0.02307	2.091946	-1.706991
H	-0.024552	1.159982	-3.228463
H	1.331071	0.953598	-2.081694
N	-0.470943	-1.261945	0.702995
O	-1.631654	-1.249781	1.13708
O	0.302044	-2.206024	0.802122
N	-0.449484	1.167882	0.70648
H	-1.359471	0.995445	1.116678
H	0.21884	1.378524	1.437966
Br	3.536275	0.0	0.0
