16

C	0.0	0.0	0.0
C	-0.431855	0.003969	-1.46124
Br	2.017018	0.0	0.0
H	-1.52436	0.104236	-1.472808
H	0.070632	0.798739	-2.007741
C	-0.375806	1.334462	0.630313
H	0.001766	1.361019	1.656283
H	0.063566	2.174604	0.088185
H	-1.467426	1.403807	0.638073
N	-0.494026	-1.12788	0.699768
H	-1.30668	-1.510507	0.227119
H	-0.780332	-0.860396	1.631565
N	-0.099295	-1.260531	-2.173275
O	-0.764943	-2.256943	-1.89444
O	0.807822	-1.229392	-3.006131
Br	-3.78861	0.0	0.0
