16

C	0.0	0.0	0.0
C	-0.442525	0.14025	-1.446764
Br	2.048389	0.0	0.0
H	-1.538623	0.032087	-1.443452
H	-0.130888	1.096687	-1.859568
C	-0.399199	1.245615	0.769309
H	-1.491998	1.308107	0.73291
H	0.065515	2.13578	0.342469
H	-0.073086	1.155135	1.808396
N	-0.509471	-1.137371	0.594676
H	-0.424907	-1.991675	0.070566
H	-0.353793	-1.223142	1.584511
N	0.12585	-0.89112	-2.35573
O	0.634202	-0.502661	-3.405584
O	0.035116	-2.072465	-2.020929
Br	-3.894871	0.0	0.0
