16

C	0.0	0.0	0.0
C	-0.494034	0.098995	-1.439568
Br	2.026397	0.0	0.0
H	-0.284825	-0.82063	-1.982495
H	-1.578657	0.270238	-1.369062
C	-0.461603	1.129701	0.895933
H	-0.091331	2.089002	0.545169
H	-0.10097	0.957484	1.913829
H	-1.556987	1.11666	0.880388
N	-0.48527	-1.226872	0.479958
H	-0.091804	-2.040292	0.031687
H	-0.475448	-1.306728	1.484832
N	0.119132	1.187553	-2.238105
O	0.703395	0.868045	-3.274513
O	-0.010512	2.342574	-1.836374
Br	-3.954466	0.0	0.0
