16

C	0.0	0.0	0.0
C	-0.446447	-0.048003	-1.452857
Br	2.042595	0.0	0.0
H	-1.545692	-0.097346	-1.435447
H	-0.074876	0.816644	-1.997571
C	-0.387696	1.341478	0.599603
H	-0.050305	1.38782	1.638088
H	-1.479937	1.404326	0.566275
H	0.076555	2.164108	0.053127
N	-0.51698	-1.045435	0.738475
H	-0.526626	-1.952671	0.304439
H	-0.330532	-1.033216	1.72593
N	0.063342	-1.236541	-2.187143
O	-0.236355	-2.350632	-1.753313
O	0.744325	-1.040409	-3.193017
Br	-3.904772	0.0	0.0
