16

C	0.0	0.0	0.0
C	-0.494274	0.171575	-1.436191
Br	1.962362	0.0	0.0
H	-1.581877	0.313601	-1.38715
H	-0.23302	-0.711467	-2.013389
C	-0.422909	1.124548	0.938702
H	-0.022938	2.089801	0.633316
H	-1.5156	1.159317	0.938368
H	-0.066694	0.894397	1.946625
N	-0.479667	-1.305661	0.393225
H	-0.266975	-1.441019	1.377
H	-1.50238	-1.256272	0.318557
N	0.085828	1.332175	-2.153768
O	-0.17443	2.460146	-1.735043
O	0.782016	1.096458	-3.143003
Br	-3.815838	0.0	0.0
