14
Coordinates from ORCA-job run
  C   0.29164757535499      0.66440241172982     -0.49976342221784
  C   -0.55891009840300      0.02511368561115      0.61284348958588
  Cl  -0.19799633708580      2.32999256943369     -0.80183496032229
  H   -0.41372996227143      0.65552808101160      1.49432114745699
  N   1.73906178014644      0.67759555375589      0.03064457916968
  O   1.87881700944036      1.17458349979774      1.13609915577443
  O   2.60038661442073      0.20759349168148     -0.69457109027705
  C   0.23373427526879     -0.12783275320322     -1.71808428832555
  N   0.10669279413894     -0.80203921305125     -2.67297153246779
  N   -0.01099993944589     -1.28874303738741      0.86897894798420
  H   -0.17277832066314     -1.57204929471583      1.82592302185394
  H   -0.40184239596706     -1.98675246936784      0.24760949814234
  C   -1.97908454399297      0.04897116951953      0.23059547682485
  N   -3.11599845094097     -0.00536369481536     -0.06079002318180
