14
Coordinates from ORCA-job run
  C   0.26545489427893      0.41704663478768     -0.63583067839603
  C   -0.26196522818835     -0.51054393762826      0.48134150332144
  Cl  -1.05238818224570      1.21407711661204     -1.46987063455114
  H   0.62567630560062     -0.95407782623222      0.94208565870338
  N   1.18406701157840      1.45853823309851      0.06135563212231
  O   2.15519014287778      0.94552928594347      0.60294425431050
  O   0.86626274148664      2.63224143116769      0.04402864163470
  C   1.09192502905623     -0.33481222670199     -1.56863110029437
  N   1.77023572457113     -0.92811609660463     -2.32315961669151
  N   -1.05107639740391     -1.56014068046989     -0.11586918615204
  H   -1.11133828472045     -2.35820089444979      0.50246926478453
  H   -1.98705506087210     -1.24065340928994     -0.33130173707410
  C   -0.95113930077850      0.30384367694815      1.50027629944173
  N   -1.54384939524072      0.91526869281916      2.31016169884058
