14
Coordinates from ORCA-job run
  C   0.24590333247412      0.66478775682165     -0.52177838112453
  C   -0.49341779427036      0.02441095111266      0.66695631642471
  Cl  -0.25781351031434      2.33635677914079     -0.76268254255359
  H   -0.25457485969103      0.64720122916171      1.53334205364282
  N   1.73922293718038      0.66356492587846     -0.14104382077707
  O   2.51901324236633      0.19267501725471     -0.95292075878171
  O   1.99463053201682      1.15258323122398      0.94726031894249
  C   0.05790309691752     -0.11783727982763     -1.73325359701403
  N   -0.17197757253444     -0.78178728645213     -2.67594232031204
  N   0.06616982424297     -1.29557717184151      0.85796776291580
  H   -0.00376970694794     -1.58563165338910      1.82406434119627
  H   -0.39081647886072     -1.98527418473526      0.27339602141665
  C   -1.94468600521748      0.06303471968931      0.43033639183403
  N   -3.10578703736182      0.02049296596238      0.25529821419018
