14
Coordinates from ORCA-job run
  C   0.37269940062175      0.38620058234528     -0.60320440410489
  C   -0.37548375745138     -0.47070918697691      0.44207548716384
  Cl  -0.73252410375711      1.43011298775720     -1.47258842836074
  H   0.39133119296488     -1.08040458773228      0.92890857759891
  N   1.41425174722780      1.22578589450612      0.18770623880788
  O   2.23982715185288      0.53126888968566      0.76693596515163
  O   1.31252718708644      2.43754868402278      0.19645298156502
  C   1.11095167386408     -0.47006156684622     -1.52005280975495
  N   1.71839378928200     -1.15353475183504     -2.25850287000550
  N   -1.29916714230636     -1.34203413677820     -0.24220121514843
  H   -2.15093657254005     -0.85496163468465     -0.49035167615089
  H   -1.53322920704439     -2.13916804840818      0.33425960658713
  C   -0.97139375969771      0.41523179664472      1.45999952236102
  N   -1.49824760010283      1.08472507829973      2.26956302428998
