14
Coordinates from ORCA-job run
  C   0.27867362187396      0.67137313813987     -0.49885090245409
  C   -0.55189870757092      0.01227068351451      0.61692677295288
  Cl  -0.23272961014620      2.33432482397561     -0.77955803693325
  H   -0.40460210878293      0.63592522003940      1.50287368460084
  N   1.73187173747363      0.69641616613740      0.01473676674391
  O   1.87852533113676      1.18408869395213      1.12351146229058
  O   2.59064109943719      0.24438576707128     -0.72483752896835
  C   0.21539438465050     -0.11007978161066     -1.72385886888687
  N   0.09296260306363     -0.78531498588405     -2.67852280469971
  N   0.01353890580436     -1.29761441802669      0.85465893451354
  H   -0.37477573145121     -1.99368967697459      0.22954468403597
  H   -0.13692822074788     -1.59266342713468      1.80994875272851
  C   -1.97722715182889      0.02539380614685      0.25340495435056
  N   -3.12344615291199     -0.02381600934637      0.00002212972549
