14
Coordinates from ORCA-job run
  C   0.24063002107222      0.78984358903369     -0.40709260302527
  C   -0.77248637643589     -0.06723554796690      0.39544717673608
  Cl  0.23828405011058      2.43237599227313      0.20751664489965
  H   -1.67481604376239      0.55021499698952      0.44820546572413
  N   1.65082873197153      0.16686649411498     -0.22840018601112
  O   2.60569834818027      0.91469000384185     -0.14915765655268
  O   1.65339186059207     -1.05779964267024     -0.22781149817870
  C   -0.03493970326538      0.78308389668064     -1.83776094402377
  N   -0.27663000604450      0.77030017925965     -2.98873414747170
  N   -0.26189863183992     -0.26369448560481      1.73310395748630
  H   -1.01420710934152     -0.29300525507551      2.40677138084694
  H   0.27174552636297     -1.12134733632956      1.79412501730011
  C   -1.13841868459928     -1.30152684059363     -0.31964502677616
  N   -1.48818198300076     -2.30176604395280     -0.82756758095382
