14
Coordinates from ORCA-job run
  C   0.23706744823910      0.62159454472107     -0.48771790046805
  C   -0.59625056336743      0.05293805657373      0.69504503733415
  Cl  -0.13892025879639      2.32044061329961     -0.77488071688124
  H   -0.40375817038198      0.71906049717645      1.54104824335956
  N   1.71690494505428      0.54227930450561     -0.07325828072245
  O   2.51434363979053      0.15470961527689     -0.91453349321951
  O   1.95808119094265      0.89516236899362      1.07316977798557
  C   0.04333832814647     -0.17327531907426     -1.68960231500443
  N   -0.18351181799743     -0.85909945510221     -2.61748804975608
  N   -0.26141573876892     -1.29090786992745      1.07272605007101
  H   0.65535613191451     -1.35960745093553      1.49095462143906
  H   -0.37867715802025     -1.96007191769418      0.32316828209859
  C   -2.01508450957063      0.14233701424773      0.33206448677810
  N   -3.14847346718451      0.19243999793890      0.03030425698572
