14
Coordinates from ORCA-job run
  C   0.21606834796682      0.79414873873646     -0.33877273361291
  C   -0.74800325399439     -0.15431158238518      0.41382215492406
  Cl  0.31038683315423      2.35161410515265      0.47685285342103
  H   -1.71969232182812      0.34817669927407      0.34778759835543
  N   1.64319258177869      0.21015378823862     -0.39696709932968
  O   1.85951701647938     -0.78956323506741      0.27619489825881
  O   2.43179887306266      0.81183499867262     -1.10681596856869
  C   -0.21893671212176      0.98041714771509     -1.71800689886036
  N   -0.61996749542315      1.11437839400427     -2.81514453944304
  N   -0.40771312483699     -0.28835271168738      1.80677440025619
  H   -1.22842383069925     -0.51789514888539      2.34982220978934
  H   0.30129389051758     -0.99527928352896      1.94219024314909
  C   -0.85631860623337     -1.41869694943824     -0.34063230983049
  N   -0.96320219782232     -2.44762496080123     -0.89810480850878
