14
Coordinates from ORCA-job run
  C   0.27687026958180      0.79489374351777     -0.28999639634191
  C   -0.72332467697084     -0.11058915978682      0.46832602928534
  Cl  0.61747360645326      2.25061806165034      0.63993142409652
  H   -1.63242948718185      0.49774508640523      0.53657775159349
  N   1.61749462335267      0.06923579596019     -0.52978121633491
  O   1.77123324781789     -1.00797277078720      0.03201756810664
  O   2.40863116919895      0.64702772434200     -1.25637853150637
  C   -0.24797297387356      1.15388712601905     -1.60201400520699
  N   -0.72237667183243      1.42814766461276     -2.64242584682318
  N   -0.28412750543482     -0.40989204045631      1.80694349198404
  H   0.34711754251969     -1.19858559113512      1.81516006708681
  H   -1.07695122265641     -0.59957097968782      2.40406898734885
  C   -1.04074017501917     -1.27970124261954     -0.37536139568140
  N   -1.31089774595519     -2.23424341803453     -1.00506792760693
