14
Coordinates from ORCA-job run
  C   0.21417811316150      0.44379801489605     -0.63875685979097
  C   -0.22538206119052     -0.52840555002761      0.47819487669928
  Cl  -1.16077926117845      1.29021638609541     -1.31736928681854
  H   0.69317494705121     -1.00184199913104      0.83733792542564
  N   1.20418028261442      1.44386672067751      0.02033613186925
  O   2.20993792527827      0.89720206073878      0.45510720356613
  O   0.90335530176908      2.62074441289054      0.07947990241899
  C   0.94578211298155     -0.27355950047719     -1.67250383594341
  N   1.54837357480548     -0.84216203331466     -2.50614967156324
  N   -1.07899162302053     -1.54180403471239     -0.09269282104077
  H   -2.02555951906179     -1.20237962984396     -0.21051728303870
  H   -1.09745348995316     -2.36500048773539      0.49459312347087
  C   -0.81003432162715      0.24357693143304      1.59107197087079
  N   -1.32078198162991      0.81674870851090      2.48086862387466
