14
Coordinates from ORCA-job run
  C   0.21832999482990      0.82506653664388     -0.25359187002490
  C   -0.69574724265313     -0.18209393790022      0.48523912675114
  Cl  0.50511555079228      2.24545231298497      0.74656023047302
  H   -1.63676131717430      0.36355684896400      0.61884071706679
  N   1.58993366590146      0.19948553623265     -0.58131723434869
  O   1.82845821530246     -0.89735782269821     -0.09189164677002
  O   2.31711306182458      0.86609378571957     -1.29856089896784
  C   -0.37875511309937      1.22351768335014     -1.52270902218866
  N   -0.91475005043781      1.53014692138720     -2.52345012708251
  N   -0.18919350778205     -0.52704544641606      1.78835031130376
  H   0.48850058162984     -1.27385947398906      1.72951688823578
  H   -0.94594441981747     -0.79901242532853      2.40029078783523
  C   -0.97402286834723     -1.32031191836531     -0.41283171371605
  N   -1.21227655096917     -2.25463860058502     -1.08444554856704
