14
Coordinates from ORCA-job run
  C   0.26381535677579      0.66051472359035     -0.51896144602537
  C   -0.54854665366812      0.02221280141070      0.62220337212088
  Cl  -0.28136757606934      2.30309076254975     -0.85020724980161
  H   -0.40772098875134      0.67672777664018      1.48669505086269
  N   1.71852879994066      0.72951346035741     -0.01409005501932
  O   1.86170006784324      1.25727184321708      1.07661541347298
  O   2.58179310949680      0.26882000906988     -0.74313043459813
  C   0.20945497274008     -0.16090888699844     -1.71805650854709
  N   0.08572166476781     -0.85849512385659     -2.65632669668284
  N   0.04263037959523     -1.26865445349716      0.89892102987642
  H   -0.33466472999443     -1.99096847913386      0.29709672598181
  H   -0.10080338718744     -1.53636352359122      1.86343329952750
  C   -1.97496676559088     -0.00432497268752      0.26404505200560
  N   -3.11457424989804     -0.09843593707057     -0.00623755317352
