14
Coordinates from ORCA-job run
  C   0.12176014143736      0.84748200495086     -0.30941356642333
  C   -0.72854714450244     -0.21651825921272      0.42861233265906
  Cl  -0.00708909242494      2.38674295719711      0.52524884206654
  H   -1.69922275194777      0.26699181909371      0.57846616185512
  N   1.60509523621367      0.39375659713052     -0.32212021799255
  O   1.76928862005651     -0.81990936018919     -0.31637285532835
  O   2.45653482487985      1.25943805781110     -0.39282313215747
  C   -0.26893417110248      0.99702772685482     -1.70561959339514
  N   -0.59519676687095      1.10450648659917     -2.83045019429928
  N   -0.14132157132227     -0.48639793178310      1.72028208727908
  H   0.51129140652419     -1.25750319625744      1.66630786556079
  H   -0.85507275360583     -0.70034753624826      2.40251954992503
  C   -0.96437285787346     -1.40120082199647     -0.41427646168661
  N   -1.20221311946143     -2.37306854395011     -1.03036081806289
