14
Coordinates from ORCA-job run
  C   0.31277523585546      0.42061415865814     -0.61241044619887
  C   -0.31545104324080     -0.50586142271681      0.45215491730840
  Cl  -0.91214069008989      1.37583337490076     -1.42176667416315
  H   0.52034838760001     -1.05278280444032      0.89831451641478
  N   1.31353089140608      1.33807363626305      0.14403255407970
  O   1.11262958254914      2.53720078000042      0.16941891835418
  O   2.21795062698673      0.71080165698517      0.68030403833833
  C   1.07969429798911     -0.36117476107301     -1.57107120162713
  N   1.70998436262759     -0.98409131509549     -2.34320201017347
  N   -1.19130495595483     -1.44569049538699     -0.20384424969794
  H   -1.33820194861546     -2.26174671307882      0.37523298936697
  H   -2.08870222452600     -1.02759713839539     -0.41467632803379
  C   -0.93900961808322      0.31830666372767      1.50483755016933
  N   -1.48210290450394      0.93811437965162      2.34267542586265
