14
Coordinates from ORCA-job run
  C   0.27124680957565      0.69222074916435     -0.41060377474338
  C   -0.81387607109841     -0.08906308080828      0.42678992493061
  Cl  0.60597351623961      2.24206646065618      0.35393392259128
  H   -1.73309805285449      0.49183151528780      0.28868367759150
  N   1.54943462115276     -0.15461640711980     -0.42379284545856
  O   2.13500310462759     -0.24717895680448      0.64659886710790
  O   1.82474355941207     -0.71619658136783     -1.47503371064897
  C   -0.18576077672198      0.89260985640200     -1.77546175369316
  N   -0.64308782672433      1.07494984381006     -2.84352991480691
  N   -0.58602424886719     -0.25586375039340      1.83010919259493
  H   -0.60140092611754      0.63347357812172      2.31116098042837
  H   0.29213858639638     -0.72270353434251      2.01707152206431
  C   -0.99696366596684     -1.39624147382724     -0.21858639267114
  N   -1.11832862905328     -2.44728821877857     -0.72833969528678
