14
Coordinates from ORCA-job run
  C   0.25449866173844      0.65922823584223     -0.52630205923622
  C   -0.49294855397295      0.03566908159042      0.66599272924266
  Cl  -0.22638603156484      2.33565481693531     -0.77739575269551
  H   -0.24699652478248      0.65976622046358      1.52942973312879
  N   1.74812769864038      0.64024933477749     -0.14515731757797
  O   2.00970699511872      1.13189592856662      0.94051973078905
  O   2.52172849237904      0.15510051684334     -0.95447124793216
  C   0.05621399810024     -0.12932351063832     -1.73233777455366
  N   -0.18404087014379     -0.79954218638154     -2.66790145385151
  N   0.04946780959428     -1.29081069055421      0.86452500925103
  H   -0.41760032680698     -1.97771910553283      0.28475333679796
  H   -0.02372105726438     -1.57335503399643      1.83264203043602
  C   -1.94365517814407      0.09072013988229      0.42921285139363
  N   -3.10539511289161      0.06146625220204      0.25549018480788
