14
Coordinates from ORCA-job run
  C   0.36225201372815      0.73829461027341     -0.34558918261097
  C   -0.71623992605446      0.00638773546932      0.48890404592358
  Cl  0.88752965358876      2.20112480178504      0.48034760815181
  H   -1.53711510122958      0.72980463269905      0.55343549189326
  N   1.60350006284733     -0.15538301383800     -0.55881331024540
  O   1.60735872270529     -1.24029007616100      0.00869880799519
  O   2.46934546383803      0.30718379675389     -1.28240847989828
  C   -0.14670728570968      1.07004577238123     -1.67117093314415
  N   -0.61019405528591      1.33299491978483     -2.71938083200559
  N   -0.26292982459547     -0.27860828305718      1.82609560345565
  H   -1.04458116972733     -0.31341084370538      2.46518245451110
  H   0.24693689159606     -1.15000928241649      1.86097600904406
  C   -1.21579448804661     -1.15348103214506     -0.27475937038433
  N   -1.64236095765457     -2.09565373782367     -0.83251791268593
