14
Coordinates from ORCA-job run
  C   0.22046498568564      0.41116296482752     -0.58668682369818
  C   -0.29077726591708     -0.49102556779423      0.58844952938216
  Cl  -1.10489297039872      1.23182320614261     -1.38200510724789
  H   0.61300221031822     -0.91490807893102      1.03910801089758
  N   1.21060956225249      1.42432507466843      0.03426912254517
  O   0.90252080927788      2.60041771206323      0.07398973576165
  O   2.21789134296223      0.88854750558946      0.48102151150317
  C   0.95967310300147     -0.41512138210910     -1.52936957129152
  N   1.51297997955799     -1.14416788348071     -2.26757992694344
  N   -1.16623329038511     -1.56191570638235      0.21118673240241
  H   -0.69190351237586     -2.25009563866282     -0.35914553989604
  H   -1.99735711838309     -1.22829526556416     -0.25868150355795
  C   -0.93432888237769      0.37596121360750      1.58246334135515
  N   -1.45164895321836      1.07429184602566      2.37198048878772
