14
Coordinates from ORCA-job run
  C   0.26788541975481      0.64814751461756     -0.53310203813579
  C   -0.49407004693649      0.05163310779325      0.66425799571270
  Cl  -0.18240107637438      2.33027363875891     -0.80327605127841
  H   -0.23868711687584      0.68210422181585      1.52030905731163
  N   1.75953045469639      0.60535814652560     -0.14742054721607
  O   2.52541472075278      0.09329241120079     -0.94741287959968
  O   2.02744585673410      1.10477616998822      0.93302739169314
  C   0.05813127550737     -0.14864262789279     -1.73162133691273
  N   -0.19024598987841     -0.82135363479853     -2.66334968931789
  N   0.02424852530463     -1.28119466430075      0.88072694355356
  H   -0.05639536599484     -1.55184557309443      1.85154114634963
  H   -0.45131893423076     -1.96712719836869      0.30677503262979
  C   -1.94286973302207      0.13032716380614      0.42264107154023
  N   -3.10466798943729      0.12225132394887      0.24690390366987
