14
Coordinates from ORCA-job run
  C   0.29063551308822      0.44191214651220     -0.60802224430344
  C   -0.30992917838014     -0.51656445589635      0.44408431743376
  Cl  -0.93408253986226      1.50819387938772     -1.26396422074119
  H   0.52356913025105     -1.13252430501477      0.79430807451319
  N   1.39341001334817      1.25668458696826      0.12422227729859
  O   1.25938626101987      2.45967279974715      0.24126885764608
  O   2.30054106537307      0.55160433542395      0.54722219419495
  C   0.94258086117423     -0.31578523411139     -1.66617190435772
  N   1.48401111896823     -0.92145810936669     -2.51554201128974
  N   -1.28046015720416     -1.36828011509123     -0.19959928623288
  H   -1.43049795032268     -2.21003140377293      0.34077388955390
  H   -2.16629376197937     -0.89278962544685     -0.31762444789217
  C   -0.81192878961749      0.27168602341552      1.58558896540110
  N   -1.26094158585673      0.86767947724541      2.49345553877555
