14
Coordinates from ORCA-job run
  C   0.24342755623596      0.66603124828349     -0.52277105523642
  C   -0.49627529471897      0.02306523619708      0.66426801769832
  Cl  -0.26966948558230      2.33390636010390     -0.76805163997091
  H   -0.26435795638789      0.64901662182303      1.53027370656597
  N   1.73555956517465      0.67408428913363     -0.13550653158113
  O   2.52138468357971      0.20589780526153     -0.94299315327030
  O   1.98316653573357      1.16601485465753      0.95321060455101
  C   0.06553513584432     -0.12001473907236     -1.73348201577173
  N   -0.15622049473041     -0.78787014615847     -2.67534776128775
  N   0.07083321826874     -1.29314415529544      0.86004028810366
  H   -0.00045449603247     -1.58128847308766      1.82659719544214
  H   -0.37956088681957     -1.98691132123150      0.27525595728454
  C   -1.94699339414564      0.05144418590549      0.42303164685421
  N   -3.10737468641970     -0.00023176652027      0.24547474061838
