14
Coordinates from ORCA-job run
  C   0.24620054927362      0.63900981090981     -0.55391993789872
  C   -0.49379163157810      0.05711063180494      0.66384792389913
  Cl  -0.25841569766171      2.29644208813225     -0.87602928825623
  H   -0.25615643672946      0.72128557356206      1.49928054074193
  N   1.73942399425457      0.65737657417337     -0.17244247129291
  O   2.52035513912382      0.15031070029815     -0.96102272520746
  O   1.99355739396031      1.19707592880691      0.89185888752456
  C   0.05987901465506     -0.20203136952183     -1.72580864769826
  N   -0.16956037088764     -0.91271167662458     -2.63390544594555
  N   0.06619624089549     -1.25222452392277      0.91968911894035
  H   -0.39198516107228     -1.96941399283184      0.37013466762963
  H   -0.00462274077908     -1.49397657481370      1.89900893626046
  C   -1.94485786761611      0.08255300567029      0.42505087137629
  N   -3.10622242583849      0.03019382435693      0.25425756992678
