14
Coordinates from ORCA-job run
  C   0.22950225387262      0.62506618984762     -0.48872923522615
  C   -0.63794234008512      0.03292520486121      0.65754323851112
  Cl  -0.22429075023751      2.29285968246468     -0.83763167037443
  H   -0.53345008479453      0.72613787552611      1.49712844028278
  N   1.68463942522648      0.63962997605889      0.01280387788268
  O   2.55075330218768      0.27681533526013     -0.76950247908556
  O   1.83720755494694      1.03350491993472      1.16099563273670
  C   0.15205465496151     -0.20494630895130     -1.67999117316965
  N   0.01805739072792     -0.92385718106050     -2.60084105656841
  N   -0.24924908614599     -1.28114923793225      1.08545804055407
  H   0.64446717057565     -1.28726004050241      1.55596336402163
  H   -0.28335030801249     -1.97062390398994      0.34598310949860
  C   -2.03591187909230      0.03142971976709      0.21235980944165
  N   -3.15148730413085      0.00846776871596     -0.15253989850504
