14
Coordinates from ORCA-job run
  C   0.27892144098825      0.65404512280073     -0.52009327211743
  C   -0.54651284057217      0.03609362358503      0.62294334357344
  Cl  -0.22599285422467      2.30980398475663     -0.84999866878097
  H   -0.38810176427816      0.68723276562484      1.48689712370372
  N   1.73599169579753      0.68673961564005     -0.01866808063554
  O   2.58584180032964      0.20423175923975     -0.74929542731950
  O   1.89457365039003      1.21082875348031      1.07171038378502
  C   0.20145327102840     -0.16565525133166     -1.71905630768072
  N   0.05806033770290     -0.86019541422974     -2.65679338085474
  N   0.01329078754024     -1.26891505745575      0.89852894570722
  H   -0.38493604808180     -1.98239423525674      0.29977316629870
  H   -0.13123061711559     -1.53159961423638      1.86416054948421
  C   -1.97392448696689      0.04395549932972      0.26800205367100
  N   -3.11643437253771     -0.02317155194677      0.00188957116558
