14
Coordinates from ORCA-job run
  C   0.23018902684042      0.62401858960190     -0.48784420694682
  C   -0.59546617182598      0.04744137434782      0.69641933831323
  Cl  -0.16117707031120      2.31975300851690     -0.77338038331761
  H   -0.40647269378480      0.71456991928406      1.54238171938812
  N   1.71208114312240      0.55802899809377     -0.07730692754270
  O   2.51134860845317      0.18512526538930     -0.92342544602986
  O   1.95244318717922      0.90684998811930      1.07054550774788
  C   0.04102615730080     -0.17187058697412     -1.68978987768435
  N   -0.17983324583655     -0.86009452346099     -2.61732889656398
  N   -0.24789739411768     -1.29342696770721      1.07242720204519
  H   -0.35953391596264     -1.96384339530381      0.32309973702617
  H   0.66909038282499     -1.35416946796520      1.49134040749978
  C   -2.01577396131962      0.12473302724286      0.33649645366957
  N   -3.15002405256253      0.16288477081541      0.03636537239538
