14
Coordinates from ORCA-job run
  C   0.44430133796624      0.21745911933453     -0.63681518840254
  C   -0.43247277712253     -0.34094656491027      0.50602991422614
  Cl  -0.53537506187199      0.99502479996217     -1.86261231242873
  H   0.26255537879677     -0.79758873051496      1.21680389658756
  N   1.41611753059097      1.23758442282399      0.01883860309376
  O   2.15824726173030      0.72090245714694      0.84437106252169
  O   1.34491220959084      2.40936749413381     -0.29861864578902
  C   1.25499695399130     -0.84461157942470     -1.21435331540499
  N   1.92180694414758     -1.69403228727240     -1.67825337924866
  N   -1.29599181752474     -1.36694724371377     -0.02553947547581
  H   -1.61536361505460     -1.98183641150507      0.71136782658473
  H   -2.10135529467304     -0.96646180821574     -0.48990430891886
  C   -1.11480227379894      0.77753196110932      1.18424767053902
  N   -1.70957677676816      1.63455437104615      1.72543765211569
