14
Coordinates from ORCA-job run
  C   0.44583888067432      0.25843503064010     -0.62071430318771
  C   -0.43750626540643     -0.37113529866291      0.47915108417557
  Cl  -0.52130824561271      1.15989339490905     -1.76924755561356
  H   0.24998139671444     -0.90470039875368      1.14205818926410
  N   1.44778705493607      1.19544799563781      0.10879829725182
  O   2.18235152838835      0.59302722590812      0.88138439738384
  O   1.40415685027133      2.39120336518266     -0.10855093873119
  C   1.22498178066309     -0.77215686846784     -1.29139614759934
  N   1.86683712235473     -1.59660366474513     -1.82962128957539
  N   -1.33289833202193     -1.32475997294651     -0.12891122504139
  H   -2.13059625184487     -0.86493557815780     -0.54948453720840
  H   -1.66267734917827     -1.99247363032751      0.55547807393265
  C   -1.08401315566766      0.70319084871197      1.25651157589927
  N   -1.65193501427045      1.52656755107168      1.87354437904973
