14
Coordinates from ORCA-job run
  C   0.17991945867972      0.37687865571441     -0.68938543738117
  C   -0.18284239288906     -0.48070156072222      0.54295669800739
  Cl  -1.25762850785964      1.01563997397090     -1.45964891021871
  H   0.76966688999119     -0.82584849236507      0.95586882522560
  N   1.08201479112449      1.52964812583058     -0.16825568886605
  O   2.12420741383787      1.12573787661123      0.33178381191150
  O   0.68988099619400      2.67677146280636     -0.26476605809039
  C   0.97173910072307     -0.40228921951947     -1.62993062936354
  N   1.62262242002979     -1.02183507542333     -2.38747585289986
  N   -0.94472514658373     -1.62580978548666      0.10788772253482
  H   -0.89844961675937     -2.36722189367197      0.79431338810840
  H   -1.91525803702227     -1.38398913516492     -0.04846573672692
  C   -0.83809765107474      0.37349059018833      1.55175781386522
  N   -1.40204971839134      1.00952847723184      2.36336005389371
