14
Coordinates from ORCA-job run
  C   0.26737210501487      0.66112691892452     -0.51595578140012
  C   -0.55130177064986      0.02023948200926      0.61914030103778
  Cl  -0.27368493042484      2.30594234484907     -0.84354331763338
  H   -0.41203267221951      0.67127430363645      1.48649419677490
  N   1.71973519738541      0.72600733526859     -0.00483488262337
  O   2.58567681848014      0.26823906354678     -0.73264948355692
  O   1.85910447387675      1.24770195497238      1.08932452910285
  C   0.21715410089990     -0.15547780153872     -1.71856162159346
  N   0.09838584520951     -0.84837674761894     -2.66100460465646
  N   0.03492131233469     -1.27308338254971      0.89331136659640
  H   -0.34042884380301     -1.99222090609810      0.28685446154058
  H   -0.11176440574083     -1.54442817076500      1.85618507885607
  C   -1.97684070257533     -0.00027121752742      0.25703779298366
  N   -3.11729652778788     -0.08767317710917     -0.01179803542853
