14
Coordinates from ORCA-job run
  C   0.22694649894743      0.62541734464736     -0.48892538256825
  C   -0.63927172221653      0.03092490962885      0.65708196769123
  Cl  -0.23277395832268      2.29187550647780     -0.83745511861777
  H   -0.53972728183087      0.72652865437447      1.49537242098221
  N   1.68091916950783      0.64378869134453      0.01566139732220
  O   2.54829635547529      0.26813808216861     -0.75924539952097
  O   1.83079715320795      1.04933570597136      1.15998154015793
  C   0.15378957882436     -0.20278222850539     -1.68148452750280
  N   0.02836198564129     -0.91557352408747     -2.60835172980934
  N   -0.24459488568209     -1.28011451879089      1.08852460896441
  H   0.64794007898259     -1.28090679028291      1.56135765389650
  H   -0.27388383289226     -1.97185236422149      0.35096867291800
  C   -2.03633724234846      0.02218605386246      0.20914330018882
  N   -3.14946189729384     -0.00596552258730     -0.16262940410216
