14
Coordinates from ORCA-job run
  C   0.34478494825784      0.76542408864306     -0.29629178991200
  C   -0.67644652737824     -0.03972540565254      0.54282931642394
  Cl  0.97087506718385      2.12450776068016      0.63182251390319
  H   -1.48723120631525      0.67349254767681      0.72979133602446
  N   1.54581054107687     -0.11160345114460     -0.70770840683273
  O   2.31950805238072      0.39170899568936     -1.50499944434626
  O   1.62111654184501     -1.22142785461360     -0.19577027936529
  C   -0.26864322061387      1.24579740706269     -1.52877436772641
  N   -0.81452103268272      1.62805487293037     -2.49755024899962
  N   -0.13887070311677     -0.44884857199008      1.81478471592932
  H   0.38462423188938     -1.30859504770718      1.72908719054646
  H   -0.88156659626889     -0.56597451318375      2.48989582554706
  C   -1.23002191964504     -1.12313172046336     -0.29340502833128
  N   -1.68841817661289     -2.00967910792733     -0.91371133286085
