14
Coordinates from ORCA-job run
  C   0.32784648365606      0.77534137110626     -0.29077311764195
  C   -0.67701986759243     -0.05766350289281      0.54044333724049
  Cl  0.91402896038524      2.14574374887975      0.64660788545745
  H   -1.50112658098052      0.63802446455124      0.73536293521898
  N   1.55249664700052     -0.07045843264287     -0.69999564384537
  O   2.33225412912479      0.46661943052852     -1.46883305468486
  O   1.63626330398441     -1.19259849965239     -0.21699289913231
  C   -0.28984090366552      1.24518302942110     -1.52516725783365
  N   -0.83929884634068      1.61553098023987     -2.49651850772707
  N   -0.12789852768205     -0.46780205937047      1.80732547982935
  H   0.40560768606339     -1.32057113181206      1.71384866618314
  H   -0.86485681828846     -0.59832445146329      2.48619844073004
  C   -1.21162078918345     -1.14452475320750     -0.30344929554908
  N   -1.65583487648130     -2.03450019368537     -0.92905696824517
