14
Coordinates from ORCA-job run
  C   0.14419528117308      0.82883492701472     -0.29072831371259
  C   -0.72049363724707     -0.23992387644589      0.42024219872275
  Cl  0.13904335414980      2.33378729881636      0.62339392730716
  H   -1.72987453681176      0.18690332715921      0.41096892759100
  N   1.61030893908189      0.36627288681553     -0.42102252410652
  O   1.92241295495402     -0.65703437995534      0.17489345217382
  O   2.32935170329677      1.07465957172449     -1.10576234706825
  C   -0.34502468786039      1.06788369666647     -1.64335480966819
  N   -0.79387637117188      1.24099790798962     -2.71642079842019
  N   -0.33044542401980     -0.43502207390494      1.79281072797879
  H   -1.11365685240474     -0.76742718001621      2.33795315241083
  H   0.43729471297500     -1.08771488336081      1.86371835255434
  C   -0.75236636796497     -1.45818295884607     -0.41312546103879
  N   -0.79786906814996     -2.45503426365714     -1.03356648472416
