14
Coordinates from ORCA-job run
  C   0.16311715076144      0.40930799854826     -0.67524593536138
  C   -0.18112987660457     -0.50329951140642      0.52244217003942
  Cl  -1.27224460034405      1.18613975752786     -1.31086902842054
  H   0.76928492801679     -0.93546262166576      0.84959790227082
  N   1.16904377554962      1.46682959138447     -0.14119662527465
  O   0.84172815319557      2.63802404138415     -0.12493445955973
  O   2.21569962936721      0.96791732140832      0.25226379758508
  C   0.84398085781355     -0.35319273658963     -1.71130631010666
  N   1.40462925243451     -0.95804836124764     -2.54872126976377
  N   -1.04329795988529     -1.56682624751117      0.06715672791930
  H   -1.00568861254897     -2.35327762859348      0.70205572420578
  H   -2.00299021832411     -1.25481336346573     -0.01205550638889
  C   -0.71508517071478      0.32122400033129      1.62313825392113
  N   -1.18504730871692      0.93447775989548      2.50867455893409
