14
Coordinates from ORCA-job run
  C   0.21670541732654      0.63453444505534     -0.47948311057036
  C   -0.59389270990189      0.02598410019283      0.69906822803163
  Cl  -0.20732857877398      2.32674352970704     -0.73947139037994
  H   -0.41505103809076      0.68497805854690      1.55357614608153
  N   1.70109174971496      0.59094566659418     -0.07517167159586
  O   1.93919293182672      0.92643101928529      1.07713451347383
  O   2.50426624560141      0.24737351868559     -0.92999144400872
  C   0.03836752595474     -0.14734504614496     -1.69220783408667
  N   -0.17421219333921     -0.82624058877870     -2.62855537764822
  N   -0.21954860292215     -1.31299614053175      1.05526586167989
  H   -0.32099557058587     -1.97473029725815      0.29704814958426
  H   0.69926265351307     -1.36236551848526      1.47123177474331
  C   -2.01652832003824      0.08103360564573      0.34425504188649
  N   -3.15232951028533      0.10365364748591      0.04830111280882
