13
Coordinates from ORCA-job run
  C   -0.36499391275340      0.12463084242699     -0.08004141933288
  C   0.77797988888476      0.80538394830145      0.15523071197079
  H   0.75928559225290      1.88337304944482      0.03884534422393
  N   -1.51150661630454      0.90714658572452     -0.51846947080706
  O   -2.53070083234829      0.26817725548200     -0.79685397935888
  O   -1.42221615652076      2.13302459984032     -0.59634932733002
  C   -0.59148290532897     -1.34574377866396      0.03752520207675
  H   -0.80222313045106     -1.79662191045897     -0.93469291387219
  H   -1.44668323186903     -1.55423447675604      0.68217855813566
  H   0.28178936488417     -1.83895872483793      0.46944737607449
  N   1.95818262650433      0.27757315121764      0.61064356660424
  H   2.77646254283925      0.84228998020991      0.46144539257953
  H   2.11410677021063     -0.70704052193073      0.47209095903563
