13
Coordinates from ORCA-job run
  C   -0.24926438481168     -0.18178997933843     -0.04295114609567
  C   1.01954241231159      0.10092425736624      0.36703749475680
  H   1.50513154575562     -0.66022644410260      0.97222721764872
  N   -0.99399691740525      0.76121502892373     -0.82886459004786
  O   -2.14691230402852      0.45435565280085     -1.14522102028669
  O   -0.45857020368444      1.83513278405615     -1.15404060758776
  C   -0.97021716586639     -1.44599095647735      0.30043154753313
  H   -0.32422528889862     -2.09130316078040      0.89875869945407
  H   -1.26554541846113     -1.98785223213000     -0.60063459643212
  H   -1.88214474202932     -1.24136120445620      0.86526087034069
  N   1.79911843396441      1.16983457917819      0.07858875141214
  H   2.61459128911659      1.32448624136987      0.64336519165576
  H   1.35249274403716      1.96257543358994     -0.35395781235123
