13
Coordinates from ORCA-job run
  C   -0.34086258415169      0.10751198826068     -0.16729035675729
  C   0.84195466458895      0.75117526875792     -0.05730057783803
  H   0.89691095842895      1.77628762411702     -0.40669019045952
  N   -1.45502902365970      0.87789240754319     -0.70007683808602
  O   -2.54632210004623      0.30128332012117     -0.73566455375534
  O   -1.27332751960387      2.03582261247059     -1.07836694730428
  C   -0.65066580469054     -1.30121024688991      0.21506936808623
  H   -1.34827999668145     -1.34543278244425      1.05440485443130
  H   0.26042689170348     -1.83745599780072      0.48882033574001
  H   -1.11337626672425     -1.83294628054418     -0.61767449869498
  N   2.02175261360906      0.21101169057937      0.38222258757329
  H   1.97744137948098     -0.61303704804574      0.95806952456475
  H   2.72937678774631      0.86709744387486      0.66347729249988
