13
Coordinates from ORCA-job run
  C   -0.21875673484221     -0.21312931075355      0.03149482196280
  C   1.01109607971396      0.13900436965582      0.45323635411287
  H   1.51193962336040     -0.54011190175012      1.13969068703188
  N   -0.87482584610400      0.63516808104213     -0.96078444278885
  O   -1.31962115646277      0.07378472446635     -1.96213436622982
  O   -0.93780164369194      1.84985706461411     -0.74455716844585
  C   -1.02144708963025     -1.39115250996294      0.47167929072569
  H   -1.28523796514444     -2.02861791281873     -0.37445378371993
  H   -0.45923932342476     -1.97487849131390      1.20229186969841
  H   -1.94976450924053     -1.06360101265188      0.95000993350033
  N   1.68708765856763      1.32193603947677      0.20906683705748
  H   2.65903540684088      1.21680664080043     -0.03589761146700
  H   1.19553550005804      1.97693421919550     -0.38064242143802
