13
Coordinates from ORCA-job run
  C   -0.24635209340089     -0.18557440303467     -0.04539898182255
  C   1.01514672205028      0.11441548776576      0.37475034144004
  H   1.50194771097780     -0.63503740608368      0.99348722915618
  N   -0.99258345991784      0.74223370728770     -0.84807282466391
  O   -0.46471941156854      1.81786584278849     -1.17961925978511
  O   -2.13981803388680      0.42119744810655     -1.17101579061657
  C   -0.95994283715382     -1.45096045203700      0.30841160514093
  H   -1.87855716917742     -1.24661323635509      0.86242562973468
  H   -1.24265233737957     -2.00716312568743     -0.58795894421224
  H   -0.31398569978933     -2.08289435710569      0.92088681648509
  N   1.78976291129417      1.18555206306626      0.07912878341052
  H   1.33737727748043      1.96978948812139     -0.36314014618549
  H   2.59337642047156      1.35718894316741      0.65611554191844
