13
Coordinates from ORCA-job run
  C   -0.34817011190302      0.13102694992103     -0.13131004736742
  C   0.83043265888389      0.76436333179903      0.05620785006566
  H   0.86184221388595      1.83686275339130     -0.10119865791993
  N   -1.48848093498155      0.96531422754478     -0.48166691972340
  O   -1.33358244157155      2.17632501800211     -0.64423390338513
  O   -2.57303264308891      0.38534854999987     -0.59110162057302
  C   -0.62682214615605     -1.32982692359867     -0.00788204523566
  H   0.29977113156863     -1.88990932351103      0.13424901832686
  H   -1.29650297567124     -1.54196592910406      0.82853917412163
  H   -1.10952174451221     -1.70664079224750     -0.91087303409834
  N   2.03141670581438      0.17315120634709      0.35054565866933
  H   2.01361099597319     -0.74171815324863      0.76957004593484
  H   2.73703929175848      0.77966908470469      0.73115448118459
