13
Coordinates from ORCA-job run
  C   -0.24774425361557     -0.18351148928468     -0.04232714450311
  C   1.03378922759824      0.10014055019829      0.32484020739261
  H   1.56496705904196     -0.69028671670468      0.84871451043783
  N   -1.05107532560057      0.79529656920495     -0.71928036225199
  O   -2.21123455594346      0.48273392829870     -1.00205857134981
  O   -0.55513610103338      1.90203424883349     -0.99243909509759
  C   -0.92091631864647     -1.48923324319955      0.23647708863999
  H   -1.80880875745795     -1.35249540645382      0.85739838389029
  H   -0.23160634366287     -2.15994967155980      0.75282939756011
  H   -1.24758504673345     -1.96947718862397     -0.68842712578276
  N   1.77600947030625      1.20599001683683      0.07616774866945
  H   1.28962729364021      2.01717111954012     -0.27112060560967
  H   2.60971365210705      1.34158728291414      0.61922556800466
