13
Coordinates from ORCA-job run
  C   -0.36643949307957      0.12515870640339     -0.07682129427663
  C   0.77002766037665      0.80536768152986      0.19001031220757
  H   0.74349972100292      1.88712839878295      0.11834047146262
  N   -1.51656484863837      0.91424132059937     -0.49255036456053
  O   -2.52529103495220      0.27785917736067     -0.81165358162627
  O   -1.43994838084138      2.14332721462726     -0.51397093677079
  C   -0.57941945159820     -1.35068347899359     -0.01518201213090
  H   -0.74931143251508     -1.77448210818504     -1.00751948232693
  H   -1.45542240736043     -1.58703530967955      0.59057745509997
  H   0.28225723446595     -1.84735605723721      0.43574460310121
  N   1.95277875870868      0.26837517783728      0.62724612451280
  H   2.11902070995865     -0.70751328603469      0.44589958138908
  H   2.76681296447239      0.84661256298929      0.51087912391881
