13
Coordinates from ORCA-job run
  C   -0.34677643393538      0.10040159182416     -0.15778365440789
  C   0.88424961916191      0.64095916005245     -0.29109863646559
  H   0.97704381267737      1.55811279677364     -0.86222844386295
  N   -1.45015361855996      0.83682283961789     -0.75748635167877
  O   -2.57837638220640      0.36990564985761     -0.57359202179543
  O   -1.22392491014408      1.86313062065977     -1.39978397961407
  C   -0.71821398804219     -1.15875950322201      0.55158560474348
  H   -1.33544279308605     -0.95699165304230      1.42984569179795
  H   0.17399748292956     -1.70291822054857      0.86851556202789
  H   -1.29371850982099     -1.81424382780560     -0.10382908091440
  N   2.06039739729141      0.10159052328036      0.15939492379020
  H   2.01395323403687     -0.57272814624551      0.90495979490504
  H   2.83696508969791      0.73571816879810      0.23150059147455
