13
Coordinates from ORCA-job run
  C   -0.33190846080769      0.08913264517114     -0.15220192049530
  C   0.87617002327031      0.68736092081344     -0.19921009337885
  H   0.93306151721226      1.69310172401247     -0.59882289768599
  N   -1.46998322408854      0.92221789735946     -0.58019525760787
  O   -2.53984892571325      0.34106971004990     -0.77725690376144
  O   -1.30770150653496      2.13590340135044     -0.73275015764128
  C   -0.70225740309639     -1.26881618849904      0.35134822034429
  H   -1.15619156181908     -1.18657092320282      1.34243419245217
  H   0.18245800226148     -1.90598326392339      0.40804169373217
  H   -1.42316196493204     -1.71704397759632     -0.32937123409288
  N   2.06270129129639      0.08143962492428      0.16213294056518
  H   2.00821397612947     -0.55317165971394      0.94108314746985
  H   2.86744823682204      0.68236008925438      0.16376827009995
