13
Coordinates from ORCA-job run
  C   -0.34705749330301      0.13786096933641     -0.12798562041046
  C   0.86103563150163      0.73178016388160     -0.01260205326863
  H   0.96929880370343      1.74152816433837     -0.39293944174402
  N   -1.38544683720899      0.89890024476929     -0.80688169393973
  O   -2.46510574545354      0.32158984946382     -0.96725626982194
  O   -1.15389187996892      2.04798558626515     -1.18502740468875
  C   -0.74195956258718     -1.22234753359793      0.34190354766512
  H   -0.96525401225707     -1.88738596109338     -0.49531895953708
  H   0.05232924364628     -1.67022446703960      0.94280882288719
  H   -1.63914790755023     -1.16982390962700      0.96050792223480
  N   1.96215156557997      0.21459601454603      0.61746535974094
  H   2.84315145836187      0.63976374288756      0.38648390466999
  H   2.00989673553575     -0.78322286413032      0.73884188621257
