13
Coordinates from ORCA-job run
  C   -0.26663402294954     -0.16164330151762     -0.00232576526778
  C   1.07355365105108      0.01055561518784      0.17787686070071
  H   1.59804110829923     -0.80759438593903      0.66467680594132
  N   -1.06239881755115      0.86474353943252     -0.61455170885210
  O   -0.50956531147229      1.90761806808396     -1.00515635220255
  O   -2.27440916352762      0.65774834406031     -0.72232273131373
  C   -1.01326948810966     -1.38078748497788      0.43597471151168
  H   -1.50851650480809     -1.86407044755642     -0.40898651693870
  H   -1.78921722072139     -1.13043911190691      1.16244164832998
  H   -0.32416177989299     -2.09518845149807      0.89038125040321
  N   1.87168124913392      1.02912936048776     -0.22092237737737
  H   1.41937951851573      1.86875657651494     -0.54565242253822
  H   2.78551678203277      1.10017167962860      0.18856659760355
