13
Coordinates from ORCA-job run
  C   -0.37117391860988      0.12873667994745     -0.03684548598488
  C   0.77563507003128      0.78271947368868      0.25073836005128
  H   0.73766856489483      1.86346991747624      0.33129343279843
  N   -1.55031420284699      0.95044042953883     -0.26564714362846
  O   -1.48005400425860      2.17278986159921     -0.13139476457930
  O   -2.57707172199035      0.34824505279263     -0.59399660142024
  C   -0.57130683111451     -1.34418065885696     -0.16916343597760
  H   -1.39490858275932     -1.67812034019852      0.46380066666224
  H   0.32587376800661     -1.88640213024011      0.13676648162162
  H   -0.81831132587530     -1.62530178689251     -1.19531911234279
  N   1.98685156848576      0.20926003948562      0.53403698518014
  H   2.78932977571707      0.80957365409819      0.45776028241238
  H   2.14878184031941     -0.73223019243874      0.21797033520718
