13
Coordinates from ORCA-job run
  C   -0.36492424202627      0.13344056456255     -0.07118392024701
  C   0.82830188675168      0.76684454781025     -0.04436332992242
  H   0.85610926715141      1.81072167210447     -0.33679471419782
  N   -1.50190598449357      0.90602625036975     -0.54927208784806
  O   -1.35699614788624      2.09486926149472     -0.83675284320069
  O   -2.57242733428033      0.29760851595883     -0.64111114572648
  C   -0.65434974626901     -1.27979239209921      0.31064573061446
  H   -1.47599980820868     -1.32320502313041      1.02712600058864
  H   -0.94835180706172     -1.87795473269221     -0.55475959031653
  H   0.21919755398662     -1.74152556863802      0.77571178460591
  N   2.01455620518928      0.24299854237373      0.39728828166632
  H   2.84619592867091      0.72747008184947      0.10766300283514
  H   2.11059422847592     -0.75850171996395      0.41580283114855
