13
Coordinates from ORCA-job run
  C   -0.25311729061204     -0.17326341966942     -0.05646095678132
  C   1.07306447010740      0.04157997081780      0.17440169771548
  H   1.67389392968589     -0.84503299784377      0.35988586903563
  N   -1.14437976242329      0.92714899711040     -0.29314667094793
  O   -2.33734613672132      0.66568169567712     -0.47229632366647
  O   -0.68812407962255      2.08357193160307     -0.30780971421030
  C   -0.88674720647689     -1.52769281925731     -0.05547293611772
  H   -0.13030329923805     -2.29152900673840      0.13453950109172
  H   -1.66126476932564     -1.60232718738765      0.71078330839165
  H   -1.36301203755319     -1.74030448789371     -1.01500709762841
  N   1.77590230166690      1.19857587674314      0.14374402494981
  H   1.24940179496351      2.05723817349706      0.12030580119653
  H   2.69103208554927      1.20535327334166      0.55653349697132
