13
Coordinates from ORCA-job run
  C   -0.26074969877954     -0.16851409344238      0.02959355301677
  C   1.08735958135634      0.03438730790053      0.02051744498076
  H   1.70454009374068     -0.85864161969095      0.07574704257769
  N   -1.17003499232224      0.93920537316210     -0.05571572815783
  O   -0.71368068053962      2.09373886333450     -0.12339378421385
  O   -2.37808724577290      0.68555739222471     -0.05973181933967
  C   -0.89633234798564     -1.51996294791713      0.10325890222422
  H   -1.52195513429786     -1.71118552085545     -0.77109693481981
  H   -1.53797045031601     -1.60648820337125      0.98278626760824
  H   -0.12509491456457     -2.29066228673327      0.15805408473909
  N   1.78221897341995      1.19588257278860      0.01555506131778
  H   2.76071331640379      1.16346875217425     -0.20572713210878
  H   1.26907349965762      2.04221441042574     -0.17184695782461
