13
Coordinates from ORCA-job run
  C   -0.24322258486399     -0.19080750827440     -0.04646001611895
  C   0.99938634983876      0.13300965435775      0.41089709742211
  H   1.51357042362536     -0.63816535290197      0.97849123357665
  N   -1.01385600098519      0.76011036655025     -0.79861988344446
  O   -0.53812758290032      1.88696946942870     -1.02188277169953
  O   -2.12955185733402      0.40456367945283     -1.19104701574161
  C   -0.89859693370925     -1.51508583422947      0.17891951066974
  H   -1.11419280266619     -2.01439342172219     -0.76829197794543
  H   -1.84706944621898     -1.40224395903916      0.70793253628063
  H   -0.24415668055261     -2.15709403447470      0.77185981531169
  N   1.71933468960047      1.26630994424540      0.21483244531031
  H   1.25639961758814      2.05344578759027     -0.21218660853401
  H   2.54008280857781      1.41238120901670      0.77555563491285
