13
Coordinates from ORCA-job run
  C   -0.26720339556173     -0.15746961264596      0.01640784362998
  C   1.07204126210371      0.03164919225356      0.18325534577101
  H   1.63949507212856     -0.84016216020634      0.49848674095604
  N   -1.11463827729006      0.91968531445435     -0.41118435411669
  O   -0.61311796749522      2.03817952848513     -0.61923411103805
  O   -2.31555839309541      0.67593480295224     -0.55846766733839
  C   -0.95410793475119     -1.46591667027866      0.24661796369835
  H   -1.44675051917178     -1.81853288495709     -0.66193392652593
  H   -0.22796015731417     -2.21609330622691      0.56535204750992
  H   -1.72435935917853     -1.37703841419433      1.01574105889992
  N   1.80166250031434      1.16805784418222      0.07716094754660
  H   2.79865101430128      1.07937883769899     -0.00364600139995
  H   1.35184615501020      1.96232752848277     -0.34955588759281
