13
Coordinates from ORCA-job run
  C   -0.22429064768550     -0.21177488234879     -0.04453269965798
  C   0.93578274744415      0.26755184091849      0.48701714174916
  H   1.37186970854775     -0.32252106644003      1.28892834145031
  N   -0.89968815508276      0.49930238227489     -1.09323605387846
  O   -1.95864243377372      0.02436651281561     -1.51335079515905
  O   -0.40059041376485      1.55021706691718     -1.53163534462648
  C   -0.89568825345878     -1.46412932600441      0.42095895316922
  H   -0.30915698078212     -1.92625438003610      1.21728558777750
  H   -1.00044929467109     -2.18146989844705     -0.39581266116880
  H   -1.89967213142871     -1.25881642985610      0.79841473666194
  N   1.66972549570310      1.34480488344953      0.12053025138525
  H   1.24136664968243      2.00020036244686     -0.51347981991058
  H   2.36943370927011      1.67752293430993      0.75891236220797
