13
Coordinates from ORCA-job run
  C   -0.33996144184962      0.13245731176231     -0.15000685221962
  C   0.80495138102108      0.77562619920107      0.16826693699462
  H   0.81886935736308      1.85715900531756      0.09068327873401
  N   -1.47352795083845      0.96605028819060     -0.52218694898697
  O   -1.33678153101386      2.18789079260948     -0.59617807696864
  O   -2.53427995878682      0.37392254007649     -0.74331713446601
  C   -0.59094420219269     -1.33859203757694     -0.14409191523736
  H   -1.31567218480874     -1.61843233104077      0.62364733678194
  H   0.33575884451360     -1.88904261965821      0.03159476684559
  H   -0.99555128698422     -1.66371622459537     -1.10379085887570
  N   1.99542796633738      0.19048290518415      0.51020297552766
  H   1.97462250780948     -0.75500823913638      0.85401838155463
  H   2.65908849942980      0.78120240966600      0.98015811031585
