13
Coordinates from ORCA-job run
  C   -0.35923245101114      0.14034969803388     -0.08312849281018
  C   0.79952384679032      0.77137206395765      0.20774481311874
  H   0.77803121063875      1.85019438197961      0.31551709363304
  N   -1.55025505924319      0.97230225567240     -0.17219237959958
  O   -2.61446371592374      0.37844029619292     -0.37077147184944
  O   -1.45457286540045      2.19372797529906     -0.04570990182427
  C   -0.56981350166830     -1.31996509813124     -0.30700996609443
  H   -1.18184252709467     -1.76294264790243      0.48184153280137
  H   -1.08673864319505     -1.49302564186855     -1.25207053923719
  H   0.38548524901268     -1.84752436786476     -0.34720554601036
  N   2.03706318944483      0.19087916585213      0.30270114052255
  H   2.73776712095515      0.72426332310793      0.78736409407384
  H   2.08004814669480     -0.79807140432859      0.48391962327591
