13
Coordinates from ORCA-job run
  C   -0.36604715269351      0.15357758435187      0.00283151101039
  C   0.84733909991240      0.74368313899004      0.07342661662429
  H   0.88835148083845      1.82700062648525      0.04443254951199
  N   -1.51093489393639      1.03405257061347     -0.17185108197509
  O   -1.35092420829781      2.25532444193416     -0.15715403842626
  O   -2.60346627425475      0.48126406319930     -0.33063090011315
  C   -0.66840982158433     -1.30742270808220      0.04461479603632
  H   -1.45261025418771     -1.51663074127704      0.77338605307500
  H   -1.02089193330816     -1.67329903557497     -0.92267459027529
  H   0.21735208831968     -1.87699778403828      0.33384371443866
  N   2.04676719430920      0.10922969759320      0.26381258344347
  H   2.86749074123052      0.63827600505635      0.02515173279354
  H   2.10598393365242     -0.86605785925115      0.02281105385612
