13
Coordinates from ORCA-job run
  C   -0.27445621932806     -0.14063922246245      0.04484790546372
  C   1.04034884754916      0.11463910501766      0.29782619602982
  H   1.53337408188636     -0.56553005900779      0.98758202474743
  N   -1.01858671047601      0.68030269688594     -0.86835128228926
  O   -2.19713276077260      0.37780778090264     -1.07557668197316
  O   -0.45608616109538      1.64841734543315     -1.40865434296896
  C   -1.03013989930234     -1.28052070085988      0.64937938623968
  H   -1.40695206664136     -1.95855616547070     -0.11929247045813
  H   -0.38000861512985     -1.84097682112432      1.32387842776047
  H   -1.89396408243700     -0.92422686279563      1.21464787645324
  N   1.81718632874128      1.13703615814202     -0.13249146531585
  H   2.81222681360746      1.04614991181393     -0.03461895854599
  H   1.45519044339834      1.70709683352543     -0.88017661514302
