13
Coordinates from ORCA-job run
  C   -0.25709319321261     -0.17699532508570      0.00499588712766
  C   0.97446403685916      0.21979124723355      0.43301148753895
  H   1.49087494350905     -0.46764304824544      1.09791294290732
  N   -1.01808749571414      0.63968575833247     -0.89928322778372
  O   -0.54676142605703      1.72615835393631     -1.27724787980675
  O   -2.10393469501384      0.19964285435689     -1.28614402574147
  C   -0.88875318678089     -1.47871247073165      0.38113727935181
  H   -1.07846401185470     -2.09552908876346     -0.49997333229945
  H   -0.23332353192509     -2.02853721180383      1.05919022834630
  H   -1.84909802078694     -1.32094346471274      0.87664407905486
  N   1.62953314713586      1.38515651671613      0.21126230284847
  H   1.26860460026578      1.98545024116273     -0.51283924259812
  H   2.61303883357540      1.41347563760475      0.41233350105414
