13
Coordinates from ORCA-job run
  C   -0.37231183124262      0.13227266050554     -0.01318499484526
  C   0.78593398250959      0.75647078224470      0.29423861579001
  H   0.75481835850007      1.82599344178007      0.47070726798240
  N   -1.55389931847551      0.97302044933199     -0.13346796158647
  O   -1.47673301719001      2.17672281029459      0.11610299740712
  O   -2.58967966712827      0.40582652761152     -0.49424952394158
  C   -0.58193868986756     -1.32319704319522     -0.26726441019731
  H   -1.39407750744766     -1.70819638127614      0.35125346125119
  H   -0.85019068700415     -1.51547600456972     -1.30851576262133
  H   0.31921983398266     -1.89118734699787     -0.02667033631933
  N   2.00292264142451      0.15846782717933      0.48675888471861
  H   2.80472639680554      0.76270769062830      0.44120502708776
  H   2.15220950513342     -0.75142541353707      0.08408673527418
