15
Coordinates from ORCA-job run
  C   -1.10942740432507      0.01426639357417      0.49490905405046
  C   0.40784305599386      0.16342328580082      0.57960952914998
  Cl  -1.68573279634734     -1.21425551660489      1.60261983609638
  H   0.65604722224828      0.24127615639379      1.64094751749139
  H   -1.60325721150202      0.95755057736141      0.71823271008405
  N   -1.46420743986871     -0.31507486909990     -0.94106872962270
  O   -1.84390048733908     -1.43593460583578     -1.23938784246996
  O   -1.26367961276758      0.62696027775076     -1.70349398843741
  N   0.77818932748038      1.52687563553920      0.02838908655051
  O   1.62670906867856      1.58505130687290     -0.85295086436338
  O   0.20880656691855      2.48069548917963      0.54946050541045
  C   1.17738643951683     -0.94801601673938     -0.09566911471499
  H   1.02934550846823     -0.92851981222479     -1.17501857259003
  H   2.24360485145398     -0.84027595195784      0.09844456702832
  H   0.84427291139114     -1.91102235001010      0.29497630633691
