15
Coordinates from ORCA-job run
  C   -1.07574148336283      0.26242096136992     -0.17734395307753
  C   0.28373377041200      0.14417986651106      0.48771555602281
  Cl  -2.23907023568628      1.06503322030360      0.86573429148626
  H   0.16382961609953     -0.26784801949237      1.48968638959408
  H   -1.02048068274877      0.78991637443357     -1.12618307216333
  N   -1.53313678944050     -1.13764227659919     -0.48922639244777
  O   -1.59673402959473     -1.42828224490148     -1.68069697958291
  O   -1.73839454258359     -1.88163365150135      0.46206486537079
  N   0.81459294877676      1.53492701797490      0.67406291443888
  O   0.80700996387242      2.26321036454056     -0.31549006440569
  O   1.25065875711247      1.82110569233378      1.78436963716609
  C   1.28159679911048     -0.64262982517014     -0.34536795803873
  H   0.98739763173702     -1.69156319645665     -0.39877491748740
  H   1.34900166418619     -0.23622033364408     -1.35567628533285
  H   2.26573661210982     -0.59297394970212      0.12412596845731
