15
Coordinates from ORCA-job run
  C   -1.08369176994326     -0.16224607686744      0.52478563183452
  C   0.40804063413924      0.15922269927513      0.58035710575166
  Cl  -1.46907981416783     -1.54371872834450      1.53069530751934
  H   0.68580767167680      0.17311954687156      1.63707545286596
  H   -1.67507690978751      0.69182855993388      0.84802309230349
  N   -1.45346189863205     -0.40416621650473     -0.92450798244087
  O   -1.70849365502999     -1.53223005520895     -1.31430173026365
  O   -1.39585738372037      0.61880438849180     -1.60210136071686
  N   0.59479284691323      1.60021497939511      0.14579252626564
  O   -0.05695069228432      2.42990420843008      0.77219533018881
  O   1.39023981543881      1.83605793412363     -0.75514414314682
  C   1.27568264455466     -0.78848351759410     -0.21476490412300
  H   1.07610768813640     -1.81466915247704      0.09837200976613
  H   1.08242468852480     -0.69583724153787     -1.28312116719596
  H   2.32851613418138     -0.56780132798651     -0.04435516860844
