15
Coordinates from ORCA-job run
  C   -0.91627416577243     -0.51351631671554     -0.09557536048050
  C   0.37962182602554      0.17691728538733      0.30713262995875
  Cl  -0.77143727626414     -1.39390267429680     -1.60035010693691
  H   0.13081925781723      0.87433019198559      1.11075642861179
  H   -1.20109747071101     -1.21292878755831      0.69132550678972
  N   -2.07278556982437      0.48581459364257     -0.12699550069545
  O   -2.73692620734385      0.61548448480513     -1.13846008714573
  O   -2.23520424181578      1.05346363925177      0.94720843003842
  N   0.82715905422154      1.05131180450057     -0.83714407986321
  O   -0.00020869070371      1.87124224730719     -1.22642455164117
  O   1.95650107632419      0.89393691068524     -1.28679951536184
  C   1.45838438134347     -0.79571461972406      0.72803691039360
  H   2.36214886231557     -0.25766413310708      1.01068175728956
  H   1.70863391068553     -1.48367110057566     -0.07814784168048
  H   1.10966525370226     -1.36510352558791      1.59275538072344
