15
Coordinates from ORCA-job run
  C   -1.08181528550337      0.17708569875069     -0.23273861783712
  C   0.26192870349309      0.21883187955242      0.47226181979120
  Cl  -2.31620942883402      1.03750988444417      0.67406226927456
  H   0.13490557411093     -0.07232334462040      1.51491729913451
  H   -1.02628981210072      0.58576170495927     -1.23850789110718
  N   -1.45642643082744     -1.27366361699612     -0.37613976227582
  O   -1.47621610013594     -1.71224690126853     -1.52299167263858
  O   -1.64541217601116     -1.90454111074652      0.65679497210261
  N   0.71239745875731      1.64956910500211      0.49491351884359
  O   1.09868831633532      2.09528923769080      1.57053755370024
  O   0.69646046034027      2.24788703695457     -0.57806788954202
  C   1.32360739738900     -0.60755680467690     -0.23395614014552
  H   2.28965467969641     -0.44648467401713      0.24794735469801
  H   1.39935160097727     -0.32426150736374     -1.28489784094990
  H   1.08637504231306     -1.66985658766471     -0.16413497304856
