15
Coordinates from ORCA-job run
  C   -1.08869401885883      0.26387069123515      0.00791493510025
  C   0.34887382447072      0.08066700552190      0.45994779937741
  Cl  -2.09868454578813      0.89441644030295      1.29961544240644
  H   0.36654368770183     -0.46761131041520      1.40184161267374
  H   -1.16317974232547      0.91831690310395     -0.85684460926278
  N   -1.58667615802640     -1.08765712489748     -0.42990756759320
  O   -1.65223482384069     -1.96095279600871      0.42664666016665
  O   -1.82406507207563     -1.20998901430336     -1.62848367252696
  N   0.90015639376032      1.44243499329481      0.76417528962370
  O   1.48314728846460      1.58124089159251      1.83450430439748
  O   0.75733988315053      2.29985101399443     -0.10416243435158
  C   1.22297707477640     -0.56558679266023     -0.60160910965714
  H   0.92273366532010     -1.60204792235252     -0.76043238538708
  H   1.15276855144137     -0.02197814827248     -1.54503227287304
  H   2.26199399182927     -0.56397483013571     -0.26717399209390
