15
Coordinates from ORCA-job run
  C   -0.90838261624134     -0.53469685387503     -0.04204481391673
  C   0.38623588990342      0.19645767557097      0.28613515218408
  Cl  -0.79767087500775     -1.47395381145006     -1.51352003639178
  H   0.15163610307074      0.92226392617549      1.06852444868125
  H   -1.15199738464600     -1.20577542258387      0.78243394475291
  N   -2.08521767187031      0.44081121378483     -0.07375506953481
  O   -2.78501029853585      0.51756599013415     -1.06629497766822
  O   -2.22314646529280      1.04779232892283      0.98233214449238
  N   0.77626868215496      1.03100509904820     -0.90817608712384
  O   -0.07967174114414      1.82025637086328     -1.29900647937057
  O   1.89124153832151      0.87461681401503     -1.39270395857656
  C   1.49855480895803     -0.73691501010326      0.70833501862067
  H   1.73716323406388     -1.45095762655508     -0.07848048007404
  H   2.39923482101413     -0.16983143140984      0.93948565986082
  H   1.19076197525152     -1.27863926253758      1.60573553406444
