15

C	0.0	0.0	0.0
C	-0.526341	0.177971	-1.41563
Cl	1.768311	0.0	0.0
H	-1.571335	-0.143221	-1.399468
H	0.039041	-0.480009	-2.074981
N	-0.559279	0.917475	0.892331
H	-1.581431	0.819462	0.813504
H	-0.276344	0.707699	1.842408
N	-0.298056	-1.485324	0.431504
O	-0.35004	-2.338836	-0.445124
O	-0.399733	-1.687142	1.635672
N	-0.330081	1.566738	-1.82879
H	-0.95651	2.136617	-1.271469
H	-0.64989	1.642529	-2.788688
Br	-3.771358	0.0	0.0
