15

C	0.0	0.0	0.0
C	-0.368625	0.210689	-1.488868
Cl	1.825126	0.0	0.0
H	-0.16489	1.27198	-1.66628
H	0.352743	-0.363188	-2.069826
N	-0.593371	0.902949	0.873802
H	-1.571545	1.023384	0.603602
H	-0.576316	0.55158	1.823398
N	-0.286829	-1.480863	0.397944
O	-0.596079	-1.685346	1.566807
O	-0.146989	-2.338624	-0.465557
N	-1.683029	-0.138282	-1.94498
H	-2.450076	0.213976	-1.376593
H	-1.782945	-1.144411	-1.960861
Br	-4.345324	0.0	0.0
