15

C	0.0	0.0	0.0
C	-0.529471	-0.032863	-1.429121
Cl	1.765469	0.0	0.0
H	-0.296083	0.962738	-1.813464
H	-1.617681	-0.122574	-1.346599
N	-0.539223	1.094727	0.69477
H	-0.313437	1.014045	1.678518
H	-1.558931	1.047281	0.58591
N	-0.337424	-1.343532	0.731559
O	-0.608004	-2.331622	0.059717
O	-0.280848	-1.3108	1.956393
N	0.101511	-1.031303	-2.285651
H	-0.423217	-1.892805	-2.212356
H	0.036314	-0.711612	-3.243826
Br	-3.83294	0.0	0.0
