15

C	0.0	0.0	0.0
C	-0.546544	0.00424	-1.417752
Cl	1.824508	0.0	0.0
H	-1.596765	-0.288056	-1.309289
H	-0.010669	-0.73692	-2.01259
N	-0.551346	1.007362	0.745064
H	-0.249028	1.08667	1.699749
H	-0.657211	1.860175	0.218479
N	-0.293498	-1.343726	0.673168
O	-0.360638	-2.32758	-0.053912
O	-0.37901	-1.340527	1.893764
N	-0.46722	1.363301	-1.946708
H	-1.35394	1.609647	-2.363736
H	0.262745	1.44315	-2.639925
Br	-3.979213	0.0	0.0
