15

C	0.0	0.0	0.0
C	-0.514432	0.109639	-1.424921
Cl	1.846928	0.0	0.0
H	-1.586829	-0.097295	-1.346803
H	-0.052507	-0.684949	-2.012897
N	-0.516755	0.941048	0.870394
H	-1.522944	1.020109	0.689103
H	-0.375467	0.64777	1.829297
N	-0.256262	-1.47106	0.494315
O	-0.422203	-1.61587	1.69997
O	-0.228453	-2.373337	-0.334305
N	-0.299942	1.448006	-1.952402
H	0.481072	1.46272	-2.592997
H	-1.132202	1.754518	-2.436514
Br	-3.785937	0.0	0.0
