15

C	0.0	0.0	0.0
C	-0.536022	0.204464	-1.404809
Cl	1.768249	0.0	0.0
H	-0.009158	-0.46997	-2.078992
H	-1.595048	-0.074946	-1.365824
N	-0.551801	0.909568	0.908372
H	-1.57491	0.83264	0.823871
H	-0.283227	0.670322	1.854965
N	-0.305638	-1.488858	0.410598
O	-0.465098	-1.695789	1.60769
O	-0.30471	-2.339464	-0.470449
N	-0.299053	1.58998	-1.813415
H	-0.768678	1.72276	-2.701889
H	-0.774085	2.186011	-1.145628
Br	-3.804313	0.0	0.0
