15

C	-0.406942	-0.040924	-1.461816
C	0.0	0.0	0.0
F	-0.223873	1.180181	-2.031951
H	1.093505	0.0	0.0
H	-0.326311	-0.921799	0.485701
C	0.345805	-1.08806	-2.242328
H	0.052975	-1.038885	-3.293582
H	0.134064	-2.080497	-1.845933
H	1.4127	-0.878615	-2.134323
N	-1.905856	-0.33489	-1.564562
O	-2.273849	-1.384846	-1.042787
O	-2.620667	0.460454	-2.161141
C	-0.56241	1.148629	0.695283
N	-1.0453	2.057582	1.259343
Br	3.482699	0.0	0.0
