15

C	-0.403242	0.069026	-1.461762
C	0.0	0.0	0.0
F	-0.126061	1.334174	-1.91656
H	1.093221	0.0	0.0
H	-0.374708	0.884764	0.517048
C	0.27888	-0.948035	-2.327449
H	-0.003887	-0.805713	-3.370507
H	0.011547	-1.958112	-2.018714
H	1.354686	-0.805257	-2.196116
N	-1.930146	-0.028247	-1.562263
O	-2.560657	0.811062	-0.924492
O	-2.420828	-0.911703	-2.262286
C	-0.51059	-1.209958	0.628184
N	-0.927796	-2.192042	1.118056
Br	3.474091	0.0	0.0
