15

C	-0.521534	0.045361	-1.426466
C	0.0	0.0	0.0
F	-0.037191	-1.009236	-2.13373
H	1.094253	0.0	0.0
H	-0.325144	0.898797	0.528283
C	-2.026039	0.083436	-1.575031
H	-2.437926	0.947487	-1.054368
H	-2.280235	0.138942	-2.636019
H	-2.44522	-0.832764	-1.156626
N	0.018428	1.314628	-2.079508
O	0.597347	1.210761	-3.150032
O	-0.244919	2.358266	-1.486865
C	-0.52187	-1.178974	0.678092
N	-0.98161	-2.119208	1.210525
Br	3.462642	0.0	0.0
