12

C	0.0	0.0	0.0
C	-0.365355	0.150486	-1.476601
Br	1.927555	0.0	0.0
H	-0.038354	-0.763032	-1.980714
H	-0.367719	0.779936	0.649845
H	0.248865	0.961116	-1.881646
N	-0.426871	-1.304913	0.600887
O	-0.512154	-2.27496	-0.141046
O	-0.549414	-1.321083	1.819035
C	-1.765168	0.423652	-1.855329
N	-2.543769	0.740978	-2.688208
F	-2.350242	0.0	0.0
