12

C	0.0	0.0	0.0
C	-0.354309	-0.340972	-1.447234
Br	1.927318	0.0	0.0
H	0.023767	-1.346408	-1.641338
H	-0.374409	0.947768	0.355023
H	0.228164	0.335112	-2.084136
N	-0.428593	-1.036436	0.990399
O	-0.553345	-0.653817	2.146761
O	-0.509878	-2.195557	0.604096
C	-1.756621	-0.293075	-1.898972
N	-2.554288	-0.438326	-2.759824
F	-2.344559	0.0	0.0
