12

C	0.0	0.0	0.0
C	-0.531188	0.036191	-1.415305
Br	1.925346	0.0	0.0
H	-0.180345	-0.835535	-1.970463
H	-0.375971	0.817661	0.602576
H	-1.660162	-0.00337	-1.148295
N	-0.435757	-1.256921	0.700111
O	-0.560421	-1.184521	1.915532
O	-0.542356	-2.273584	0.025843
C	-0.156294	1.259566	-2.090372
N	0.117091	2.256643	-2.651462
F	-2.593194	0.0	0.0
