12

C	0.0	0.0	0.0
C	-0.365982	-0.44957	-1.415402
Br	1.92725	0.0	0.0
H	-0.040319	-1.488367	-1.510614
H	-0.371706	0.971066	0.289373
H	0.246839	0.133231	-2.111228
N	-0.426557	-0.965459	1.064087
O	-0.550309	-0.504249	2.192288
O	-0.50878	-2.149012	0.76093
C	-1.764523	-0.349088	-1.870984
N	-2.546079	-0.381472	-2.758791
F	-2.350187	0.0	0.0
