16

C	-0.300518	-0.026806	-1.485422
C	0.0	0.0	0.0
Cl	-0.189649	-1.711703	-2.098301
H	1.092532	0.0	0.0
H	-0.440439	-0.862227	0.505812
N	-1.747777	0.376776	-1.74922
O	-1.992	1.074792	-2.730547
O	-2.594229	-0.037395	-0.960838
C	0.672708	0.850736	-2.230689
H	0.475247	1.886246	-1.946615
H	1.662102	0.570321	-1.847474
H	0.588208	0.742437	-3.311552
N	-0.438889	1.29889	0.520344
H	-1.260749	1.200855	1.100403
H	0.318504	1.671596	1.078134
F	2.704535	0.0	0.0
