12

C	0.0	0.0	0.0
C	-0.434994	-0.015177	-1.475292
Cl	1.774529	0.0	0.0
H	0.467042	0.017558	-2.097337
H	-0.367312	-0.875834	0.523636
H	-0.361847	0.900994	0.481123
N	-1.120346	1.261736	-1.924664
O	-0.829963	2.282326	-1.314911
O	-1.762214	1.194811	-2.962043
C	-1.154089	-1.209667	-1.904139
N	-1.456355	-2.249616	-2.361638
Br	-3.215001	0.0	0.0
