12

C	0.0	0.0	0.0
C	-0.276864	-0.130152	-1.510211
Cl	1.772133	0.0	0.0
H	0.448371	-0.841129	-1.911291
H	-0.38398	0.929388	0.402077
H	-0.390807	-0.854568	0.53976
N	0.127755	1.17248	-2.190174
O	0.638694	1.063118	-3.302811
O	-0.099213	2.223378	-1.601417
C	-1.549223	-0.530232	-2.131974
N	-2.160153	-0.94653	-3.053436
Br	-3.238333	0.0	0.0
