12

C	0.0	0.0	0.0
C	-0.440801	0.283522	-1.44638
Cl	1.772456	0.0	0.0
H	0.461182	0.418028	-2.056925
H	-0.362483	-0.966853	0.332831
H	-0.366672	0.779295	0.65725
N	-1.09869	1.638812	-1.622343
O	-0.764065	2.511175	-0.832577
O	-1.770419	1.793445	-2.629849
C	-1.190248	-0.783204	-2.102128
N	-1.526651	-1.689896	-2.771524
Br	-3.229153	0.0	0.0
