12

C	0.0	0.0	0.0
C	-0.555095	0.157122	-1.396263
Cl	1.770742	0.0	0.0
H	-1.665288	0.135515	-1.259578
H	-0.361865	-0.93514	0.416987
H	-0.360831	0.829135	0.605119
N	-0.218712	-1.024706	-2.262619
O	-0.106367	-0.832367	-3.470114
O	-0.14842	-2.113702	-1.704004
C	-0.140599	1.38568	-2.055513
N	0.154622	2.407279	-2.553663
Br	-3.524945	0.0	0.0
