16

C	-0.529716	-0.040617	-1.461677
C	-0.099209	-0.217475	-0.015551
Cl	-0.414231	-1.618463	-2.313639
H	0.949596	-0.52984	-0.027591
H	-0.710315	-1.004797	0.428044
N	-2.020085	0.304198	-1.474287
O	-2.749373	-0.34296	-0.730353
O	-2.400196	1.186557	-2.238015
C	0.262509	1.005178	-2.197273
H	-0.032617	1.058506	-3.244372
H	0.095546	1.968179	-1.716869
H	1.322545	0.769371	-2.099103
N	-0.286832	1.059136	0.659169
H	-0.621126	0.898189	1.599611
H	0.638118	1.488737	0.725774
Cl	2.946164	1.431393	0.275878
