15

C	-0.343314	0.004159	-1.470515
C	0.0	0.0	0.0
F	-0.140462	1.252599	-1.97291
H	1.101987	0.0	0.0
H	-0.339603	-0.952794	0.412973
N	0.376788	-0.928949	-2.275335
H	1.367471	-0.785725	-2.076654
H	0.13461	-1.865005	-1.97302
N	-1.828203	-0.299688	-1.659242
O	-2.167418	-1.441488	-1.35174
O	-2.566188	0.578829	-2.077788
N	-0.660049	1.100788	0.696901
H	-0.216476	1.96004	0.393424
H	-0.450688	1.010175	1.684168
Br	3.602858	0.0	0.0
