15

C	-0.440395	0.098312	-1.446832
C	0.0	0.0	0.0
F	-1.813264	0.219687	-1.489145
H	1.091778	0.0	0.0
H	-0.390718	-0.918192	0.451062
N	0.136388	1.150415	-2.19797
H	1.114679	0.92195	-2.349604
H	0.10541	1.956452	-1.579213
N	-0.142389	-1.228632	-2.140352
O	0.771669	-1.270651	-2.955549
O	-0.847296	-2.174832	-1.798776
N	-0.423888	1.23654	0.658226
H	-1.320581	1.117328	1.108447
H	0.264862	1.481005	1.357104
Br	3.559847	0.0	0.0
