15

C	-0.349969	0.341704	-1.428917
C	0.0	0.0	0.0
F	-0.157552	1.673106	-1.631943
H	1.101469	0.0	0.0
H	-0.336728	-1.023061	0.181949
N	0.36928	-0.377164	-2.429649
H	0.141603	-1.359889	-2.343342
H	1.360813	-0.269204	-2.215315
N	-1.835371	0.077355	-1.671272
O	-2.588212	1.024344	-1.844614
O	-2.159804	-1.10909	-1.650357
N	-0.660411	0.907963	0.933793
H	-0.23437	1.820504	0.819133
H	-0.426709	0.607119	1.873046
Br	3.60571	0.0	0.0
