15

C	-0.5589	-0.096777	-1.397301
C	0.0	0.0	0.0
F	-1.971275	-0.264753	-1.291664
H	1.093014	0.0	0.0
H	-0.351628	-0.86408	0.568112
N	-0.202126	0.973849	-2.195207
H	-0.271126	1.820354	-1.645765
H	-0.709924	1.003896	-3.065528
N	-0.186205	-1.394872	-2.097709
O	0.093923	-2.360396	-1.396515
O	-0.282722	-1.401654	-3.322434
N	-0.430703	1.293139	0.550208
H	0.307855	1.638527	1.148927
H	-1.271365	1.186954	1.101247
Br	3.611214	0.0	0.0
