15

C	-0.565764	0.431282	-1.336718
C	0.0	0.0	0.0
F	-0.355801	-0.562809	-2.258065
H	1.092138	0.0	0.0
H	-0.333466	-1.038059	0.102795
N	-1.925632	0.806656	-1.279311
H	-2.304614	0.607362	-0.363753
H	-2.45226	0.420924	-2.047999
N	0.18845	1.649374	-1.893559
O	0.469473	2.5106	-1.068126
O	0.356581	1.722828	-3.103624
N	-0.597671	0.777337	1.094102
H	-0.296182	0.345193	1.960229
H	-0.163944	1.694474	1.0692
Br	3.634798	0.0	0.0
