18

C	-0.571661	-0.018042	-1.423393
C	0.0	0.0	0.0
F	0.015858	-0.999861	-2.162141
H	1.089429	0.0	0.0
C	-2.068753	-0.163766	-1.51854
H	-2.370933	-0.085387	-2.563852
H	-2.354067	-1.146615	-1.140846
H	-2.572935	0.61491	-0.950837
N	-0.144956	1.299729	-2.073973
O	-0.985969	2.193019	-2.143842
O	1.005061	1.350832	-2.484267
N	-0.451684	-1.312333	0.634248
O	0.107898	-2.340467	0.273753
O	-1.39353	-1.258749	1.433445
N	-0.462165	1.143059	0.70872
H	0.233549	1.406149	1.394113
H	-1.342622	0.955956	1.170735
Cl	3.275101	0.0	0.0
