18

C	-0.585094	0.145495	-1.399008
C	0.0	0.0	0.0
F	-1.951955	0.274876	-1.281542
H	1.090268	0.0	0.0
C	-0.001549	1.336271	-2.109447
H	-0.267594	2.22709	-1.541591
H	1.084275	1.235721	-2.142836
H	-0.410012	1.396503	-3.121313
N	-0.354786	-1.085024	-2.269712
O	-1.320308	-1.801834	-2.506011
O	0.782849	-1.231599	-2.691946
N	-0.443142	-1.328171	0.607935
O	-1.097529	-1.298019	1.64941
O	-0.097658	-2.347321	0.022459
N	-0.417849	1.118297	0.779368
H	0.259878	1.271375	1.513173
H	-1.324797	0.952004	1.1914
Cl	3.248034	0.0	0.0
