18

C	-0.601743	0.138592	-1.393194
C	0.0	0.0	0.0
F	-1.972543	0.127381	-1.269636
H	1.090216	0.0	0.0
C	-0.148881	1.401149	-2.080662
H	-0.529678	2.249558	-1.514937
H	0.942823	1.428582	-2.096004
H	-0.543615	1.419329	-3.099998
N	-0.245617	-1.02753	-2.303283
O	-1.156038	-1.752938	-2.685724
O	0.933687	-1.099712	-2.622476
N	-0.436858	-1.342237	0.585733
O	-0.107083	-2.34811	-0.029671
O	-1.068905	-1.33466	1.642022
N	-0.431808	1.102244	0.793759
H	-1.348061	0.930348	1.180842
H	0.228897	1.236256	1.545603
Cl	3.252955	0.0	0.0
