18

C	-0.520383	0.117448	-1.434482
C	0.0	0.0	0.0
F	-1.892798	0.273944	-1.400618
H	1.089834	0.0	0.0
C	0.108361	1.281979	-2.158854
H	1.195918	1.207074	-2.100344
H	-0.217589	1.286295	-3.201493
H	-0.223387	2.206652	-1.682871
N	-0.265089	-1.153988	-2.235896
O	-1.203594	-1.929488	-2.384167
O	0.87011	-1.286573	-2.675496
N	-0.510522	-1.308927	0.571205
O	-1.46727	-1.274191	1.338906
O	0.060882	-2.325571	0.184949
N	-0.418714	1.079375	0.822351
H	0.306011	1.772073	0.90446
H	-1.317951	1.465495	0.59033
Cl	3.258795	0.0	0.0
