18

C	-0.452171	-0.022106	-1.472092
C	0.0	0.0	0.0
F	-0.696093	1.269396	-1.873565
H	1.09388	0.0	0.0
C	0.523913	-0.644115	-2.42412
H	0.166535	-0.520308	-3.444277
H	1.47823	-0.140204	-2.280174
H	0.658393	-1.696976	-2.201643
N	-1.839961	-0.663366	-1.574168
O	-2.629099	-0.379635	-0.672299
O	-2.110126	-1.334623	-2.563165
N	-0.352119	-1.35274	0.629639
O	-0.620895	-1.359617	1.827237
O	-0.304423	-2.351514	-0.086341
N	-0.472537	1.101248	0.740134
H	0.082621	1.210051	1.578052
H	-1.45249	1.00436	0.970696
Cl	3.292367	0.0	0.0
