16
Coordinates from ORCA-job run
  C   0.33183440606421     -0.25225799266691      0.47324227656215
  C   -0.71183791022136      0.46185080441297     -0.40291260734299
  Br  -0.44030216014453     -1.95871764641520      1.07766886945544
  H   -0.24775399578370      1.41727216182761     -0.68539483322418
  C   1.59321616464038     -0.56227827087959     -0.31788217836267
  H   2.02682851022815      0.38227866550427     -0.66662602224169
  H   1.38203853115091     -1.18417180215594     -1.18565340502799
  H   2.32025324028048     -1.06149578852733      0.32562747764032
  N   0.52498865564576      0.55700417447698      1.65922848211158
  H   1.06579664839168      0.04830257138235      2.34909017044521
  H   1.04671010735684      1.39197952495874      1.40675061613694
  C   -1.92255073844274      0.78461057382776      0.37864780507272
  N   -2.94821023439296      1.04214661013391      0.89008650226127
  N   -0.97575455147370     -0.26914358658922     -1.63050685039408
  H   -1.51511757689362     -1.10063799832569     -1.41534861504546
  H   -1.53013909640582      0.30325799903531     -2.25601768804656
