16
Coordinates from ORCA-job run
  C   0.42917349630924     -0.51401099726393      0.24884299680132
  C   -0.95932673059245     -0.18571446183530     -0.34610732265036
  Br  0.92526530810563     -2.29168489165350     -0.64459963020205
  H   -1.57169659673026     -1.08999640990060     -0.27203051561058
  C   1.52766461932004      0.45485511071438     -0.14953801178477
  H   2.47311678666225      0.14659919972488      0.30110646097856
  H   1.65946831881760      0.49429349699670     -1.22975322645254
  H   1.28271922218568      1.45128566404626      0.23019794992704
  N   0.33532937131152     -0.61041839187642      1.64669340102189
  H   -0.47295992246038     -1.12890464394356      1.96330531969097
  H   1.18088024911070     -0.97495615804906      2.06471456297518
  C   -0.83044244122345      0.13778822190438     -1.78124172272561
  N   -0.78638235340509      0.47801341397812     -2.90508467665178
  N   -1.62562322503049      0.85291820787151      0.43060799024641
  H   -2.50729840984769      1.08736641060166     -0.01172524546149
  H   -1.06088769253283      1.69356622868447      0.45661166989783
