16
Coordinates from ORCA-job run
  C   0.41404622547751     -0.16809901538555      0.42121714345500
  C   -0.69302538643326      0.44222561731858     -0.45642583676083
  Br  -0.30693835881860     -1.97272715196403      1.06058081487918
  H   -0.25596163698348      1.37241138035817     -0.83869369006008
  C   1.66076146428586     -0.46721549665340     -0.38470844908155
  H   2.40810771169327     -0.95624183576497      0.24332888461115
  H   2.07092875582661      0.47886843983291     -0.75026081403062
  H   1.42441269251054     -1.10998497529116     -1.22887963820509
  N   0.69388300907466      0.70193646306606      1.49535993890965
  H   -0.10283587929254      0.84671174185556      2.10449301349452
  H   1.47968457287881      0.37861389765375      2.04473641658230
  C   -1.84999086205635      0.82344470542881      0.38077121735723
  N   -2.78432343244820      1.12475740988083      1.02657591720782
  N   -1.02108117509821     -0.39823701854351     -1.59099466331754
  H   -1.59898875277304      0.11665152643302     -2.24401356158670
  H   -1.53867894784358     -1.21211568822507     -1.28008669345444
