16
Coordinates from ORCA-job run
  C   0.34284645734843     -0.55369276289353      0.14291798702835
  C   -1.00361995127795     -0.07624242754564     -0.46367436636133
  Br  0.88634502929685     -2.17595511309961     -0.92807749422343
  H   -1.70204451116765     -0.92001445454413     -0.39706588873337
  C   1.45544800666822      0.46600044743917      0.01072407807604
  H   1.19370354036916      1.36082756203382      0.58064203420456
  H   1.62105103077589      0.73136095261293     -1.03341760577641
  H   2.38779868152943      0.06265593742114      0.41096538168255
  N   0.10988784440139     -0.87461015522866      1.50924059197929
  H   -0.50698417288963     -1.67333909765116      1.60464617530872
  H   0.97506973205742     -1.07775370977237      1.99423759414989
  C   -0.84897563559362      0.26000169315927     -1.88197321092652
  N   -0.71299015832936      0.59409241919016     -2.99877985972017
  N   -1.59202316101676      1.06024307724289      0.22904912373054
  H   -1.50540507712438      0.90249624568764      1.22686560555866
  H   -1.10010765504742      1.91392938594806     -0.00530014597738
