16
Coordinates from ORCA-job run
  C   0.36748232411504     -0.19810411437635      0.47374439263050
  C   -0.74412094798877      0.41089070170235     -0.39799849528739
  Br  -0.33565199865497     -1.83786745185299      1.30569897690427
  H   -0.31575196550803      1.33534084944381     -0.81038988118550
  C   1.57657499772450     -0.58014186102035     -0.36587905999037
  H   1.31592994997970     -1.29134537214179     -1.14725516101974
  H   2.35261536335719     -1.00407729547326      0.27435627107319
  H   1.97182186014773      0.32569692758742     -0.84010123746627
  N   0.62744600700952      0.73286078583923      1.55232820959191
  H   1.09920323710670      1.55036850743688      1.17504863586088
  H   1.23856220878326      0.31111716828008      2.24232392421493
  C   -1.90507637199182      0.80334114316374      0.42590382895694
  N   -2.89901064005433      1.10148121827546      0.97626428976024
  N   -1.07839981778771     -0.44779255041948     -1.52176152746868
  H   -1.58238708307989     -1.25991435483530     -1.18224649936090
  H   -1.69023712315812      0.04814569839057     -2.15903666721400
