16
Coordinates from ORCA-job run
  C   0.40598207662603     -0.29762948991671      0.50984592289496
  C   -0.71743498508345      0.36689286544941     -0.33328802513449
  Br  -0.31827367822728     -1.96156831680207      1.25622201536477
  H   -0.29030314830978      1.33609899636286     -0.64193994689949
  C   1.58235254655775     -0.63234278310893     -0.38559755633887
  H   1.97067171790253      0.28731462314579     -0.84099503753636
  H   2.37297290353538     -1.08617076468824      0.21111829727858
  H   1.28186070727529     -1.32371552354159     -1.17172768460968
  N   0.84804686512729      0.51001553606265      1.61638774653656
  H   0.07945205145415      0.78122221828114      2.21856138897586
  H   1.32923866656349      1.33824172447036      1.28349417209916
  C   -1.86608354270988      0.68901567581124      0.51840039496955
  N   -2.79747692777278      0.96007056910979      1.18078800884571
  N   -1.11897376046279     -0.44752619683309     -1.47420371207500
  H   -0.64707532980212     -0.12562223425096     -2.30924754595176
  H   -2.11495616267382     -0.39229689955166     -1.63781843841949
