16
Coordinates from ORCA-job run
  C   0.23590823153146     -0.23417298763138      0.48712919771798
  C   -0.76678752480205      0.51031308754743     -0.43051625550013
  Br  -0.58888574403275     -1.92367312025804      1.06247816700343
  H   -0.27606774083721      1.46307161904648     -0.68047141272697
  C   1.51603785958228     -0.58089526003541     -0.26270926189015
  H   2.22006641387128     -1.07030046636607      0.41260376123470
  H   1.33842048185928     -1.25021563665577     -1.10533237354860
  H   1.97621134355965      0.34412304867473     -0.62985514733544
  N   0.42041899508872      0.57048772377060      1.67291621782608
  H   0.86966659128479      1.44658224618400      1.42245023643950
  H   1.00781752521035      0.09118310152086      2.34554812531946
  C   -1.98708617784782      0.84848640309558      0.31650685976021
  N   -2.97500931696470      1.14549312107154      0.87554758781088
  N   -1.13433225156545     -0.11880789926774     -1.68224386153496
  H   -1.52327222155018     -1.03861839002953     -1.51205505559166
  H   -0.33310646438765     -0.20405659066728     -2.29299678498435
