16
Coordinates from ORCA-job run
  C   0.33192113700415     -0.27660117624464      0.45513878168744
  C   -0.74954344541947      0.44879818940674     -0.40485277476654
  Br  -0.39617799626208     -2.05388517907193      0.91755802832375
  H   -0.29373035706355      1.41537400422470     -0.66386519079804
  C   1.60931406327491     -0.47498653173494     -0.33959572832880
  H   2.34681944347742     -0.97791855701403      0.28536797274414
  H   2.00908692458630      0.50136467432707     -0.63885901872499
  H   1.43984978410104     -1.07477762356813     -1.23318873722595
  N   0.64045498230892      0.38803714441550      1.69099530367927
  H   -0.19378468179620      0.59100052680327      2.23005684452785
  H   1.14952063717711      1.24714409690335      1.51449355295327
  C   -1.91400535687914      0.75097801138199      0.44109025592435
  N   -2.81852768858204      0.99032950767923      1.15036063811033
  N   -1.19360619026715     -0.16451495321546     -1.63833666695721
  H   -0.43574523089380     -0.20833001850217     -2.30645325377189
  H   -1.53084602476641     -1.10301211579054     -1.45991000737697
