16
Coordinates from ORCA-job run
  C   0.48338187886758     -0.35570917767793      0.27757726937676
  C   -0.72306385565469     -0.03506882912377     -0.63070959697022
  Br  0.58306333429351     -2.41956475534556      0.19234292418383
  H   -0.57158300836697     -0.56545886214859     -1.57665753618840
  C   1.80359651850650      0.13751103423671     -0.27367671928818
  H   1.95629957319939     -0.21369549753187     -1.29520738439801
  H   2.63018315070012     -0.23128350605506      0.33630363543381
  H   1.81064200961264      1.23018467955521     -0.25644093716324
  N   0.22092230313733      0.11980359642541      1.56274892786203
  H   -0.67352406913112     -0.22167434905720      1.89566177186369
  H   0.96235394026267     -0.07683655476016      2.22095662093111
  C   -0.73324682673795      1.40490301071585     -0.92299944201444
  N   -0.76385766963459      2.55348048079205     -1.16576543486729
  N   -1.96705638155887     -0.43324200244333      0.02652787505134
  H   -2.38625356141746     -1.22066366512747     -0.44668711098172
  H   -2.63185733607809      0.32731439754571      0.05702513716894
