16
Coordinates from ORCA-job run
  C   0.46463572636680     -0.33276728853163      0.27349207504779
  C   -0.73565320067802      0.03034490637500     -0.62078043441520
  Br  0.48242354507279     -2.42123240014916      0.19078417619823
  H   -0.57414798462870     -0.43864957817289     -1.60072793783100
  C   1.79789112585639      0.08377855637084     -0.30718664674853
  H   1.84818662851892      1.17543677822096     -0.32714449047472
  H   1.92608715701489     -0.30992705550273     -1.31595344034990
  H   2.61408134918658     -0.29508046937429      0.31055726342866
  N   0.25077300321284      0.15932721812739      1.55381450305907
  H   0.96830669499249     -0.08533782301136      2.22083292595159
  H   -0.68349912312557     -0.04025303494195      1.88936634852056
  C   -0.74967504745874      1.48655071206166     -0.81858603420094
  N   -0.77132446415918      2.64363961097189     -1.01512876806557
  N   -1.97779945220574     -0.37187459728739      0.03459019273199
  H   -2.08970039953559     -1.37355339417891     -0.07218394126623
  H   -2.76958555843015      0.08959785902256     -0.39574579158580
