16
Coordinates from ORCA-job run
  C   0.48673411142450     -0.36062522950968      0.27068104554615
  C   -0.72391484877704     -0.04206115001056     -0.63286887508369
  Br  0.61065084946828     -2.41776964252292      0.17000543688972
  H   -0.57061247964123     -0.56525412146261     -1.58226157131052
  C   1.80007518041615      0.15643130488391     -0.27676088221503
  H   2.63161829190987     -0.21004186408784      0.32800526848152
  H   1.79521447729423      1.24917473234887     -0.24703415356171
  H   1.95586530752063     -0.18232768169420     -1.30229991823116
  N   0.21896050168446      0.10238834951227      1.56123138647340
  H   -0.65644464456523     -0.27609991602581      1.90465082118010
  H   0.97527088067031     -0.06652035822938      2.21036901634175
  C   -0.74569240263935      1.40072348692971     -0.91321091167298
  N   -0.79169798116184      2.55144987489900     -1.14350342012282
  N   -1.96348508334223     -0.46234419758244      0.01938768356092
  H   -2.60069358663543      0.31207656770125      0.14284356724428
  H   -2.42284857362607     -1.18820015514958     -0.51123449351991
