16
Coordinates from ORCA-job run
  C   0.43676241787907     -0.36428780011960      0.27875943720561
  C   -0.72280982346333      0.08257921571456     -0.63089011180579
  Br  0.31665992467350     -2.44984031346667      0.18122637255449
  H   -0.57897417559292     -0.39296464259165     -1.61046286192304
  C   1.80364694207366     -0.03442680162068     -0.27910015858625
  H   2.58306975910894     -0.47438249240910      0.34568759092241
  H   1.91915811985982     -0.42624056392237     -1.29027838497342
  H   1.92808334607792      1.05151729985814     -0.28703274653880
  N   0.23661162561856      0.13263448987926      1.55919353078496
  H   0.92639857196190     -0.16283781038207      2.23484839497551
  H   -0.71388820800791     -0.00556066267399      1.87961743630658
  C   -0.63426881961590      1.53680975608405     -0.82353432117827
  N   -0.57235641908136      2.69301029675154     -1.01754378268559
  N   -1.99875670470964     -0.23653330831224      0.00439407286499
  H   -2.75139938840640      0.27776960362039     -0.43617791370291
  H   -2.17593716837591     -1.22824626640957     -0.10770655422048
