16
Coordinates from ORCA-job run
  C   0.44191241897712     -0.47831656015107      0.29349769802880
  C   -0.91212748281648     -0.25908466974362     -0.41963239364717
  Br  1.13397177918904     -2.22881029806712     -0.52111560205422
  H   -1.46323777609931     -1.20391581825096     -0.37701557921629
  C   1.49899688110153      0.56075435482589     -0.03346968033561
  H   1.15440466889413      1.54264072238582      0.30456524020687
  H   1.71681100838863      0.59397465408345     -1.09989815442044
  H   2.42317524271600      0.32732700160030      0.49889460554041
  N   0.23952216538497     -0.56128319600688      1.68032764437944
  H   1.07155691824744     -0.85528087695728      2.17406421008840
  H   -0.55292305932472     -1.13266686595345      1.94096996824079
  C   -0.68753111257004      0.05129287350227     -1.84579746429376
  N   -0.57504578009672      0.37697039712416     -2.96919135886721
  N   -1.71161652830258      0.74054046144139      0.27813749952144
  H   -2.56766996377948      0.90531476865059     -0.23950184365005
  H   -1.21119937990952      1.61954305151651      0.33416521047860
