16
Coordinates from ORCA-job run
  C   0.44802393199369     -0.46577987609125      0.22551797446192
  C   -0.85836259718918     -0.17914511770271     -0.54489114289020
  Br  1.26362450616576     -2.08342439992746     -0.66344322277592
  H   -1.47132578944006     -1.09419446291094     -0.49395081454988
  C   1.45058200627890      0.66485406192234      0.12971309159370
  H   2.36296743975690      0.40363035930398      0.67050749703253
  H   1.00711780179954      1.56230434462280      0.56282882284411
  H   1.71360372392537      0.86107289166949     -0.90940821668273
  N   0.09791281262338     -0.72990127739611      1.58003451662131
  H   0.92022166187419     -0.77611867731303      2.16929405361165
  H   -0.41097114420430     -1.60222946896983      1.66905947644586
  C   -0.59864802420584      0.08934284870969     -1.96354376773575
  N   -0.43721951895304      0.33905159312792     -3.09922822519343
  N   -1.47994025903912      0.99935028034954      0.04903588631953
  H   -2.35901081468933      1.20132759226013     -0.41161286447337
  H   -1.64857573669686      0.80685930834543      1.02908693537064
