16
Coordinates from ORCA-job run
  C   0.27410601251971     -0.17859758316394      0.49112525829578
  C   -0.80274796638936      0.45694115728720     -0.42405642202048
  Br  -0.47750618362260     -1.81033292396562      1.29106782772459
  H   -0.34769723183659      1.38477496916765     -0.80245168035759
  C   1.50552653477201     -0.58603262601844     -0.30808189681615
  H   1.92139007929616      0.30106663569996     -0.80041200982897
  H   2.26404974426166     -0.99429368912493      0.36215736058862
  H   1.28248893090091     -1.34127552921294     -1.06268049282987
  N   0.52464081311075      0.74490156126818      1.57345200705491
  H   0.93612176580783      1.59729210411214      1.20437052832969
  H   1.16818234048636      0.34514503344063      2.24670372682379
  C   -1.97582856836221      0.85372089574041      0.36883501656721
  N   -2.94318047992688      1.16631547624064      0.95472051604202
  N   -1.24409765210698     -0.30035185010358     -1.57684585835422
  H   -0.48552432863383     -0.43762085968926     -2.23111920215248
  H   -1.60292381027693     -1.20265277167810     -1.28778467906685
