16
Coordinates from ORCA-job run
  C   0.44021512080081     -0.36370084276299      0.27399210380835
  C   -0.71911713796862      0.08593666689894     -0.63467982055415
  Br  0.35419410714202     -2.44797122673803      0.12707046587754
  H   -0.55994243022962     -0.36460285077845     -1.62369217337089
  C   1.80591620665456      0.00078857680998     -0.26466712958578
  H   1.91293927035941      1.08843227131114     -0.24646822778050
  H   1.93578108908941     -0.36543679053393     -1.28360997804592
  H   2.58757309053644     -0.44066792761800      0.35620232736951
  N   0.22184863463724      0.09985015484305      1.56390807591647
  H   -0.72895665496824     -0.06085107944559      1.87283578792068
  H   0.91060195137444     -0.20068319962911      2.23840872802363
  C   -0.65211190377074      1.54539906708223     -0.79359342251426
  N   -0.60644370402224      2.70634429635980     -0.96172882727480
  N   -1.99486157312403     -0.26798137511643     -0.01752732714522
  H   -2.15570602110428     -1.25928558408203     -0.15485435272919
  H   -2.75193004540657      0.24542984339943     -0.45159622991547
