16
Coordinates from ORCA-job run
  C   0.50287564725703     -0.59727746115711      0.22857294588861
  C   -0.86343739605437     -0.20524339689588     -0.39891555648457
  Br  1.07546129007861     -2.24245129123972     -0.67215644875430
  H   -1.54255722926841     -1.04646528369891     -0.22821698965119
  C   1.54932795130806      0.47940811086558      0.01367903618406
  H   1.67927673155940      0.71271591586896     -1.04437950212333
  H   1.25023881397588      1.38455662254247      0.55174032526119
  H   2.49776570377072      0.14029765948941      0.42866634002076
  N   0.39284873111949     -0.89105206392439      1.63787605227943
  H   -0.07514092863925     -0.09829902440413      2.06986031375594
  H   -0.18819198970633     -1.71056941952652      1.78076320017625
  C   -0.76802301485904      0.02092048549734     -1.85057371610577
  N   -0.71092713235402      0.29197461769349     -2.99276193051278
  N   -1.38503549197799      0.95657681187347      0.32093473941859
  H   -1.01891769922664      1.81163211725585     -0.08126836395496
  H   -2.39356398698313      0.99227559976008      0.23617955460208
