16
Coordinates from ORCA-job run
  C   0.42940271798421     -0.63252983092647      0.20336269230350
  C   -0.89934700295455     -0.22159757950311     -0.46490294851719
  Br  1.08245196038892     -2.22641536885008     -0.75835721454666
  H   -1.56186818181415     -1.08697833217037     -0.37694422215002
  C   1.49767451622562      0.44565190682981      0.08236169194342
  H   1.16159423830076      1.34055249299523      0.61574908172375
  H   2.42315237799807      0.10274655481421      0.54908755037194
  H   1.71276251207649      0.69861823015672     -0.95779388924988
  N   0.09711353252596     -1.03162858316173      1.54443044571634
  H   -0.43191114647129     -0.27482151973650      1.96689159289274
  H   0.93663725480896     -1.20644012408390      2.08365838841876
  C   -0.71971829538588      0.09635465740415     -1.89070911370593
  N   -0.60865581159558      0.44561122001899     -3.00700327757852
  N   -1.48678517812066      0.88667487553160      0.29025973703966
  H   -2.49238515605652      0.88878155077430      0.17307286570746
  H   -1.13811833791037      1.77341984990716     -0.05416338036939
