16
Coordinates from ORCA-job run
  C   0.36761661139855     -0.21645649157233      0.46561054848810
  C   -0.75069687307310      0.41208540107201     -0.38317575918079
  Br  -0.29598614432448     -1.92555345630393      1.18313054451305
  H   -0.34562048750433      1.37228037767277     -0.73277473299563
  C   1.59877494364389     -0.50891383706760     -0.37795725824033
  H   1.37012413817984     -1.17696335553083     -1.20609380046043
  H   1.97179581832484      0.43670156887497     -0.78841391292413
  H   2.37940569620014     -0.94877603410992      0.24579452416639
  N   0.58479885651660      0.65228498877428      1.60379739095960
  H   1.03986152262278      1.50385817133431      1.28611247185279
  H   1.19554181401688      0.20487329796735      2.27766986162742
  C   -1.93264608962271      0.72016447159464      0.44654015423073
  N   -2.94198103742895      0.95466753892959      0.99989773978855
  N   -1.04583091677136     -0.38518551998969     -1.56161002029394
  H   -1.53461076827837     -1.22836075041074     -1.28080545539366
  H   -1.65854708390023      0.13329362876512     -2.17972229613772
