16
Coordinates from ORCA-job run
  C   0.36419166058447     -0.52652739731642      0.18681490765983
  C   -0.94680538864929     -0.15107036391889     -0.55368348460754
  Br  1.11396488140837     -2.12438636116950     -0.79339978570261
  H   -1.59107829882957     -1.03921480744557     -0.53407751139169
  C   1.41456419435189      0.56410864883205      0.13789378855013
  H   1.66049432739012      0.82444863869585     -0.89159835068622
  H   1.04143138301726      1.44746677645610      0.66181031127861
  H   2.32933527153135      0.23082427355319      0.63207558599241
  N   0.02377623419374     -0.84214518919401      1.53152118371366
  H   0.85034855617466     -0.98203656190864      2.09947776889801
  H   -0.54759000421366     -1.67792138282735      1.58488827871929
  C   -0.68206825855643      0.17243135142490     -1.95865181237888
  N   -0.47134895087325      0.49638394831355     -3.06694072232586
  N   -1.67193958659626      0.95376798056056      0.05571220389021
  H   -1.21819273148594      1.83500225203056     -0.15131866529537
  H   -1.67008328944747      0.81886819391362      1.06047630368603
