16
Coordinates from ORCA-job run
  C   0.41250975844252     -0.34897935207690      0.22810821831239
  C   -0.74641001988143      0.00795629409292     -0.73797895129774
  Br  0.49632612774175     -2.40226902660315      0.14575846655090
  H   -0.52526218406946     -0.47348386323321     -1.69605124678975
  C   1.75834240713840      0.14056211925668     -0.26554031401540
  H   1.77673852576987      1.23232244177310     -0.22828162069989
  H   1.94005775727844     -0.19047333401020     -1.28873163521068
  H   2.56035126918405     -0.25040777664606      0.36368443748117
  N   0.13551111526392      0.11985464042470      1.52310809272136
  H   -0.69767936907778     -0.29441861109906      1.91880754138540
  H   0.91123182233012     -0.01395164096117      2.15834567052340
  C   -0.72408245132865      1.46266151757042     -0.95739007240882
  N   -0.69078657058339      2.62298032026274     -1.13152208083015
  N   -2.08459792387551     -0.37990474833439     -0.34144871805888
  H   -2.39860508652722      0.14017380160859      0.46751554445647
  H   -2.12264517780563     -1.37462278202500     -0.15738333211977
