16
Coordinates from ORCA-job run
  C   0.44268202191908     -0.12654135453746      0.40600782017979
  C   -0.73520735956320      0.38686286071278     -0.44088697412014
  Br  -0.16195087408298     -1.92061358315307      1.18034041123342
  H   -0.36133149249297      1.31222702094857     -0.89508674827578
  C   1.65755251567949     -0.41788154616968     -0.44992344004252
  H   2.45783478130598     -0.83939059704399      0.16162939673119
  H   1.40654701314164     -1.11619646675253     -1.24428634256860
  H   2.00516327756853      0.52266432191826     -0.88752751405291
  N   0.73945047653950      0.81375732954868      1.41469073626565
  H   1.56659144464693      0.55452138230628      1.93678111734544
  H   -0.02987303330663      0.95867322389995      2.05813456661093
  C   -1.86322767444526      0.76398976381316      0.43646632386425
  N   -2.77625729126654      1.05904114209821      1.11494022494123
  N   -1.08354240604104     -0.52841338872645     -1.50976855404064
  H   -1.72006928133629     -0.07662129466060     -2.15492647172060
  H   -1.54436211826624     -1.34607881420210     -1.12758455235071
