16
Coordinates from ORCA-job run
  C   0.46314150917998     -0.59067388661459      0.17863467314980
  C   -0.85597449399921     -0.22865555821521     -0.53797409142975
  Br  1.20434110489686     -2.16280010910848     -0.73537057462056
  H   -1.44352673142437     -1.15103932177698     -0.59153719067481
  C   1.48867453185112      0.52982854540655      0.11353482904180
  H   1.78446893999757      0.75843445763866     -0.91177245636451
  H   1.05058770152718      1.42246089005450      0.56960729702086
  H   2.38045421137171      0.24857033135747      0.67703496052440
  N   0.08128154914543     -1.00381277632892      1.51319451091371
  H   -0.25885456028487     -0.17489806303101      1.99264120778662
  H   0.89349215770770     -1.35124398147340      2.01061109053834
  C   -0.61311036440738      0.24123841640051     -1.90465632873142
  N   -0.44102721287912      0.66395632073559     -2.98665697612486
  N   -1.54388513106285      0.79800306291377      0.25592800387134
  H   -2.38109305292151      0.40712699498669      0.66586153666479
  H   -1.80797015869824      1.59350467705485     -0.30908049156577
