16
Coordinates from ORCA-job run
  C   0.36979384747706     -0.21976390497052      0.45693667946924
  C   -0.78629606711606      0.38966928283225     -0.39595155560532
  Br  -0.28259197955071     -1.94609229020412      1.16227511612164
  H   -0.37166800703872      1.32789815503661     -0.79221931858760
  C   1.59193572019521     -0.48531201181869     -0.40243589149218
  H   1.94626223805971      0.45808305317423     -0.83510731028028
  H   1.37379940957847     -1.18310292782099     -1.21026515846809
  H   2.38357976450537     -0.90425849505218      0.21834134666675
  N   0.74951248807757      0.58180780636102      1.58712250395271
  H   -0.04882246733955      0.82991238102369      2.16043048036540
  H   1.22455290429105      1.42401517884727      1.28175274378742
  C   -1.89388707600545      0.76780403315024      0.49455199304666
  N   -2.75081852672702      1.07224591549879      1.23712324162895
  N   -1.30325617156319     -0.36310690794806     -1.51871420283934
  H   -1.60689602289216     -1.28028258757720     -1.21414293767885
  H   -0.59420005395158     -0.47051668053235     -2.23169773008710
