16
Coordinates from ORCA-job run
  C   0.40930929289113     -0.34751329898544      0.23581063092850
  C   -0.74372461081791      0.00101759565769     -0.74055744805541
  Br  0.47556606485869     -2.40384148241976      0.19065256736018
  H   -0.52268608107117     -0.49895028646554     -1.68912293227040
  C   1.76095045908467      0.12035411736612     -0.26268713649213
  H   2.55725018790541     -0.26413101964438      0.37772304350231
  H   1.94376807250827     -0.23350848249139     -1.27799503719338
  H   1.78837095354293      1.21246278380403     -0.24780177675202
  N   0.13251707389426      0.14689305093095      1.52062365812172
  H   -0.70815331755312     -0.24838415590815      1.91947425405675
  H   0.90352672495113      0.01574783059795      2.16221291472119
  C   -0.70978107490415      1.45138243331941     -0.98482911499635
  N   -0.66581491083748      2.60816142478651     -1.17888183899339
  N   -2.08604074144701     -0.36992443177342     -0.34194412107921
  H   -2.40140881058174      0.16950748799563      0.45361198453376
  H   -2.13164928242394     -1.36027356677019     -0.13728964739211
