16
Coordinates from ORCA-job run
  C   0.43560000901025     -0.44549617272030      0.23330319616922
  C   -0.72636688724847     -0.01019383300387     -0.71859609407491
  Br  0.40839956010645     -2.42618783923096      0.20192534016358
  H   -0.50866111067669     -0.41168775214859     -1.71449582891319
  C   1.78394172509227      0.01047767844483     -0.29196721810267
  H   2.57438442163108     -0.39049120566141      0.34215548430818
  H   1.83921851239227      1.10310642179898     -0.27410710936694
  H   1.94119059202721     -0.32927231844604     -1.31680410553381
  N   0.28676428936052     -0.04102977371002      1.60074996011562
  H   0.44278640072227      0.95636747504188      1.69668476069263
  H   -0.61887861855337     -0.28870852389486      1.97856944650656
  C   -0.68352881727737      1.45797175503940     -0.79797512472864
  N   -0.61329782611016      2.63016599473727     -0.79267513654116
  N   -2.07462969810596     -0.40664009165542     -0.36525560621454
  H   -2.36010637590950      0.00486655229813      0.51449248584616
  H   -2.13081617646080     -1.41524836688902     -0.29700445032607
