16
Coordinates from ORCA-job run
  C   0.51580033619691     -0.47602775054567      0.25618182606646
  C   -0.70581856943067     -0.08219555184432     -0.62906082627194
  Br  0.59401393446082     -2.45414474081212      0.11730347122210
  H   -0.56899903706453     -0.54013321432838     -1.61366347397220
  C   1.81862482552823      0.08039902072943     -0.28224073850566
  H   1.81972177778258      1.17215795724042     -0.20463762881125
  H   1.96350195215042     -0.19589603062348     -1.32803034643670
  H   2.64760109259068     -0.31389626647035      0.30538962269756
  N   0.35296092630133     -0.14748515366674      1.63577595881762
  H   0.49858496107209      0.84501892951645      1.78528896878901
  H   -0.57256140255073     -0.42004907508647      1.94871637815335
  C   -0.70214782385814      1.37933727583371     -0.78398385264921
  N   -0.70590933709664      2.55317044218110     -0.84602817933129
  N   -1.94831875700899     -0.53441297690850     -0.01093477824388
  H   -2.48686386955647     -1.10751450697418     -0.64351474160378
  H   -2.52119100951692      0.24067164175910      0.29243834007981
