16
Coordinates from ORCA-job run
  C   0.39550021411132     -0.51486222619282      0.14874354029849
  C   -0.91323290493015     -0.16233097003868     -0.60737247066711
  Br  1.30009784872697     -1.94629092113808     -0.94995173900401
  H   -1.48763246850181     -1.09235838080271     -0.70371070464500
  C   1.36025530482888      0.64842886278710      0.25408207485068
  H   0.90232033561430      1.44384645320206      0.84706834418197
  H   2.27976621372402      0.33317150807168      0.75126245819111
  H   1.62180050397196      1.03035853298535     -0.73273394504861
  N   0.03136233734027     -0.98918606676932      1.43978431425555
  H   0.84515498069528     -1.12485959576251      2.02693015793803
  H   -0.47466318088770     -1.86601538187206      1.38531603754236
  C   -0.62262309572244      0.32236215622267     -1.95970332663519
  N   -0.37754902696617      0.77107864177550     -3.01621077488361
  N   -1.74291162783248      0.81860831513994      0.07654067717995
  H   -1.76751693310956      0.58122820817114      1.06183517104721
  H   -1.35012850106267      1.74682086422073     -0.02087981460181
