16
Coordinates from ORCA-job run
  C   0.41994302249261     -0.60787030619828      0.12025813060817
  C   -0.89812860084232     -0.13455564150277     -0.56908652175152
  Br  1.04966683676420     -2.14865716045870     -0.94529477158271
  H   -1.55574583836111     -1.01001651940559     -0.62847807224753
  C   1.49905523676944      0.45736161458699      0.11585588465147
  H   1.16149395526618      1.33141567133635      0.68340599647211
  H   1.74260753682421      0.77108776674833     -0.89898750743570
  H   2.39591537733572      0.06416032263550      0.59430229279930
  N   0.21918446970220     -1.08035674278908      1.46101108648209
  H   -0.55837582776669     -1.72420972895478      1.53978741012759
  H   0.12275380812385     -0.31596744027225      2.11684077406885
  C   -0.63963987666579      0.32405014045420     -1.93899202259701
  N   -0.41169270626177      0.74726237122486     -3.01002465048286
  N   -1.61993074112108      0.91435674017204      0.13272751914737
  H   -1.09818537827300      1.78122864780517      0.14620853482768
  H   -1.82892127398666      0.62971026461802      1.08046591691269
