18

C	-0.352993	0.105214	-1.501226
C	0.0	0.0	0.0
Cl	-0.100365	-1.604688	-2.244627
H	1.094836	0.0	0.0
C	-1.800061	0.443763	-1.805849
H	-1.959544	0.455426	-2.887065
H	-2.47614	-0.294023	-1.372182
H	-2.02621	1.432249	-1.402097
N	0.52778	1.051962	-2.062405
H	1.492628	0.873205	-1.783858
H	0.451561	1.093654	-3.070479
C	-0.530698	-1.211601	0.761284
H	-0.296487	-1.094606	1.821393
H	-0.043649	-2.116177	0.402578
H	-1.614079	-1.318411	0.654951
C	-0.455335	1.22996	0.648597
N	-0.880682	2.174349	1.203894
Cl	3.354021	0.0	0.0
