18

C	-0.371173	0.015641	-1.486315
C	0.0	0.0	0.0
Cl	-2.240105	0.361579	-1.621668
H	1.097245	0.0	0.0
C	0.326984	1.148431	-2.208765
H	0.072515	1.135903	-3.272012
H	1.404063	1.009739	-2.072828
H	0.029059	2.111152	-1.79302
N	-0.06379	-1.222474	-2.083396
H	-0.591152	-1.986625	-1.683489
H	-0.210442	-1.194586	-3.083397
C	-0.483039	-1.230223	0.765065
H	-0.234508	-1.121672	1.821406
H	0.042195	-2.114407	0.401432
H	-1.563876	-1.363763	0.671001
C	-0.443495	1.225297	0.658557
N	-0.783539	2.202912	1.214125
Cl	3.370062	0.0	0.0
