18

C	-0.45177	-0.099232	-1.465736
C	0.0	0.0	0.0
Cl	0.147553	1.438949	-2.303595
H	1.094479	0.0	0.0
C	0.243576	-1.247228	-2.172867
H	-0.135486	-2.196838	-1.788877
H	0.044579	-1.200673	-3.246615
H	1.319966	-1.177647	-2.00247
N	-1.873431	-0.209861	-1.563512
H	-2.313766	0.599212	-1.138121
H	-2.149029	-0.239796	-2.538191
C	-0.434674	-1.219961	0.826071
H	-1.515235	-1.367532	0.792982
H	-0.115947	-1.0765	1.860603
H	0.067302	-2.11324	0.453586
C	-0.542653	1.208069	0.613874
N	-1.069924	2.132772	1.111333
Cl	3.367679	0.0	0.0
