18

C	-0.249411	-0.034898	-1.524385
C	0.0	0.0	0.0
Cl	-2.023868	-0.252605	-1.854923
H	1.099052	0.0	0.0
C	0.209563	1.259159	-2.167981
H	1.270583	1.393146	-1.936265
H	-0.348971	2.113743	-1.786887
H	0.076854	1.182564	-3.247361
N	0.444615	-1.132319	-2.168459
H	0.139732	-2.011877	-1.767395
H	1.434893	-1.023763	-1.94234
C	-0.475186	-1.225802	0.776516
H	-1.562344	-1.323529	0.752346
H	-0.146642	-1.14112	1.81399
H	-0.019822	-2.129449	0.368072
C	-0.518567	1.215615	0.612984
N	-0.980383	2.169004	1.121434
Cl	3.326394	0.0	0.0
