18

C	-0.351847	0.054141	-1.504117
C	0.0	0.0	0.0
Cl	-0.083239	-1.679203	-2.190881
H	1.097435	0.0	0.0
C	-1.801632	0.368883	-1.822115
H	-2.040544	1.365342	-1.445845
H	-2.470058	-0.365287	-1.370814
H	-1.958301	0.349041	-2.903393
N	0.523853	0.987156	-2.093881
H	1.489046	0.822369	-1.807623
H	0.450271	0.996228	-3.102766
C	-0.529025	-1.185751	0.802123
H	-0.285227	-1.037298	1.855606
H	-1.613352	-1.291048	0.709069
H	-0.049085	-2.102777	0.468012
C	-0.457183	1.25144	0.604521
N	-0.888104	2.225165	1.102054
Cl	3.353941	0.0	0.0
