18

C	-0.377367	0.01585	-1.484464
C	0.0	0.0	0.0
Cl	-2.252599	0.33649	-1.60519
H	1.097275	0.0	0.0
C	0.29524	1.164263	-2.205098
H	1.374918	1.048431	-2.07118
H	0.039461	1.149797	-3.268313
H	-0.022919	2.118715	-1.7862
N	-0.053296	-1.213949	-2.088243
H	-0.214871	-1.189298	-3.086138
H	-0.554544	-1.990932	-1.680419
C	-0.478274	-1.23019	0.768985
H	0.050765	-2.113765	0.408339
H	-1.558701	-1.368513	0.676097
H	-0.228817	-1.117219	1.82487
C	-0.444188	1.224825	0.659306
N	-0.785132	2.201633	1.215672
Cl	3.36733	0.0	0.0
