13
Coordinates from ORCA-job run
  C   0.86083239876047     -0.57441745428053     -0.40377886454985
  C   -0.57161240651607     -0.16496441184292     -0.70852297431829
  H   0.91610949996411     -1.46287035296292      0.22393029954005
  H   -1.03457076755173     -0.98453003249827     -1.26723015501063
  H   1.44514776725246     -0.71206598626563     -1.31482213339753
  H   -0.55120549470514      0.70547827417780     -1.36862737338206
  N   1.53026191115507      0.51817380042124      0.36141782567304
  O   1.84156613957940      0.29442503342135      1.52956262669906
  O   1.68564311467147      1.58488247445024     -0.22889535724732
  C   -1.37401838670471      0.13889857253309      0.55231107738446
  H   -2.41481445192969      0.35454359366096      0.30351458990941
  H   -0.97377411833019      1.00887292205361      1.07719445888391
  H   -1.35956520564544     -0.70642643286802      1.24494597981576
