13
Coordinates from ORCA-job run
  C   0.80954071819204     -0.40361138478885     -0.64456851614878
  C   -0.44609549317670     -0.80206103298785      0.11509219841478
  H   1.52321162462759     -1.22647462050709     -0.70706408296364
  H   -0.92854425552121     -1.60648155804351     -0.44911448114683
  H   0.58991847641671     -0.01201001087933     -1.63697475962559
  H   -0.15049942319933     -1.21696611024129      1.08167408746702
  N   1.50014160466991      0.69491001450664      0.09295282081024
  O   1.94839627413493      0.41283927153976      1.20203072297092
  O   1.53890224907705      1.80513253456062     -0.43380707841500
  C   -1.40955682956703      0.36462733341698      0.30608545168889
  H   -1.67650164372610      0.81926149981412     -0.65126863828607
  H   -2.32906523642243      0.02874800676512      0.78917905232101
  H   -0.97184806550541      1.14208605684466      0.93578322291305
