15

C	-0.558484	0.027789	-1.394347
C	0.0	0.0	0.0
F	0.05179	-0.824531	-2.248108
H	1.085835	0.0	0.0
H	-0.348542	0.856539	0.570048
N	-1.952562	-0.209205	-1.464892
H	-2.298672	-0.042167	-2.401234
H	-2.457142	0.337849	-0.783676
N	-0.257252	1.432711	-2.014211
O	0.041173	2.365182	-1.276996
O	-0.445403	1.512594	-3.225801
N	-0.436592	-1.197839	0.705798
O	-0.89444	-1.051904	1.850142
O	-0.23527	-2.290811	0.170882
H	2.623214	0.0	0.0
