15

C	-0.573051	-0.017657	-1.387718
C	0.0	0.0	0.0
F	0.025877	-1.035777	-2.088052
H	1.085672	0.0	0.0
H	-0.249075	-0.944592	0.482186
N	-1.969022	-0.200367	-1.467782
H	-2.261924	-0.084283	-2.43238
H	-2.407251	0.512536	-0.896144
N	-0.132569	1.239186	-2.192831
O	-0.694302	1.373328	-3.283245
O	0.734852	1.97165	-1.737174
N	-0.516958	1.063739	0.823995
O	-0.148301	1.080265	2.00419
O	-1.243176	1.946203	0.317353
H	2.527426	0.0	0.0
