19

C	0.0	0.0	0.0
C	-0.386126	0.101531	-1.507959
F	1.415515	0.0	0.0
H	0.552349	0.405032	-1.98888
C	-0.372603	1.249673	0.785925
H	-1.459257	1.273855	0.857757
H	0.077563	1.166229	1.783255
H	-0.00531	2.1527	0.296865
N	-0.512761	-1.199675	0.596418
H	-1.534905	-1.048919	0.490259
H	-0.319207	-1.143802	1.593532
N	-1.369916	1.161706	-1.744053
H	-1.621217	1.11696	-2.727606
H	-2.195516	0.864884	-1.189059
C	-0.815563	-1.244569	-2.097139
H	-0.896795	-1.146702	-3.187337
H	-0.110877	-2.046208	-1.864459
H	-1.797868	-1.49559	-1.694712
F	-2.968225	0.0	0.0
