19

C	0.0	0.0	0.0
C	-0.209677	-0.081732	-1.559732
F	1.397579	0.0	0.0
H	0.21457	0.86628	-1.93097
C	-0.516179	1.295747	0.578624
H	-0.10351	2.149721	0.0347
H	-1.607308	1.259795	0.494044
H	-0.223769	1.356422	1.631086
N	-0.549332	-1.087539	0.751968
H	-0.373327	-1.952632	0.24979
H	-1.567629	-0.915424	0.704786
N	-1.581694	-0.269198	-2.012437
H	-1.799856	0.439824	-2.702206
H	-2.273879	-0.159158	-1.233119
C	0.635878	-1.208169	-2.171864
H	0.306789	-2.175973	-1.782437
H	1.707663	-1.095211	-2.002927
H	0.435908	-1.226724	-3.246394
F	-3.164127	0.0	0.0
