19

C	0.0	0.0	0.0
C	-0.2659	-0.056695	-1.55119
F	1.403694	0.0	0.0
H	0.545867	0.553963	-1.969406
C	-0.461157	1.318369	0.583008
H	-0.092962	1.395342	1.609241
H	-0.067225	2.153126	-0.004597
H	-1.553526	1.305599	0.566427
N	-0.552138	-1.055465	0.791854
H	-0.371772	-1.943179	0.335888
H	-1.570727	-0.872751	0.714929
N	-1.526329	0.469883	-2.055733
H	-1.48127	1.481889	-1.993811
H	-2.270024	0.202568	-1.374275
C	-0.088937	-1.480367	-2.071727
H	-0.957107	-2.086344	-1.797011
H	-0.039008	-1.458311	-3.162303
H	0.820302	-1.949783	-1.681462
F	-3.063905	0.0	0.0
