19

C	0.0	0.0	0.0
C	-0.288478	0.284697	-1.513129
F	1.426589	0.0	0.0
H	0.551355	0.933739	-1.795469
C	-0.416325	1.164489	0.878349
H	-1.508706	1.165057	0.881109
H	-0.032578	1.007287	1.892974
H	-0.018206	2.112851	0.502048
N	-0.54714	-1.250984	0.421127
H	-0.411954	-1.327976	1.426693
H	-1.564372	-1.082036	0.284477
N	-1.516331	0.98135	-1.872852
H	-1.428848	1.94001	-1.551732
H	-2.278053	0.575579	-1.289431
C	-0.177352	-1.001498	-2.323901
H	-1.043542	-1.637586	-2.132148
H	0.722881	-1.56144	-2.059871
H	-0.162177	-0.746415	-3.387657
F	-3.037264	0.0	0.0
