13

C	0.0	0.0	0.0
C	-0.50333	0.15382	-1.433938
Cl	1.788626	0.0	0.0
H	-0.202266	1.120607	-1.832177
H	-1.602328	0.056637	-1.386223
C	-0.419343	1.181399	0.765775
N	-0.57606	2.174025	1.374658
C	-0.425165	-1.224618	0.691113
N	-0.58665	-2.199694	1.326465
N	0.038241	-0.876091	-2.34966
O	0.250402	-0.51934	-3.508068
O	0.190883	-2.014621	-1.916104
Cl	-3.275883	0.0	0.0
