13

C	0.0	0.0	0.0
C	-0.508972	-0.24697	-1.417553
Cl	1.78889	0.0	0.0
H	-0.207419	-1.236276	-1.756399
H	-1.607826	-0.148774	-1.376712
C	-0.427957	1.264179	0.615717
N	-0.571918	2.266743	1.212161
C	-0.412963	-1.128274	0.843122
N	-0.611075	-2.06052	1.530257
N	0.027936	0.724789	-2.399304
O	0.174719	1.889222	-2.038696
O	0.243933	0.29364	-3.530382
Cl	-3.288758	0.0	0.0
