13

C	0.0	0.0	0.0
C	-0.499737	0.217466	-1.42847
Cl	1.789379	0.0	0.0
H	-1.598482	0.116196	-1.384645
H	-0.199575	1.201717	-1.781426
C	-0.418523	1.148425	0.815208
N	-0.603543	2.110405	1.46504
C	-0.433701	-1.248992	0.63554
N	-0.597894	-2.244237	1.2383
N	0.046147	-0.770876	-2.384651
O	0.289169	-0.3602	-3.519052
O	0.173693	-1.932225	-2.007058
Cl	-3.273332	0.0	0.0
