13

C	0.0	0.0	0.0
C	-0.505	-0.186528	-1.429724
Cl	1.788311	0.0	0.0
H	-1.604181	-0.088222	-1.385441
H	-0.203891	-1.162069	-1.806427
C	-0.429392	1.236856	0.665421
N	-0.595911	2.223083	1.282244
C	-0.414578	-1.167668	0.789757
N	-0.566616	-2.151418	1.414328
N	0.03828	0.822285	-2.368103
O	0.185425	1.971362	-1.961561
O	0.257813	0.43765	-3.515935
Cl	-3.278088	0.0	0.0
