13

C	0.0	0.0	0.0
C	-0.511817	0.180854	-1.427898
Cl	1.788543	0.0	0.0
H	-1.608799	0.081106	-1.375838
H	-0.215011	1.155611	-1.810506
C	-0.406427	1.174678	0.789194
N	-0.60029	2.131775	1.443807
C	-0.438611	-1.230258	0.674943
N	-0.580847	-2.202276	1.319475
N	0.028807	-0.831706	-2.361737
O	0.250233	-0.453349	-3.511127
O	0.173392	-1.979397	-1.950236
Cl	-3.290965	0.0	0.0
