13

C	0.0	0.0	0.0
C	-0.505382	-0.093705	-1.437532
Cl	1.787034	0.0	0.0
H	-1.604657	-0.003775	-1.381327
H	-0.206127	-1.041816	-1.878886
C	-0.439557	1.187313	0.745835
N	-0.599392	2.122997	1.439362
C	-0.421725	-1.219349	0.709371
N	-0.615031	-2.222126	1.291273
N	0.026403	0.976308	-2.309715
O	0.181891	2.093805	-1.825731
O	0.224534	0.675095	-3.486143
Cl	-3.27805	0.0	0.0
