13

C	0.0	0.0	0.0
C	-0.512036	-0.242998	-1.415209
Cl	1.788744	0.0	0.0
H	-0.2016	-1.227905	-1.761645
H	-1.612432	-0.15357	-1.370358
C	-0.42851	1.259731	0.623814
N	-0.559895	2.268372	1.210937
C	-0.407394	-1.135613	0.841044
N	-0.601813	-2.065127	1.534131
N	0.018729	0.735105	-2.393244
O	0.182329	1.894127	-2.02562
O	0.210765	0.314016	-3.533149
Cl	-3.283761	0.0	0.0
