13

C	0.0	0.0	0.0
C	-0.510492	0.220529	-1.421074
Cl	1.788746	0.0	0.0
H	-0.204647	1.20095	-1.78104
H	-1.610179	0.128093	-1.373033
C	-0.409165	1.14745	0.820746
N	-0.606127	2.082761	1.503903
C	-0.428123	-1.25069	0.641274
N	-0.566346	-2.243657	1.254372
N	0.020334	-0.773232	-2.383146
O	0.171775	-1.928921	-1.997189
O	0.226804	-0.369184	-3.526403
Cl	-3.288721	0.0	0.0
