17

C	0.0	0.0	0.0
C	-0.169199	0.147445	-1.560076
F	1.437116	0.0	0.0
H	0.004884	1.182211	-1.834132
N	-0.490303	1.184453	0.600398
H	-1.498847	1.206134	0.411267
H	-0.394494	1.059839	1.604445
N	-0.42355	-1.195067	0.614154
H	-0.140682	-1.995855	0.062904
H	-1.44346	-1.162937	0.667831
N	-1.443871	-0.276872	-2.229909
O	-2.033425	0.602665	-2.850457
O	-1.729333	-1.46722	-2.183694
N	0.881899	-0.655989	-2.273123
O	1.019121	-1.835633	-1.96801
O	1.516742	-0.063057	-3.145534
Cl	-3.509843	0.0	0.0
