17

C	0.0	0.0	0.0
C	-0.176465	0.041599	-1.554361
F	1.367332	0.0	0.0
H	0.249658	-0.892488	-1.913989
N	-0.497216	1.158886	0.656893
H	-1.515851	1.132121	0.554914
H	-0.288732	1.080458	1.647017
N	-0.462275	-1.299595	0.4176
H	-0.313709	-1.367758	1.420006
H	-1.479955	-1.280146	0.285088
N	0.629224	1.125124	-2.243608
O	0.781956	0.911885	-3.448641
O	1.042701	2.098271	-1.634683
N	-1.521238	0.144482	-2.201171
O	-1.963544	1.270645	-2.384689
O	-2.022708	-0.915434	-2.550331
Cl	-3.581877	0.0	0.0
