15

C	0.0	0.0	0.0
C	-0.556125	0.029756	-1.431836
F	1.361453	0.0	0.0
H	0.287913	-0.298536	-2.054073
H	-0.388419	0.791049	0.640306
N	-0.321382	-1.304807	0.702577
O	0.288891	-2.291149	0.30728
O	-1.111871	-1.266786	1.637197
N	-0.915003	1.39141	-1.851672
H	-1.757174	1.641927	-1.337848
H	-0.17752	2.052724	-1.623388
N	-1.647071	-0.89206	-1.556412
H	-1.984878	-0.82966	-2.510574
H	-2.447123	-0.577206	-0.937968
H	-3.6048	0.0	0.0
