15

C	0.0	0.0	0.0
C	-0.415386	0.029658	-1.47308
F	1.373395	0.0	0.0
H	0.252257	-0.702536	-1.949169
H	-0.397572	0.810937	0.60288
N	-0.354039	-1.28928	0.688519
O	-0.594854	-1.234154	1.891594
O	-0.277557	-2.320791	0.022054
N	-0.110356	1.406734	-1.903516
H	-0.764644	1.588119	-2.654908
H	0.831346	1.455678	-2.272486
N	-1.769295	-0.287204	-1.815238
H	-1.865834	-1.29491	-1.862346
H	-2.481677	-0.007638	-1.076216
H	-3.584889	0.0	0.0
