15

C	0.0	0.0	0.0
C	-0.418205	0.255927	-1.443722
F	1.363388	0.0	0.0
H	-1.499178	0.128432	-1.482736
H	-0.379381	0.806037	0.648606
N	-0.576792	-1.20713	0.576951
O	-0.285378	-1.405829	1.786912
O	-1.743437	-1.4429	0.047503
N	0.237296	-0.707904	-2.307205
H	1.239072	-0.633438	-2.170438
H	0.043621	-0.428337	-3.262159
N	-0.11917	1.643363	-1.84798
H	-0.782115	2.252494	-1.376442
H	0.805345	1.888606	-1.504406
H	-2.812852	0.0	0.0
