15

C	0.0	0.0	0.0
C	-0.390649	-0.128392	-1.474221
F	1.3646	0.0	0.0
H	0.122048	0.741069	-1.91747
H	-0.393166	0.887377	0.497468
N	-0.413706	-1.174727	0.855722
O	-1.201667	-1.993943	0.411136
O	0.094719	-1.18848	1.978461
N	-1.781256	-0.087592	-1.812057
H	-2.471525	-0.212047	-1.015875
H	-2.016527	0.816224	-2.203985
N	0.236541	-1.37621	-1.957912
H	-0.416554	-1.739233	-2.643888
H	1.125881	-1.183734	-2.402594
H	-3.658585	0.0	0.0
