15

C	0.0	0.0	0.0
C	-0.469049	0.065287	-1.463863
F	1.372164	0.0	0.0
H	0.248912	0.791659	-1.870333
H	-0.364892	0.850813	0.577779
N	-0.402663	-1.211555	0.806321
O	0.081673	-1.259602	1.936842
O	-1.166686	-2.038227	0.322807
N	-1.793654	0.564122	-1.718098
H	-2.535132	0.185914	-1.060969
H	-1.819317	1.566813	-1.553304
N	-0.176378	-1.205453	-2.125491
H	-0.900725	-1.852674	-1.833181
H	-0.350622	-1.027605	-3.109843
H	-3.694827	0.0	0.0
