15

C	0.0	0.0	0.0
C	-0.317402	-0.174381	-1.520504
F	1.354927	0.0	0.0
H	0.509581	0.370038	-1.994218
H	-0.376343	0.969271	0.364777
N	-0.631051	-0.992158	0.845832
O	-0.3609	-0.953219	2.073216
O	-1.806233	-1.319906	0.351276
N	-1.545246	0.392372	-2.05291
H	-2.303711	0.110727	-1.418989
H	-1.502676	1.40399	-1.972889
N	-0.155815	-1.578587	-1.868146
H	-0.356717	-1.63633	-2.860796
H	-0.905486	-2.061983	-1.385535
H	-2.996855	0.0	0.0
