13

C	-0.35173	0.001687	-1.465307
C	0.0	0.0	0.0
Cl	-2.13253	0.142482	-1.769105
H	1.095487	0.0	0.0
H	0.104167	0.885921	-1.909363
C	0.136552	-1.203007	-2.125814
N	0.484987	-2.182556	-2.671342
C	-0.549721	-1.114773	0.732409
N	-0.959091	-2.063644	1.292904
N	-0.382144	1.290082	0.611965
O	-0.231017	2.295204	-0.082748
O	-0.749678	1.291243	1.785303
F	2.419306	0.0	0.0
