13

C	-0.445862	0.136076	-1.458375
C	0.0	0.0	0.0
Cl	-0.280446	-1.441464	-2.293202
H	1.091453	0.0	0.0
H	-1.498533	0.417912	-1.532906
C	0.349519	1.124746	-2.186205
N	0.904085	1.911281	-2.858787
C	-0.527365	-1.176463	0.652321
N	-0.939417	-2.143981	1.178335
N	-0.420277	1.197024	0.759205
O	-0.780205	2.186751	0.113219
O	-0.337867	1.148797	1.982706
F	2.421073	0.0	0.0
