13

C	-0.428134	0.115472	-1.467925
C	0.0	0.0	0.0
Cl	-0.397637	-1.493392	-2.253872
H	1.091458	0.0	0.0
H	-1.450977	0.485667	-1.55865
C	0.448544	1.014228	-2.2213
N	1.031011	1.763346	-2.912443
C	-0.54241	-1.150691	0.68141
N	-0.964651	-2.098881	1.233966
N	-0.396574	1.227589	0.722856
O	-0.344627	1.208947	1.949248
O	-0.69242	2.216404	0.043237
F	2.419881	0.0	0.0
