13

C	-0.352001	-0.018827	-1.487676
C	0.0	0.0	0.0
Cl	0.216006	1.468698	-2.290926
H	1.091801	0.0	0.0
H	0.233756	-0.838063	-1.909936
C	-1.76763	-0.213683	-1.799122
N	-2.891298	-0.406267	-2.081291
C	-0.524782	-1.19265	0.632541
N	-0.939271	-2.182014	1.113305
N	-0.595892	1.205318	0.653683
O	0.158285	2.140516	0.906631
O	-1.811927	1.190552	0.871682
F	2.468508	0.0	0.0
