13

C	-0.361243	-0.020498	-1.483439
C	0.0	0.0	0.0
Cl	0.209997	1.463638	-2.289403
H	1.091559	0.0	0.0
H	0.21813	-0.84086	-1.911539
C	-1.779243	-0.208255	-1.788791
N	-2.906341	-0.387093	-2.068069
C	-0.52676	-1.186678	0.640538
N	-0.925358	-2.1809	1.125544
N	-0.586745	1.210848	0.653067
O	0.180355	2.1215	0.947356
O	-1.808391	1.223135	0.831221
F	2.469261	0.0	0.0
