13

C	-0.269065	0.008651	-1.483027
C	0.0	0.0	0.0
Cl	-2.026164	0.153351	-1.898342
H	1.095582	0.0	0.0
H	0.218254	0.892154	-1.893576
C	0.26199	-1.19618	-2.110124
N	0.639042	-2.176025	-2.636734
C	-0.574653	-1.119631	0.7013
N	-0.993054	-2.068186	1.255042
N	-0.392761	1.287891	0.60195
O	-0.255376	2.291708	-0.098139
O	-0.753283	1.28857	1.777474
F	2.419537	0.0	0.0
