13

C	-0.466675	-0.01126	-1.44917
C	0.0	0.0	0.0
Cl	0.131031	1.441357	-2.2972
H	1.091574	0.0	0.0
H	0.026822	-0.866812	-1.916768
C	-1.912224	-0.127148	-1.659843
N	-3.055209	-0.266431	-1.892985
C	-0.539284	-1.151091	0.695149
N	-0.982866	-2.099052	1.231791
N	-0.505045	1.24321	0.685856
O	0.325986	1.976107	1.209336
O	-1.721007	1.449207	0.664263
F	2.469267	0.0	0.0
