13

C	-0.439739	0.008949	-1.467631
C	0.0	0.0	0.0
Cl	-0.343049	-1.645371	-2.147585
H	1.091477	0.0	0.0
H	-1.479354	0.326659	-1.572757
C	0.395949	0.889877	-2.284336
N	0.990479	1.57899	-3.026022
C	-0.535736	-1.105458	0.75919
N	-0.951868	-2.01559	1.376881
N	-0.404161	1.269773	0.641156
O	-0.713853	2.207961	-0.100664
O	-0.349679	1.331876	1.865759
F	2.419796	0.0	0.0
