13

C	-0.35629	0.004986	-1.464578
C	0.0	0.0	0.0
Cl	-2.136384	0.148007	-1.763674
H	1.095645	0.0	0.0
H	0.099621	0.889892	-1.907177
C	0.130124	-1.198063	-2.129121
N	0.467682	-2.178666	-2.67938
C	-0.55227	-1.113047	0.733511
N	-0.962106	-2.058985	1.298725
N	-0.380412	1.29138	0.61273
O	-0.750778	1.294166	1.786076
O	-0.22697	2.29738	-0.081153
F	2.41914	0.0	0.0
