13

C	-0.354032	0.003083	-1.464807
C	0.0	0.0	0.0
Cl	-2.134842	0.142299	-1.767844
H	1.095444	0.0	0.0
H	0.10096	0.88785	-1.908431
C	0.134465	-1.20067	-2.127048
N	0.47105	-2.183567	-2.67383
C	-0.550139	-1.113957	0.73382
N	-0.959345	-2.061805	1.296279
N	-0.380608	1.290957	0.612615
O	-0.239631	2.29583	-0.085334
O	-0.736901	1.293892	1.78995
F	2.419236	0.0	0.0
