15

C	0.0	0.0	0.0
C	-0.436439	-0.15015	-1.469307
F	1.393143	0.0	0.0
H	-0.067913	-1.095745	-1.87799
H	-1.533831	-0.155103	-1.484434
N	-0.459702	1.201802	0.628996
H	-1.472977	1.110726	0.720406
H	-0.278618	1.994463	0.021592
C	-0.438282	-1.206968	0.805562
H	-1.525735	-1.296647	0.79679
H	-0.087992	-1.074224	1.830319
H	0.014727	-2.109481	0.387351
C	0.069454	0.948735	-2.287752
N	0.45597	1.851592	-2.931042
Br	-3.832945	0.0	0.0
