15

C	0.0	0.0	0.0
C	-0.467318	0.284497	-1.426604
F	1.396076	0.0	0.0
H	-1.562703	0.218113	-1.44662
H	-0.172893	1.307753	-1.673929
N	-0.455879	1.089964	0.820353
H	-0.281863	0.84969	1.791525
H	-1.472829	1.125414	0.714147
C	-0.410923	-1.382325	0.477422
H	0.004311	-2.157567	-0.171438
H	-1.50004	-1.447392	0.493335
H	-0.020046	-1.533431	1.488567
C	0.121046	-0.630973	-2.397268
N	0.594949	-1.353439	-3.191576
Br	-3.826744	0.0	0.0
