15

C	0.0	0.0	0.0
C	-0.484102	-0.141459	-1.440834
F	1.41731	0.0	0.0
H	-1.583469	-0.124165	-1.402205
H	-0.143918	-1.093558	-1.858604
N	-0.459839	1.234393	0.522045
H	-0.298945	1.301138	1.516966
H	-0.029003	2.018293	0.048476
C	-0.487044	-1.152773	0.842603
H	-0.127058	-1.032725	1.868436
H	-0.100316	-2.096441	0.451223
H	-1.580598	-1.150206	0.8314
C	0.010896	0.946455	-2.28051
N	0.39629	1.832941	-2.946878
Br	-4.024638	0.0	0.0
