18
Coordinates from ORCA-job run
  C   0.64381788177822      0.10986179551269     -0.41659644049159
  C   -0.66416263792607     -0.10796415586125      0.36638721669192
  Cl  0.48526611658033      1.42815872945416     -1.57116497516567
  H   -0.49970493943520     -0.97280363310110      1.01040858460841
  C   1.19131323062144     -1.12342083679470     -1.10936981659774
  H   1.25977611787039     -1.94996980876733     -0.40280773806496
  H   2.18229634762485     -0.89841199728694     -1.50824077727343
  H   0.54003835589487     -1.41042276802206     -1.93268864638717
  N   1.66197169620209      0.49764740325084      0.67284591938434
  O   2.21214319494925      1.58612365429603      0.63315348015112
  O   1.82598427447098     -0.37276067255725      1.52366258824901
  N   -1.72187176824265     -0.55676367674372     -0.60335142965810
  O   -1.70873502229747     -1.75025988911928     -0.90490341327750
  O   -2.51139034233578      0.28212784953854     -1.02632235938779
  C   -1.13325945813235      1.09153948087532      1.16017944876343
  H   -0.41030174344753      1.31927320163072      1.94560408334238
  H   -1.26584035001143      1.96454161927595      0.52474725394698
  H   -2.08734095416395      0.86350370441940      1.63745702116636
