18
Coordinates from ORCA-job run
  C   0.62425279556868     -0.22682094107600     -0.55836709369924
  C   -0.85422322844059     -0.00702225816986     -0.22875117331087
  Cl  0.68645081633804     -1.61377191386011     -1.68562625621792
  H   -1.41732432723674      0.00435433546069     -1.16086560661411
  C   1.56102864150106     -0.48739866544280      0.59387984329234
  H   1.56297438584127      0.36163165159967      1.27483812188876
  H   2.56922045321876     -0.64276885614232      0.21551043324784
  H   1.24476854023605     -1.38826769830042      1.11979639380171
  N   1.10661770571777      0.97047067492113     -1.38729072596190
  O   2.28036489147464      1.29481982223433     -1.27673144366307
  O   0.27678810602128      1.48182910803902     -2.13002723350476
  N   -1.08909770558966      1.36230415773992      0.35390000546802
  O   -2.25369371660979      1.74295617732884      0.34678815867200
  O   -0.13323830179925      1.97771154826482      0.82100106431098
  C   -1.42864464889894     -1.02122476383275      0.74690314685683
  H   -2.50431006453177     -0.86557664459561      0.82910781502856
  H   -0.98276056188676     -0.90806911907219      1.73652027119528
  H   -1.25017378092407     -2.03515661509638      0.38841427920955
