18
Coordinates from ORCA-job run
  C   0.59387986338089     -0.06266466417576     -0.62917872335848
  C   -0.85739626274305      0.12169587758729     -0.17947344352788
  Cl  0.53181588153165     -0.99205559727546     -2.15625437463150
  H   -1.43885189951894      0.47993667019552     -1.02778710313614
  C   1.53434056912066     -0.75177324772345      0.32695870490537
  H   1.16649766026011     -1.75676360012888      0.53381538346629
  H   1.61105183705389     -0.18386066547340      1.25224251733553
  H   2.52055258355812     -0.82978091753172     -0.12586607409581
  N   1.14281783238599      1.31131962048594     -1.03248940900831
  O   2.33991733985105      1.50605164407481     -0.87735130932875
  O   0.33520479119212      2.09291988867533     -1.52087969913047
  N   -0.98072007916929      1.22721707180269      0.83686544884283
  O   -2.11498597237083      1.65665982357361      1.01011941691752
  O   0.02701875041272      1.59118366144451      1.43896323679758
  C   -1.48124952598644     -1.12482538324910      0.42665558364752
  H   -1.38357208429387     -1.96842881562774     -0.25686760897480
  H   -1.00640683204844     -1.37726299894152      1.37627819036433
  H   -2.54091445261634     -0.94156836771267      0.60424926291516
