18
Coordinates from ORCA-job run
  C   0.48999998493169     -0.14082678752261     -0.71315903256194
  C   -0.83977339315645      0.27512259215205     -0.06592527788571
  Cl  0.10951532046522     -0.99325348718621     -2.22577050051951
  H   -1.38040987433826      0.88111544639536     -0.79361120408222
  C   1.41209670849280     -0.98493879515282      0.13026855095049
  H   2.33821322707648     -1.16758491586104     -0.41374856460887
  H   1.64409894667422     -0.48777062072970      1.06966188031529
  H   0.93388561859569     -1.94272205297785      0.33491647136075
  N   1.18109897366017      1.17422207349390     -1.11382297380601
  O   0.60814453781542      1.86414658978476     -1.94491190388093
  O   2.22245297142201      1.44929411336927     -0.52612020661492
  N   -0.53202890917169      1.22797342655999      1.06412927180604
  O   -0.17022355219967      0.74181859838330      2.13383395573653
  O   -0.66481308555916      2.42682300268909      0.82598928412499
  C   -1.67412975657383     -0.87321385945424      0.46156080128761
  H   -1.91643683868921     -1.56276121792102     -0.34679185120918
  H   -1.15266355019638     -1.40568585832350      1.25492236694517
  H   -2.60802732924904     -0.48175824769874      0.86957893264242
