18
Coordinates from ORCA-job run
  C   0.66020809961965      0.09116499140797     -0.39438245636536
  C   -0.67834340048311     -0.08959825639646      0.34498898160779
  Cl  0.55349988910071      1.35991437528752     -1.60893326308698
  H   -0.54203226508543     -0.92480676447350      1.03307602729301
  C   1.22817170595642     -1.17225084181440     -1.01257590088508
  H   1.26497510559006     -1.96817843984946     -0.26939068536471
  H   2.23492803680505     -0.96752063344215     -1.38175408176835
  H   0.60802067289938     -1.49197155843109     -1.84779556781963
  N   1.63801127804871      0.52111602348782      0.71615252034149
  O   1.75929818926016     -0.30986278517468      1.61242330294037
  O   2.20192771826362      1.60109238299237      0.64690965298154
  N   -1.69827310775768     -0.58046686233507     -0.64476862688141
  O   -2.46409296854921      0.24057960647273     -1.14034761469001
  O   -1.68090334820818     -1.78742223310653     -0.88678769522578
  C   -1.17478520758314      1.14478664028616      1.06512467213993
  H   -1.28250720357444      1.98770918203877      0.38591774886146
  H   -2.14623349766405      0.93855326418305      1.51667572640989
  H   -0.48086969663853      1.40816190886696      1.86546725951183
