18
Coordinates from ORCA-job run
  C   0.57314269922356     -0.09511878118933     -0.67412544670274
  C   -0.82087739400220     -0.24904205461867     -0.05122596052613
  Cl  0.40570891471136     -0.21886426039535     -2.43011920695036
  H   -1.19733017019879     -1.21196330530488     -0.40169674343345
  C   1.53154295919384     -1.16590245933671     -0.18491386493690
  H   1.69886513152278     -1.07012394733187      0.88614187275487
  H   2.48619423900761     -1.06002806146435     -0.70268936781188
  H   1.12302198894466     -2.15161541661016     -0.41268448382275
  N   1.19425445275506      1.26553277780439     -0.31964197350129
  O   1.47070148444384      1.38244755002670      0.87107502840889
  O   1.38875959814244      2.09105850670049     -1.19422149853902
  N   -1.76214958580879      0.75646444294970     -0.64775211614081
  O   -1.46002990652795      1.93828923440397     -0.50323537073724
  O   -2.77198893677743      0.32410621586078     -1.19497352990941
  C   -0.93411969573741     -0.14522251096021      1.46045342677176
  H   -0.64968809465805      0.84383396624192      1.81146449231214
  H   -0.30589146780742     -0.88955164088765      1.94935709591174
  H   -1.97211621642712     -0.34230025588879      1.73878764685257
