17
Coordinates from ORCA-job run
  C   -0.75695810868171      0.20892708764406      0.13211202108644
  C   0.71393194510399      0.18370991191956      0.57721703393031
  Br  -1.58101601372041      1.90712249677148      0.58682159446807
  H   0.76267627824796      0.39378483861685      1.64330141364209
  C   -0.99918239412146     -0.11540327404303     -1.32121358540467
  H   -0.50888099422824      0.62654688858244     -1.94962164846370
  H   -2.06759149015090     -0.11312461589567     -1.52707223050748
  H   -0.61247995582670     -1.10920778747775     -1.54970477568602
  N   -1.43314438162281     -0.84072062664687      1.02828146100245
  O   -2.18469476379608     -1.63795562258276      0.48304733496761
  O   -1.17550919236991     -0.78993589791444      2.22345354850812
  N   1.46622000218213      1.33136515622062     -0.08603560300401
  O   1.70289732408438      2.32157211518356      0.59809713414603
  O   1.80362892409485      1.16038576263394     -1.25747164149355
  N   1.26914107175641     -1.08982373091066      0.27615186761560
  H   1.51845119511475     -1.15710769404507     -0.70296315714538
  H   2.08251055393377     -1.28113500805627      0.84559923233811
