17
Coordinates from ORCA-job run
  C   -0.71603643603239      0.23521991641409      0.04054447115524
  C   0.74362027235181      0.41982884370674      0.52441706726772
  Br  -1.66111803474615      1.93297792000984      0.10275271943242
  H   0.73124201527456      0.97553593345516      1.45854277435448
  C   -0.89789374378322     -0.40464994822023     -1.31393031301024
  H   -1.95707421619309     -0.55413512945306     -1.51202682391600
  H   -0.40615642728423     -1.37877914001161     -1.34546019090207
  H   -0.47253408291669      0.23428885892358     -2.08499120164166
  N   -1.36793534830417     -0.63816735841079      1.12134849076880
  O   -2.13380849089492     -1.51950312571429      0.75149782316168
  O   -1.07395952162469     -0.38356836120143      2.28501362533827
  N   1.47066022312788      1.29189122995066     -0.46526661035439
  O   1.64421433111418      2.46794642583379     -0.16396207358662
  O   1.84601580885962      0.74146292338378     -1.49834719260258
  N   1.50403404581932     -0.77479693655354      0.68357273691060
  H   1.27127612484202     -1.26086727056755      1.53660071168578
  H   1.47645348039017     -1.38468478154514     -0.12030601406144
