17
Coordinates from ORCA-job run
  C   -0.69965425607547      0.23895632964043      0.14855497439028
  C   0.79927879669087      0.28114267013259      0.53626388724687
  Br  -1.56370105099785      1.91078723540427      0.63656255622239
  H   0.88247902393281      0.62785059422450      1.56304851611924
  C   -1.01089269490087     -0.10059089596160     -1.28852292805867
  H   -0.56793107902429     -1.06141470479279     -1.55775885693645
  H   -2.08753091519188     -0.17464709799395     -1.42523419525777
  H   -0.61494224053217      0.67107338343701     -1.94535208789820
  N   -1.30739140066038     -0.82188733092513      1.07660027695773
  O   -0.90094453755637     -0.83851867174107      2.23427850701150
  O   -2.15527583558589     -1.56854769832452      0.60382680666984
  N   1.48415879521509      1.32394779350162     -0.30747175801107
  O   1.75607219402094      0.99493554826665     -1.46029193681126
  O   1.72952527012634      2.40517173230598      0.21668705134616
  N   1.52003077099510     -0.93827356455871      0.37836520725337
  H   1.41050583529396     -1.35906930006085     -0.53268297652427
  H   1.32621332425005     -1.59091602255435      1.12312695628031
