17
Coordinates from ORCA-job run
  C   -0.79932434635030      0.19566449000550      0.09680441568031
  C   0.66643974094300      0.59948139945356      0.37630238786295
  Br  -1.91033453922530      1.44208932612253      1.08077405124851
  H   0.72387318115995      1.67943059518198      0.23773578331783
  C   -1.25272029490608      0.15272633215188     -1.35064569628266
  H   -0.68540692595155     -0.59706293300660     -1.90250609219477
  H   -1.10566797137197      1.12328305314550     -1.82110298162199
  H   -2.31366162014311     -0.10171905718117     -1.37658635531332
  N   -1.00758194790048     -1.21228298076045      0.64729438618486
  O   -0.10728008537069     -1.98909066682424      0.32966080988379
  O   -2.02203548214127     -1.49078448486243      1.26259312906457
  N   1.61764121032057      0.07820911914564     -0.72504518705717
  O   1.50349324363659      0.61244685183641     -1.82538249216686
  O   2.44164081051015     -0.77327007182575     -0.41733601976881
  N   1.07003082216892      0.23545530188616      1.68052577463626
  H   1.32512437146265     -0.74378018387722      1.71648840961078
  H   1.85576983315899      0.79020390940870      1.98942567691579
