17
Coordinates from ORCA-job run
  C   -0.66018013093046     -0.17523336372105      0.07834519413756
  C   0.82777542677409      0.17499496110393     -0.04225300089775
  Br  -1.11062028811108     -0.46373283798556      1.93663377401172
  H   1.09738117515321      0.09893300006736     -1.09815251515283
  C   -1.54064769461020      0.91325241935594     -0.50919949692355
  H   -2.58344648886741      0.59125647154336     -0.48382973485526
  H   -1.42502462136314      1.83099535200383      0.06167869360232
  H   -1.24126148646274      1.09619413725165     -1.54281878476674
  N   -0.94781174983528     -1.44000522642188     -0.74538111643917
  O   -0.56791173723590     -1.35692713526198     -1.90868494793208
  O   -1.56799549794735     -2.36140004011440     -0.24537359785685
  N   1.65626675304161     -0.93883759278718      0.63155051549816
  O   1.43545959301155     -2.08282490887127      0.25032058794017
  O   2.47974217844592     -0.59745976975344      1.47211939393322
  N   1.10247753194967      1.46651135423294      0.45777965413531
  H   1.00365076138238      1.49266903462251      1.46550049194653
  H   2.04314627560516      1.75161414473527      0.22176488961924
