17
Coordinates from ORCA-job run
  C   -0.68527463550424      0.26511118446036      0.17735799527285
  C   0.82930277524535      0.25388478310457      0.50257000467298
  Br  -1.46969791031329      1.96416845967726      0.70308983230730
  H   0.96706873454779      0.60154047993046      1.52324357039356
  C   -1.06761538208253     -0.05890606828908     -1.24594125965500
  H   -0.66471712947317     -1.03046027897645     -1.53809718519719
  H   -2.15093625343679     -0.10117854808599     -1.33629536352744
  H   -0.67854440315440      0.70461444925609     -1.91632215266228
  N   -1.28492122720368     -0.77832053049092      1.12961008449675
  O   -2.15053059569353     -1.52144884522006      0.68379541630358
  O   -0.85014352712419     -0.78869153907263      2.27683369301837
  N   1.51580868537473      1.26681401748481     -0.37523136155670
  O   1.73052343350333      0.92058943559482     -1.53509487684909
  O   1.81746585301268      2.34289055454079      0.12976348344130
  N   1.49688332554836     -0.99231250421466      0.32227519557315
  H   1.31226301223361     -1.63451461493877      1.07835460599354
  H   1.33406524451997     -1.41278043476058     -0.58091168202572
