17
Coordinates from ORCA-job run
  C   -0.65280474100727     -0.17141641111470      0.13189956062430
  C   0.82185612396719      0.17478593541572     -0.10574569404725
  Br  -0.98709883960946     -0.31845237802813      2.03091794096680
  H   1.02724338603507      0.02050720019218     -1.16755439297629
  C   -1.57676912151110      0.86532647658804     -0.48202398202878
  H   -1.43658025788478      1.82397122612321      0.01073674779556
  H   -1.34072817137187      0.97138572253898     -1.54244261235294
  H   -2.61308416377580      0.54063499486584     -0.37061078564292
  N   -0.97864087634443     -1.49654400687416     -0.57369358394392
  O   -1.56000651344587     -2.37929348660519      0.03166020651823
  O   -0.66999414179373     -1.50157364982959     -1.76087799730603
  N   1.69967370665546     -0.88076523252730      0.59789921861168
  O   2.57175594705039     -0.47281360482644      1.35581324790800
  O   1.46455128074454     -2.05161789447213      0.32093724314963
  N   1.11485313921610      1.50203751319391      0.27739481852072
  H   1.07924774546528      1.60357188637251      1.28458182534118
  H   2.03652549761032      1.77225570898723     -0.03789176113793
