17
Coordinates from ORCA-job run
  C   -0.60970964282876     -0.16118922451980      0.14926219019630
  C   0.90336994969482      0.09016827534758     -0.07146762745138
  Br  -1.01168982675942     -0.23008213684583      2.03579653010998
  H   1.09805972399070     -0.10351891943844     -1.12856108481539
  C   -1.44398789400662      0.91995711457606     -0.51523948998419
  H   -2.50313328864284      0.66816543940244     -0.43847643165931
  H   -1.17328705272739      0.99763712628103     -1.57000405682665
  H   -1.28078218858242      1.87511533284101     -0.01830312908993
  N   -0.98835752099367     -1.48367679026477     -0.53211940918892
  O   -1.48983743078274     -2.38688564590284      0.11441063021388
  O   -0.76087711286847     -1.48285384961332     -1.73860097135865
  N   1.66692842626095     -0.98818835001648      0.67628224233123
  O   2.32149428547693     -0.65837994409140      1.65492019275366
  O   1.52318441042327     -2.12754833171278      0.23917631238337
  N   1.40914351994261      1.36000088282780      0.29521415022948
  H   1.19022917329808      2.07309907718754     -0.38359508906977
  H   1.15025246910499      1.63917994394221      1.23130504122630
