17
Coordinates from ORCA-job run
  C   -0.71329689412001      0.12500321991488      0.16850626169893
  C   0.76973763292796      0.58678684401480      0.22376678096745
  Br  -1.68226573573753      1.18519196918140      1.47789568269659
  H   0.77962166390378      1.62688369233694     -0.10378303659928
  C   -1.32686559819796      0.31438637792239     -1.20016282265644
  H   -0.83266874430468     -0.32195454868905     -1.93431567379807
  H   -1.21861573050949      1.35837711772356     -1.49852446804989
  H   -2.38472976146315      0.05650839991272     -1.18189555208862
  N   -0.83006863330997     -1.33456572132617      0.60504687698614
  O   -1.28479305884567     -2.12471763600463     -0.21334698294345
  O   -0.44324364495102     -1.61225806551352      1.73486444530416
  N   1.47725014608020     -0.17627815095011     -0.87376302166695
  O   1.79650346822704      0.44245480385354     -1.88423057475808
  O   1.65989979066501     -1.37102575565951     -0.65705020312693
  N   1.53192586904933      0.44496660135008      1.41230584620898
  H   1.32952147377102     -0.42363101385823      1.88877613681085
  H   1.37308775681505      1.22287186579086      2.03591030501461
