17
Coordinates from ORCA-job run
  C   -0.76368188017813      0.22183182435010      0.03567740157437
  C   0.68049520327178      0.33526751803533      0.54907268158969
  Br  -1.61811576128644      1.96507201081392      0.00572962021295
  H   0.66985088712271      0.80837738512639      1.52842308174105
  C   -0.92494541478521     -0.46049507548318     -1.29999386415520
  H   -0.52143863748438     -1.47258273795150     -1.25243496859783
  H   -1.98069845216478     -0.52982624277421     -1.55408356860056
  H   -0.40550213369970      0.10952065713318     -2.06877519834079
  N   -1.48347868121735     -0.58160465773377      1.13055864089379
  O   -2.19959331433377     -1.50420967392739      0.76512783204919
  O   -1.29599393776148     -0.22457329030637      2.28589855681291
  N   1.46393147530198      1.29197263146851     -0.34219070581344
  O   1.65999821306578      2.42611004962589      0.08188837217163
  O   1.86673213468808      0.83724520359841     -1.41283641609331
  N   1.25633834829585     -0.96310382154981      0.60846196310449
  H   2.03891269149656     -0.99006437808987      1.24831522517985
  H   1.55918925966850     -1.26993740233564     -0.30783865372881
