17
Coordinates from ORCA-job run
  C   -0.78813372627973      0.11562795352957      0.00982383508359
  C   0.61380169718779      0.45709811730589      0.53902523826688
  Br  -1.87358189002612      1.71865219061761     -0.13792293813596
  H   0.51460277217341      0.97706932190835      1.48921692035503
  C   -0.82101733414044     -0.65724944708160     -1.28534112292011
  H   -0.28437096118148     -1.59961068213485     -1.16965910493855
  H   -1.85054452655846     -0.88567848896200     -1.55324575462191
  H   -0.36452824615872     -0.06579548356638     -2.07754774203692
  N   -1.41748259605325     -0.71654119589455      1.13857038718712
  O   -1.30452617594068     -0.27523644768605      2.27427702892693
  O   -1.99194281716228     -1.74798924998673      0.81649582354059
  N   1.27889239375138      1.46286215710816     -0.39333553366885
  O   1.76774834309504      1.00988395956445     -1.42829754199505
  O   1.30811374386266      2.63454396541193     -0.03162852817675
  N   1.36164473494705     -0.74327302993716      0.68303051477600
  H   2.12450564735694     -0.62588979849866      1.33630433966792
  H   1.72581894112690     -1.05547384169794     -0.20876582130992
