17
Coordinates from ORCA-job run
  C   -0.76738615494662      0.18931599722621      0.16798791736863
  C   0.71481500498040      0.59192853669097      0.28684504101582
  Br  -1.79666625816493      1.28082221574580      1.39556161594090
  H   0.80427458135633      1.60632660090423     -0.10629261593449
  C   -1.29978157844856      0.37116576944898     -1.23736990044334
  H   -0.79494065636779     -0.29258086817747     -1.93843095230303
  H   -1.14272657636645      1.40604459516586     -1.54450601897257
  H   -2.36526127909430      0.15035582523677     -1.26407387360916
  N   -0.94914080184477     -1.26843777810998      0.60912558675567
  O   -1.42742041309225     -2.04125217594077     -0.21243752047520
  O   -0.59669787949100     -1.55695981729353      1.74627189397831
  N   1.45307162963690     -0.26052192187349     -0.76487164870623
  O   1.66668326855552     -1.43241140847713     -0.46301778872563
  O   1.77816923320378      0.29415367857186     -1.81185805165088
  N   1.27609172625263      0.50994279551585      1.57357947271129
  H   1.22561832520306     -0.41797931211849      1.96862294491864
  H   2.21929782862807      0.87108726748439      1.59486389813128
