17
Coordinates from ORCA-job run
  C   -0.66259666954489     -0.17675589142470      0.05694699965852
  C   0.82739600677714      0.17869381666849     -0.01313830065168
  Br  -1.19044916841868     -0.40034275928514      1.90372112103820
  H   1.14156550200979      0.06803676945737     -1.05356004146462
  C   -1.52241633125242      0.88410744482407     -0.60694807320866
  H   -2.56337977353827      0.55531853427116     -0.61635359272617
  H   -1.17868607287003      1.03313104523364     -1.63215753548047
  H   -1.43758061218361      1.82189317234499     -0.06396775482686
  N   -0.90822875949974     -1.47212844137418     -0.73133856963687
  O   -1.54438146458454     -2.37917624899794     -0.22496129929188
  O   -0.47914771467285     -1.42884361306934     -1.87965533806098
  N   1.63239628781577     -0.90482084928798      0.73355335874630
  O   1.43345641627874     -2.06318923184135      0.38500969588476
  O   2.41859793566455     -0.52846393243275      1.59476780459047
  N   1.07408791070703      1.48911641170945      0.45197858320814
  H   0.93693474713332      1.54863712875525      1.45378792930060
  H   2.02143176017872      1.77278664444897      0.24231501292122
