17
Coordinates from ORCA-job run
  C   -0.76483038706277     -0.09988342691098      0.19770746501105
  C   0.70682891392144      0.06041156296613      0.61096153792783
  Br  -1.92959294761135      0.84963114648971      1.42682088804995
  H   0.82411628435763     -0.28216520736614      1.63659710963703
  C   -1.08282301370860      0.28640046190191     -1.22557693319159
  H   -0.86765147312416      1.34325899592247     -1.37583675521742
  H   -0.48952320467846     -0.31494781520981     -1.91532811377786
  H   -2.13440465371363      0.09939029484957     -1.43310617076946
  N   -1.05074416142820     -1.59424846260941      0.41649179850460
  O   -0.67616294083981     -2.07529139292967      1.47747050043154
  O   -1.64061986624469     -2.18533696403490     -0.47809840527414
  N   1.06732596863059      1.54093083818087      0.64581842867110
  O   1.30100225236216      2.07321945139444     -0.43928028345821
  O   1.12490380811883      2.08246546410263      1.74486108692014
  N   1.52395339924424     -0.68785996321498     -0.27969450664384
  H   1.66980911455962     -0.18828871289815     -1.14832020216386
  H   2.41841290721717     -0.90768627063366      0.13751255534310
