17
Coordinates from ORCA-job run
  C   -0.74210338126700      0.00254911128786      0.28956745644474
  C   0.77690702931039      0.04100045913856      0.52108283504717
  Br  -1.65448020303386      1.18517410377757      1.52959483265681
  H   0.98178765675434     -0.21281879486812      1.55870202555076
  C   -1.18811360584834      0.28434690764749     -1.12389122004393
  H   -2.27018670070511      0.19503036503520     -1.19472340677578
  H   -0.74308247623776     -0.44118879051103     -1.80573360106722
  H   -0.88980334553181      1.29216375547125     -1.40880660155066
  N   -1.14310524668285     -1.42442010616891      0.69628701545841
  O   -0.69438735962443     -1.83976194825829      1.75617017473950
  O   -1.88827654865872     -2.03080046109915     -0.06175710093122
  N   1.28071744622761      1.47035173502994      0.35789571149779
  O   1.43498411182694      1.86823072590273     -0.79674715940933
  O   1.51987752355115      2.10483304043569      1.38000726724852
  N   1.40597325867876     -0.87286073798444     -0.36772513235475
  H   1.49226632930283     -0.47777530256286     -1.29610258527595
  H   2.32002551193792     -1.14405406227352     -0.03082051123485
