17

C	-0.469549	0.005689	-1.45029
C	0.0	0.0	0.0
Cl	-2.18993	0.392459	-1.549352
H	1.094447	0.0	0.0
N	0.331115	1.055505	-2.259607
O	1.539523	0.951623	-2.146667
O	-0.259059	1.846377	-2.97518
C	-0.198133	-1.321591	-2.14307
H	-0.467835	-1.237395	-3.198586
H	0.861067	-1.57186	-2.056693
H	-0.798984	-2.110973	-1.690821
C	-0.512298	-1.142039	0.718818
N	-0.902171	-2.115461	1.25841
N	-0.407889	1.270072	0.68606
O	-0.892327	1.200248	1.813229
O	-0.126246	2.302517	0.079766
Br	2.728509	0.0	0.0
