17

C	-0.445746	8.1e-05	-1.469534
C	0.0	0.0	0.0
Cl	0.272181	-1.430128	-2.208427
H	1.092838	0.0	0.0
N	-1.978263	-0.127081	-1.506698
O	-2.554064	0.744942	-0.859573
O	-2.513585	-1.011211	-2.15869
C	-0.065155	1.231721	-2.265435
H	-0.591982	2.105624	-1.888738
H	1.011161	1.384052	-2.166739
H	-0.324218	1.060663	-3.312788
C	-0.507093	-1.176837	0.692218
N	-0.887109	-2.146407	1.236034
N	-0.402805	1.239904	0.759177
O	0.071374	2.293321	0.349451
O	-1.119638	1.108416	1.746062
Br	3.298228	0.0	0.0
