14

C	-0.58691	0.002303	-1.416223
C	0.0	0.0	0.0
Br	0.133463	1.514368	-2.406182
H	1.090479	0.0	0.0
H	-1.661402	0.204744	-1.350525
N	-0.215978	-1.221098	-2.084331
H	-0.438686	-1.163641	-3.070503
H	-0.723526	-1.998718	-1.675216
C	-0.509518	-1.176166	0.700045
N	-0.933465	-2.147894	1.206766
N	-0.512026	1.210867	0.739865
O	0.310664	1.990478	1.199269
O	-1.738355	1.325368	0.810672
Br	3.434892	0.0	0.0
