14

C	-0.434902	-0.00156	-1.450411
C	0.0	0.0	0.0
Br	-2.485488	0.335216	-1.502548
H	1.095391	0.0	0.0
H	-0.396066	-1.022387	-1.829352
N	0.30205	0.848103	-2.277249
H	0.047215	0.772254	-3.250565
H	0.30445	1.805907	-1.950892
C	-0.508678	-1.145838	0.719267
N	-0.871555	-2.128317	1.254149
N	-0.317696	1.253557	0.732167
O	-1.047653	1.204013	1.724493
O	-0.098023	2.305267	0.093857
Br	2.903923	0.0	0.0
