14

C	-0.300621	0.002729	-1.514965
C	0.0	0.0	0.0
Br	-2.215818	0.33732	-1.81689
H	1.094813	0.0	0.0
H	-0.13455	-1.023517	-1.848685
N	0.487622	0.884807	-2.316067
H	0.409994	1.82217	-1.935182
H	1.462083	0.603487	-2.189782
C	-0.539249	-1.170721	0.667831
N	-0.933956	-2.162498	1.158321
N	-0.44194	1.247124	0.691351
O	-0.150119	2.30621	0.141526
O	-1.040205	1.145103	1.758279
Br	3.326823	0.0	0.0
