18

C	0.0	0.0	0.0
C	-0.44212	-0.142767	-1.481799
Cl	1.761388	0.0	0.0
H	-1.449714	-0.544325	-1.363939
C	-0.495156	1.198536	0.666008
N	-0.614875	2.24919	1.18407
N	-0.42473	-1.210391	0.831783
O	-0.481492	-1.042788	2.04163
O	-0.560958	-2.273869	0.245441
C	0.445597	-1.037734	-2.345358
H	-0.128959	-1.303633	-3.236906
H	0.718877	-1.962409	-1.837638
H	1.357706	-0.535317	-2.676507
C	-0.582167	1.242353	-2.10388
H	-0.817902	1.138326	-3.167859
H	-1.404372	1.764947	-1.61598
H	0.336716	1.833521	-2.020277
F	-2.439983	0.0	0.0
