18

C	0.0	0.0	0.0
C	-0.426817	-0.15123	-1.486002
Cl	1.761462	0.0	0.0
H	-1.465222	-0.471038	-1.370265
C	-0.482387	1.218723	0.640538
N	-0.61264	2.275977	1.139725
N	-0.445438	-1.18551	0.852408
O	-0.616401	-2.255043	0.287132
O	-0.484157	-0.999522	2.061781
C	0.404003	-1.13481	-2.306704
H	0.555591	-2.08042	-1.784043
H	-0.154606	-1.344256	-3.225973
H	1.379569	-0.729078	-2.597835
C	-0.429228	1.223058	-2.148016
H	0.54141	1.72599	-2.059611
H	-1.202049	1.8478	-1.699488
H	-0.64876	1.109236	-3.214765
F	-2.439113	0.0	0.0
