18

C	0.0	0.0	0.0
C	-0.359618	-0.007275	-1.55409
Cl	1.767346	0.0	0.0
H	0.609774	-0.062095	-2.060456
C	-0.456019	1.187717	0.72059
N	-0.610581	2.216327	1.268185
N	-0.398563	-1.224657	0.806653
O	-0.280778	-2.312224	0.254391
O	-0.681673	-1.051382	1.981824
C	-0.998707	1.31923	-1.966836
H	-1.023618	1.371046	-3.063564
H	-2.008453	1.323916	-1.560692
H	-0.455561	2.192457	-1.599427
C	-1.199854	-1.166235	-2.083784
H	-0.669749	-2.117527	-2.037798
H	-2.115171	-1.204678	-1.500405
H	-1.430993	-0.950642	-3.132461
F	-2.372922	0.0	0.0
