15
Coordinates from ORCA-job run
  C   -0.62024046075209     -0.20654472890751     -0.47985831184613
  C   0.86924840794674     -0.30441818095007     -0.10110046498334
  Br  -0.90456703707104     -0.71676726986525     -2.29098123858642
  H   1.17713682603933     -1.29384709793317     -0.45073787625646
  N   -1.40848183815532     -1.14442030798245      0.43999172427553
  O   -1.03926350049811     -2.30846383834412      0.40799565835360
  O   -2.28523632516732     -0.65008790380012      1.13292723346608
  N   -1.16469142734512      1.19512646962390     -0.22718805738326
  O   -2.17588248607832      1.52806386377263     -0.81973653413086
  O   -0.54296510078604      1.84637685606549      0.60730473624425
  C   1.04404773727653     -0.29986439650112      1.36379863831036
  N   1.24887588333280     -0.31844477783471      2.52075314471374
  N   1.61278740284800      0.70476551952004     -0.81740577243020
  H   2.56059910139879      0.39735378863426     -0.98590732091258
  H   1.62963281701118      1.57317200450219     -0.29885555883433
