15
Coordinates from ORCA-job run
  C   -0.66616677883073     -0.18699857571144     -0.39675467268960
  C   0.85005139522454     -0.32107678559488     -0.13871964425661
  Br  -1.05527573320020     -0.57195156918305     -2.22273497472165
  H   1.13533589336945     -1.30166574298540     -0.53194579982780
  N   -1.48264714570730     -1.13882121595470      0.46080619300503
  O   -0.90419161280207     -2.16105370263848      0.80937174021585
  O   -2.64215907854396     -0.82206445976186      0.67852336977838
  N   -1.11129314386114      1.21958991114392     -0.00609559943160
  O   -0.89359839956844      1.46230192722569      1.17556016608813
  O   -1.60611646863239      1.95066043589003     -0.84188687119645
  C   1.18383145414339     -0.32828563171658      1.28964238906695
  N   1.56139672137016     -0.34259565235857      2.40172214772637
  N   1.50004344649807      0.77971580493463     -0.83148240043445
  H   2.02755414593672      0.45510709315045     -1.62842846472237
  H   2.10423530460390      1.30713816356026     -0.21757757860017
