15
Coordinates from ORCA-job run
  C   -0.66391790646204     -0.24067631929557     -0.41514516828295
  C   0.85727259913111     -0.03307833527199     -0.36081916791405
  Br  -1.16933671891874     -1.37061856421187     -1.86524365741761
  H   1.11773230314662      0.29122425005262     -1.37316736958859
  N   -1.22878784589577     -0.79269119041742      0.88800047010541
  O   -0.46545424997083     -0.77672630762560      1.84914712367853
  O   -2.38982745043358     -1.16435883243904      0.87425173151601
  N   -1.26922430108377      1.15880922497867     -0.59297517963700
  O   -0.95762802065119      1.71789459135309     -1.63042407239081
  O   -1.94804079640271      1.59080006809539      0.32349883768997
  C   1.53340216170169     -1.31757844261804     -0.11136302158867
  N   2.13044273858668     -2.31022847197512      0.08435805633200
  N   1.17754999391816      1.04507080809684      0.54504842556176
  H   2.04969941961851      1.48387494585671      0.28311588740561
  H   1.22711807371587      0.72028257542133      1.50071710453039
