15
Coordinates from ORCA-job run
  C   -0.66315461940407     -0.25081849772643     -0.40690366779327
  C   0.85807646465039      0.00151868359757     -0.33986740334337
  Br  -1.13775712073419     -1.53014421125106     -1.73815831674168
  H   1.11592834686819      0.50773299374555     -1.27967854641075
  N   -1.12316652913643     -0.69897177568881      0.98303792691923
  O   -1.74154613883844      0.11411802598945      1.64948498548283
  O   -0.75391154681462     -1.81573326487060      1.30619164577747
  N   -1.39840176383436      1.05415567492946     -0.70960643909823
  O   -0.70726792680481      2.06428831514278     -0.80549381977636
  O   -2.60950068590709      0.97890560682217     -0.82698412106664
  C   1.59289292930510     -1.26531750033317     -0.30503138698352
  N   2.26878204439089     -2.22528979310775     -0.28870749788789
  N   1.14589954207365      0.77434966731738      0.85352486692663
  H   1.11394342270841      1.76361481371279      0.65228697748676
  H   2.03918358147737      0.52659126172069      1.25490479650879
