15
Coordinates from ORCA-job run
  C   -0.69399965269747     -0.19475146116908     -0.36957784623316
  C   0.83582098559976     -0.31584609072758     -0.24258551121845
  Br  -1.28092307585680     -0.69098068638707     -2.11064216539035
  H   1.06418878982202     -1.31283524716515     -0.62973866748521
  N   -1.32950683153063     -1.12824285991243      0.66607530660089
  O   -0.99488612004361     -2.29848897910457      0.56179024221180
  O   -2.06166080385466     -0.62539208496170      1.50543504163985
  N   -1.17173646672040      1.21179200789620     -0.02777815537743
  O   -0.39938066864308      1.86741454625112      0.66549822015332
  O   -2.27747478916864      1.54438598806532     -0.41744244880767
  C   1.24901615759221     -0.30562895402401      1.17374902531365
  N   1.63793086782880     -0.32510084050137      2.28232543144806
  N   1.46922401063211      0.67481640762163     -1.07996195296255
  H   2.37284701076921      0.34987016140971     -1.39491971542766
  H   1.58254058627117      1.54698809270900     -0.58022680446506
