15
Coordinates from ORCA-job run
  C   -0.54226169548017      0.13806621753939     -0.42197876248569
  C   0.72550386280460      0.02862551731873      0.43068951415364
  Br  -0.18682458718719      0.65317979368236     -2.21445353326412
  H   0.37958094812042     -0.15947312293301      1.45059964758263
  N   -1.23424178494208     -1.23242161080184     -0.33549189672663
  O   -1.37000103928022     -1.90063139989934     -1.33994281416507
  O   -1.57313977587944     -1.50658091055554      0.80927020439747
  N   -1.55985845774082      1.09734811017119      0.18919389581475
  O   -1.20586711085028      1.71168000139146      1.18784393055347
  O   -2.64614167579112      1.13840526073223     -0.36770169329224
  C   1.48120726859042      1.29015918020472      0.41813519255888
  N   2.17377256444091      2.23906205116960      0.39584858833535
  N   1.46180764774972     -1.13264591331802     -0.02797167137957
  H   2.10369820436317     -1.44397027191318      0.68961030619329
  H   1.99176563108206     -0.91980290278875     -0.86465090827616
