15
Coordinates from ORCA-job run
  C   -0.61787539560001      0.07305016904369     -0.36562926156146
  C   0.77133406352610      0.18027778147040      0.29372093494515
  Br  -0.62370259057094      0.60179229716491     -2.18500248115088
  H   0.60843359506053      0.05939545361682      1.36828069305865
  N   -1.05829548154992     -1.38528280779711     -0.18377141101427
  O   -1.01982053846199     -1.73615599203681      0.99174110778540
  O   -1.39787407446960     -2.04218808557622     -1.14662151998769
  N   -1.67219505698106      0.86954576041109      0.39234445937700
  O   -2.83518593325075      0.58101872215660      0.15291130653707
  O   -1.25606716093662      1.72380778554565      1.16564546702357
  C   1.35938161296698      1.50249638165052      0.07491984897602
  N   1.87739985555862      2.54750309980934     -0.06268247733518
  N   1.58783991004792     -0.89531429062585     -0.24489131739606
  H   1.87672101098457     -1.52789868051576      0.48754050033436
  H   2.39990618367618     -0.55304759431727     -0.73750584959169
