15
Coordinates from ORCA-job run
  C   -0.59842274906100      0.13548009893515     -0.33705377283497
  C   0.76889824995193      0.04496134518149      0.34760264702879
  Br  -0.50798605377496      0.89780568616681     -2.07341602887687
  H   0.56717329973097     -0.30023407251343      1.36506229992099
  N   -1.16130669514068     -1.29632958068833     -0.35835400822091
  O   -1.37027882748653     -1.84322453815334     -1.42168140221596
  O   -1.33017078176216     -1.74217712627324      0.76998175434612
  N   -1.60845970024676      0.90878863990035      0.50565278126667
  O   -2.75325479068353      0.91843646983165      0.07988256577420
  O   -1.18792779602310      1.42011624954239      1.53611437962598
  C   1.40922485623558      1.36720196475152      0.42033943725726
  N   2.00870924726747      2.37735013955061      0.44856964675496
  N   1.53703187867218     -0.97229138488342     -0.34156474415371
  H   1.94560251783886     -0.60621173266254     -1.19303736785417
  H   2.28116734448170     -1.31167215868567      0.25390181218161
