15
Coordinates from ORCA-job run
  C   -0.67089946915070     -0.23471172372869     -0.38938549140056
  C   0.85564001924641     -0.29465201174812     -0.19796201191356
  Br  -1.16959776144423     -0.81660568286910     -2.13139538168341
  H   1.13623084863821     -1.29379282218278     -0.54281042136490
  N   -1.31711968793749     -1.15121692352093      0.65470979591946
  O   -0.92877005644115     -2.30886126090085      0.61737984987888
  O   -2.11353895644253     -0.64778999413825      1.43289039476707
  N   -1.21016308604886      1.16616516628363     -0.12044036335210
  O   -2.30280661853235      1.45105665316778     -0.57842208538113
  O   -0.49602887616992      1.86708443238245      0.59056226062338
  C   1.21199899335897     -0.22314981875760      1.23198522383339
  N   1.56146926997419     -0.18065929000289      2.35298097024868
  N   1.48536741559474      0.69264010551522     -1.04237791832547
  H   2.41182845797885      0.39222746672303     -1.31204373112692
  H   1.54738950737586      1.58326570377711     -0.56667109072282
