15
Coordinates from ORCA-job run
  C   -0.64476692361590     -0.34589700538521      0.37130879370172
  C   0.87091424766774     -0.30955395117039      0.12104407860716
  Br  -1.08082266265308     -1.40420170567018      1.89594549514530
  H   1.16332992386853     -1.36409455546902      0.10948017180202
  N   -1.25032106305107      1.04460538430027      0.51958808232550
  O   -2.40432038831503      1.10683261645976      0.90812300247120
  O   -0.52435602903589      1.97978951903424      0.19576283113520
  N   -1.26159808144856     -0.95518895414106     -0.89587841003584
  O   -0.91727624942246     -2.10150311332330     -1.12674344882865
  O   -1.97990732867968     -0.23257780526993     -1.56598450991173
  C   1.55312209072873      0.33916285986835      1.25357627558992
  N   2.15137115400356      0.87094346789477      2.11364380057404
  N   1.14372504601127      0.23984495330246     -1.18623347830097
  H   1.16539111479677      1.24988248609165     -1.16445886492411
  H   2.01651514914507     -0.11804419652243     -1.54917381935076
