15
Coordinates from ORCA-job run
  C   -0.60274989062380      0.08402232863200     -0.34599901174627
  C   0.77517493519170      0.09273420754420      0.32265885322206
  Br  -0.53444548717067      0.53331988182780     -2.18920592044744
  H   0.58761160366675     -0.06851334250823      1.38746576150795
  N   -1.18425078020354     -1.32025650521797     -0.10962050468482
  O   -1.42028090007667     -2.03930630069093     -1.05881756597098
  O   -1.33685206239760     -1.56204599244447      1.08151099824501
  N   -1.58771803111414      1.00810490888883      0.36568373512617
  O   -1.14236931455134      1.68235152651331      1.28608839841452
  O   -2.73973634586447      0.96215954088238     -0.03753927266493
  C   1.43358746694277      1.39720622314148      0.15515760356170
  N   2.04812996624335      2.38622425529233     -0.00236615588909
  N   1.51791235706262     -1.04074679137123     -0.19164088122194
  H   1.91182201084859     -0.83472932913389     -1.10188727081772
  H   2.27216447204645     -1.27852461135560      0.43951123336580
