15
Coordinates from ORCA-job run
  C   -0.67438499878423     -0.28822845180447      0.36592214789975
  C   0.85248880744943     -0.31624337022646      0.19839125118650
  Br  -1.22411671416004     -1.17487223774320      1.96174715485309
  H   1.11237104657577     -1.37382210081014      0.30712700842855
  N   -1.24313020734359      1.12522804571923      0.34138184803114
  O   -2.41491056082529      1.25529819112318      0.65165565403341
  O   -0.47067437445262      2.00464229041623     -0.02814632912122
  N   -1.24182673128592     -1.00678521640730     -0.86624659784650
  O   -1.89997662429639     -0.33790503601138     -1.64514596257608
  O   -0.92367581023008     -2.17975689264698     -0.96045633330408
  C   1.49517250083720      0.42152305701954      1.29930383965861
  N   2.06885974403286      1.00078067942900      2.14519080918776
  N   1.21113014281590      0.09187000427389     -1.13954980949687
  H   1.26023393929110      1.09823945355874     -1.21694562573466
  H   2.09243984037589     -0.31996841588989     -1.41422905519939
