15
Coordinates from ORCA-job run
  C   -0.62765456431563     -0.20595389583024     -0.46928726298920
  C   0.87144689367092     -0.28594293134172     -0.12745033860842
  Br  -0.94496492192194     -0.67382905765471     -2.28659391469884
  H   1.18708681717425     -1.26276588868708     -0.50437722827095
  N   -1.37609017191446     -1.18320448473495      0.44287636541950
  O   -0.98436173755624     -2.33818295349220      0.37210884407030
  O   -2.24821081593001     -0.72585919153369      1.16648651365911
  N   -1.19311569718555      1.17798780549436     -0.16860436068046
  O   -0.55599239178640      1.82889106045284      0.65434124418668
  O   -2.23379347592682      1.49692749638006     -0.71639084815954
  C   1.08011103767056     -0.30589837613354      1.33279556406977
  N   1.31242955663004     -0.33871438482063      2.48411678000433
  N   1.58255773810231      0.74957596545387     -0.83971885564089
  H   2.53137704454745      0.46069378678355     -1.03380343575659
  H   1.59717468874152      1.60727504966408     -0.30349906660481
