15
Coordinates from ORCA-job run
  C   -0.56576818063866     -0.36221295454510     -0.46814101137623
  C   0.89610036679736      0.05449655114719     -0.24549936796799
  Br  -0.72400073584950     -1.66519911758741     -1.85100130428001
  H   1.25016427034698      0.32725547671498     -1.24455924630793
  N   -1.23017084792322     -0.87732406049270      0.80248187355792
  O   -0.61293272742023     -0.67947928926335      1.84489965365848
  O   -2.32374647499707     -1.40249853913879      0.68102668568138
  N   -1.31037919992557      0.92283859788152     -0.85750021181470
  O   -2.15569839424181      1.33202020736610     -0.07954518681653
  O   -0.93275280922228      1.43195825623947     -1.89870336202217
  C   1.68610325768240     -1.10081793171095      0.21252471258178
  N   2.36727052819487     -1.98831067982226      0.57092239221311
  N   0.95229942895366      1.23741449875936      0.58164670442403
  H   0.91197043637378      1.00169715578181      1.56354364709903
  H   1.79054108186928      1.76816182867014      0.38790402136983
