15
Coordinates from ORCA-job run
  C   -0.50452158171942      0.02768983837885     -0.38360932890271
  C   0.82362704887827      0.06273834507546      0.42396941909117
  Br  -0.27088142032326      0.48227472185891     -2.21119782570754
  H   0.56194933078552     -0.31563110793996      1.41727877231636
  N   -1.16667215775001     -1.34707939727030     -0.29449018357500
  O   -0.52642069829673     -2.24151571665255      0.24635213350789
  O   -2.29087120333060     -1.42251834990478     -0.76439345065519
  N   -1.50755338704916      0.94760080663638      0.32320749549905
  O   -1.77719303690785      0.55236307937631      1.45362669030940
  O   -1.89956118269260      1.95559316285015     -0.23403257684721
  C   1.20650489654404      1.47412589583825      0.55647388813326
  N   1.51115412972787      2.60458742262125      0.64561315942032
  N   1.92842603445789     -0.69984084878735     -0.08322168690565
  H   1.70625232946349     -1.68547103908389     -0.08926780044953
  H   2.20676089821255     -0.39391681299672     -1.00630870523463
