15
Coordinates from ORCA-job run
  C   -0.62117944419345     -0.21744863210680     -0.47270794173133
  C   0.87065397672943     -0.29989580884734     -0.10075484058843
  Br  -0.91110977485381     -0.75466567512190     -2.27545595721190
  H   1.18257286084397     -1.29317280691176     -0.43542474740492
  N   -1.39784631437916     -1.14841850233413      0.46358346041861
  O   -2.28223592714378     -0.65396028492362      1.14669636181871
  O   -1.01623452455617     -2.30886268589113      0.44951383651788
  N   -1.17493949382434      1.18358045581994     -0.23781427801004
  O   -0.54984198141429      1.85539069455859      0.57771683203580
  O   -2.19797980734465      1.49545085812623     -0.82187786454521
  C   1.05329109044331     -0.26920040381232      1.36294166717557
  N   1.26525339437069     -0.26561476567318      2.51860996661515
  N   1.60514759194836      0.70124844422560     -0.83771004809304
  H   2.55431008439962      0.39626558213413     -1.00376321411593
  H   1.61913826897427      1.57830353075767     -0.33355323288093
