15
Coordinates from ORCA-job run
  C   -0.62363508998314      0.12529820038839     -0.29235763463468
  C   0.78594145169560      0.06177064776440      0.30366234011481
  Br  -0.67436992137407      0.98727328203685     -1.98315222170162
  H   0.66277081506714     -0.34934639697701      1.30908564475748
  N   -1.12353431642219     -1.32759738815359     -0.36388847969226
  O   -1.20261409570558     -1.84327115091212      0.74444389413208
  O   -1.37343297624106     -1.82377269414927     -1.44324098400436
  N   -1.61246203717013      0.80242462551154      0.65276433957906
  O   -1.15175396990459      1.27430355546710      1.68481763335691
  O   -2.78069283025043      0.78177663864672      0.29680625470602
  C   1.37140481101333      1.40629891631171      0.41578119239383
  N   1.92734911350024      2.44023650649242      0.46640835553178
  N   1.55366696818987     -0.87850259942784     -0.48835351636006
  H   1.88870854921866     -0.44698679429304     -1.34141526106928
  H   2.35065352836635     -1.20990534870626      0.03963844289029
