15
Coordinates from ORCA-job run
  C   -0.57582506122075     -0.24885426950644     -0.38888635419123
  C   0.94175561006620     -0.32188285659383     -0.05562707572217
  Br  -0.87709575759015     -0.70279335219106     -2.21970303495666
  H   1.25830753963473     -1.32056724374525     -0.36921971053374
  N   -1.40592907630984     -1.20929252600345      0.45069548971984
  O   -0.80899130534732     -2.19737555554677      0.85901659643893
  O   -2.58855219399602     -0.93653940563991      0.58284957439282
  N   -1.07011594456540      1.15436043075168     -0.06442565871308
  O   -1.12065520917341      1.37783762054461      1.14015502059739
  O   -1.28656898832438      1.93264635998851     -0.97913559793051
  C   1.16861702446211     -0.22625050836137      1.39185531572420
  N   1.40405766239033     -0.16287547470516      2.54029603391615
  N   1.74940230090548      0.66276908329314     -0.72942263955268
  H   1.66582762633559      0.59486411088404     -1.73483401069007
  H   1.54476577273284      1.60595358683124     -0.42561394849917
