15
Coordinates from ORCA-job run
  C   -0.64142684841358      0.08306556932732     -0.27026003345463
  C   0.79949386974925      0.10691479318882      0.24922884764597
  Br  -0.80211408406311      0.75268077034081     -2.03945187653460
  H   0.73896116250748     -0.19167365537227      1.29922890435332
  N   -1.11206270823397     -1.37655513715257     -0.15435749144601
  O   -1.12525830562608     -1.76594734261795      1.00707126836774
  O   -1.39818246300451     -1.99580266143960     -1.15829619231357
  N   -1.59199338287119      0.84548322905055      0.64913185778440
  O   -1.08543708525815      1.43939354772185      1.59302939962714
  O   -2.77756443810871      0.76286364187622      0.36715365541029
  C   1.36168017425085      1.46453258785041      0.18313874884033
  N   1.89891659543617      2.50616691433820      0.10035375489262
  N   1.54296823412896     -0.90376135104333     -0.47549893127438
  H   1.82081226820972     -0.56666859130601     -1.38950638128079
  H   2.37420701129688     -1.16269231476244      0.04003446938214
