15
Coordinates from ORCA-job run
  C   -0.67095459689229     -0.23662476883410     -0.38844090941569
  C   0.85328686094803     -0.30993356682338     -0.18409965440371
  Br  -1.16370946903936     -0.85538502660991     -2.11948765885228
  H   1.12403881392746     -1.32087092664184     -0.50128731890706
  N   -1.33572349707298     -1.11921237361355      0.67294262483447
  O   -0.96112098402873     -2.28202393265038      0.66695195554417
  O   -2.13089945596265     -0.58721731202100      1.43320109265538
  N   -1.19546741467585      1.17680403866404     -0.15829632902199
  O   -0.47758172707358      1.88719474693065      0.53941579896857
  O   -2.28198908038613      1.46243807542621     -0.63017032637219
  C   1.20020944314868     -0.20624240737540      1.24623374043557
  N   1.54237511529572     -0.13938304199505      2.36829906438430
  N   1.50109375832157      0.64801091012890     -1.04844594028835
  H   2.42593621317062      0.32987727208010     -1.30292052431118
  H   1.57050602031947      1.54956831333470     -0.59489561524999
