15
Coordinates from ORCA-job run
  C   -0.53507199647908      0.02423144042754     -0.34028833231722
  C   0.85195161527958      0.07929540750835      0.35992188126925
  Br  -0.47085275979027      0.58269244297512     -2.15283900253700
  H   0.68833235510019     -0.36005208049409      1.34914704777146
  N   -1.12889844520735     -1.38294307320549     -0.27446383565077
  O   -2.28140819670555     -1.48778042577678     -0.66298451865192
  O   -0.41171997597903     -2.27171087859491      0.17063509351697
  N   -1.51469000598888      0.85937005930839      0.49343390420818
  O   -1.98940807842205      1.87771040951568      0.02677803245396
  O   -1.67710582380596      0.39252142871064      1.61705226699783
  C   1.18587517714863      1.49819851907124      0.53710266663808
  N   1.44992026495771      2.63534348432381      0.66352945769410
  N   1.94191948659489     -0.60608159329580     -0.27378888738041
  H   2.13137710769903     -0.24159297473909     -1.19804891028673
  H   1.76077927559816     -1.59920216573460     -0.31518686372578
