15
Coordinates from ORCA-job run
  C   -0.58856112936037     -0.22252826103981     -0.36874391228500
  C   0.93630558136414     -0.29989200750817     -0.07200240615899
  Br  -0.94577488848240     -0.75715140448843     -2.16750439197742
  H   1.19165917367204     -1.34151094445370     -0.29756939920726
  N   -1.29322020976481     -1.16688506032656      0.61084627848647
  O   -1.04765006817921     -2.35224019135064      0.44780025745840
  O   -1.95223407102635     -0.64768524956491      1.50010924421178
  N   -1.17737098491669      1.16100829745501     -0.13436123912756
  O   -0.43351749436500      1.97749939171846      0.40146133202482
  O   -2.33683680184491      1.32809755348786     -0.47469109224243
  C   1.16019057453730     -0.10792854765230      1.36768305794791
  N   1.34673908902471      0.00082782771518      2.52177312776511
  N   1.79731005624414      0.55814120376574     -0.83520385207575
  H   1.58045381493502      1.53254426841839     -0.67861092940126
  H   1.76450735816242      0.33770312382389     -1.82098607541884
