15
Coordinates from ORCA-job run
  C   -0.72896092491252     -0.26620340324544      0.26423444976892
  C   0.80470268429789     -0.33003253364948      0.33374863168173
  Br  -1.53669493275953     -1.10301777955177      1.77505070933755
  H   1.01859075552430     -1.38998372451487      0.50295883341202
  N   -1.25309900148377      1.15738421004562      0.12357039452065
  O   -2.45461726117337      1.31967690154546      0.25149240606230
  O   -0.41302958835914      2.01089037303381     -0.14552677995445
  N   -1.11846949994842     -1.00237513631452     -1.02528074891684
  O   -0.81835084979568     -2.18368915197998     -1.04524488053060
  O   -1.63420212435440     -0.33897171663573     -1.90915074359376
  C   1.28792663952143      0.42124999543974      1.50499674466984
  N   1.73715432954836      1.02195895989855      2.40917604260669
  N   1.37419590183893      0.03831829026957     -0.94066516534088
  H   1.45769647561163      1.04140287103286     -1.03107349476417
  H   2.27715739644427     -0.39760815537383     -1.06828639895900
