16

C	-0.379822	-0.004872	-1.468322
C	0.0	0.0	0.0
Cl	0.484664	1.207567	-2.367707
H	1.093806	0.0	0.0
N	-0.066802	-1.385162	-2.064563
O	-0.997453	-2.029827	-2.531739
O	1.103513	-1.718217	-1.986583
N	-1.885294	0.185384	-1.690965
O	-2.262747	0.607857	-2.773638
O	-2.591031	-0.117595	-0.73498
C	-0.426629	-1.235722	0.652653
N	-0.736166	-2.209876	1.241947
N	-0.47198	1.219	0.606609
H	-1.416753	1.109961	0.954467
H	0.139264	1.485719	1.369417
Br	2.751301	0.0	0.0
