16

C	-0.48246	0.017713	-1.449721
C	0.0	0.0	0.0
Cl	0.437213	1.132847	-2.398295
H	1.093735	0.0	0.0
N	-0.381739	-1.391997	-2.054614
O	0.747549	-1.791607	-2.282143
O	-1.435543	-2.002802	-2.201138
N	-1.975636	0.361227	-1.532418
O	-2.40085	0.77952	-2.599174
O	-2.635813	0.135591	-0.524205
C	-0.459061	-1.196162	0.710553
N	-0.806766	-2.138294	1.321225
N	-0.377227	1.257729	0.623176
H	-1.203277	1.158823	1.194564
H	0.402343	1.577858	1.181905
Br	3.352196	0.0	0.0
