16

C	-0.37699	0.008893	-1.471089
C	0.0	0.0	0.0
Cl	0.440665	-1.24864	-2.355333
H	1.094604	0.0	0.0
N	-1.889808	-0.10791	-1.724033
O	-2.617099	0.074456	-0.752851
O	-2.254412	-0.361922	-2.860067
N	-0.002219	1.38922	-2.038809
O	1.187606	1.621503	-2.114942
O	-0.931343	2.13433	-2.326447
C	-0.449213	-1.246926	0.621071
N	-0.778988	-2.233178	1.168038
N	-0.435693	1.223596	0.6361
H	-1.390374	1.159393	0.959606
H	0.194273	1.433984	1.399624
Br	3.130334	0.0	0.0
