17

C	-0.324456	0.019161	-1.503756
C	0.0	0.0	0.0
Cl	0.064863	-1.688772	-2.14823
H	1.090917	0.0	0.0
C	-1.750425	0.186987	-1.812371
N	-2.886246	0.322057	-2.08233
N	0.448046	1.029852	-2.103065
H	0.388835	1.017863	-3.112824
H	1.418689	0.969475	-1.789539
C	-0.606299	-1.118734	0.812105
H	-0.103144	-2.052864	0.570952
H	-1.678292	-1.214117	0.633397
H	-0.446908	-0.912614	1.872171
N	-0.456798	1.322163	0.546589
O	0.36622	2.224727	0.648514
O	-1.648147	1.407767	0.86035
Br	3.464384	0.0	0.0
