17

C	-0.310644	0.10188	-1.502878
C	0.0	0.0	0.0
Cl	-1.973436	-0.473351	-1.950317
H	1.109531	0.0	0.0
C	-0.251426	1.502347	-1.959131
N	-0.153421	2.597932	-2.373996
N	0.636636	-0.761183	-2.153717
H	0.613389	-0.626584	-3.156348
H	1.578605	-0.574525	-1.797397
C	-0.498632	-1.274518	0.648845
H	-1.586092	-1.269042	0.748538
H	-0.192325	-2.117325	0.028269
H	-0.029925	-1.373637	1.630198
N	-0.519122	1.169262	0.756506
O	0.231008	1.711293	1.561964
O	-1.698848	1.476321	0.562189
Br	3.458467	0.0	0.0
