15

C	0.0	0.0	0.0
C	-0.430614	0.044745	-1.45752
F	1.401231	0.0	0.0
H	0.247456	-0.625163	-1.998802
H	-0.298993	-0.958082	0.440712
H	-0.241026	1.056671	-1.836909
C	-0.519692	1.139725	0.839329
H	-0.143256	1.066692	1.862412
H	-1.612073	1.112055	0.864293
H	-0.196223	2.094341	0.414917
C	-1.877158	-0.371529	-1.699221
H	-2.117232	-0.313509	-2.764107
H	-2.616868	0.222574	-1.162265
H	-2.042179	-1.404879	-1.38332
Cl	-5.004581	0.0	0.0
