17

C	0.081385	0.005138	-0.034764
C	-0.523277	-0.462498	-1.399872
Cl	1.735402	-0.713101	0.141285
H	0.291749	-0.351836	-2.126392
C	0.283366	1.455505	-0.081415
N	0.428298	2.620666	-0.137714
C	-0.757436	-0.385453	1.169034
H	-0.336044	0.042198	2.080822
H	-0.769012	-1.471449	1.248657
H	-1.788966	-0.054805	1.036371
N	-1.651995	0.329156	-1.846523
H	-2.490062	0.075475	-1.323409
H	-1.485089	1.325947	-1.784305
N	-0.853916	-1.864982	-1.282729
H	-1.757292	-1.931275	-0.808269
H	-1.015213	-2.212177	-2.22133
Cl	-3.994669	-1.251786	0.013648
