17

C	0.088297	0.002592	-0.02944
C	-0.527368	-0.15831	-1.458651
Cl	1.727208	-0.770019	-0.015831
H	0.288775	0.08458	-2.150884
C	0.320264	1.426258	0.226394
N	0.48865	2.57446	0.413609
C	-0.757595	-0.613404	1.070858
H	-0.79182	-1.691666	0.922607
H	-0.327451	-0.393262	2.049768
H	-1.781907	-0.241106	1.014289
N	-1.640047	0.731561	-1.724464
H	-2.481605	0.391987	-1.258746
H	-1.451827	1.690306	-1.45852
N	-0.887295	-1.547405	-1.634067
H	-1.791783	-1.692508	-1.179742
H	-1.056209	-1.688245	-2.623605
Cl	-4.015298	-1.152654	-0.22324
