17

C	0.064844	0.004759	0.001559
C	-0.574984	0.095921	-1.404931
Cl	1.678917	-0.802013	-0.137141
H	0.181766	0.557465	-2.049728
C	0.336383	1.354996	0.504518
N	0.607396	2.408508	0.948188
C	-0.789717	-0.780581	0.983017
H	-1.784336	-0.338343	1.053659
H	-0.900584	-1.801391	0.620234
H	-0.317735	-0.792126	1.967198
N	-1.69949	1.016807	-1.287106
H	-1.916108	1.383984	-2.206501
H	-2.521261	0.482423	-0.995501
N	-0.841116	-1.2457	-1.892395
H	-1.756683	-1.532946	-1.540055
H	-0.927744	-1.209166	-2.901167
Cl	-4.001273	-1.362576	-0.694021
