13

C	-0.435537	0.049354	-1.413381
C	0.0	0.0	0.0
Br	-2.630931	0.631895	-1.403228
H	1.089264	0.0	0.0
H	-0.11746	0.977171	-1.874504
H	-0.315256	0.894623	0.530766
N	-0.244648	-1.039078	-2.20744
H	-0.550299	-0.934172	-3.161428
H	-0.495547	-1.911236	-1.765655
N	-0.488504	-1.130392	0.782848
O	-0.703429	-2.214626	0.2207
O	-0.601396	-0.968359	1.997836
F	2.492026	0.0	0.0
