13

C	-0.131231	0.016304	-1.504022
C	0.0	0.0	0.0
Br	-2.004337	-0.161752	-2.145884
H	1.090854	0.0	0.0
H	0.14632	1.028664	-1.805234
H	-0.4242	0.867221	0.502001
N	0.732704	-0.913262	-2.192548
H	1.640989	-0.740503	-1.738551
H	0.454937	-1.840357	-1.88959
N	-0.514485	-1.185488	0.680128
O	-0.871737	-1.051611	1.853751
O	-0.536173	-2.265506	0.080057
F	2.580586	0.0	0.0
