13

C	-0.172248	-0.152799	-1.502631
C	0.0	0.0	0.0
Br	-1.983834	-0.988299	-2.003912
H	1.091436	0.0	0.0
H	-0.342225	0.839853	-1.929768
H	-0.483975	0.886338	0.397237
N	0.906842	-0.871731	-2.049872
H	1.102166	-0.589718	-2.999385
H	1.73233	-0.744006	-1.435226
N	-0.462045	-1.142676	0.796412
O	-1.128215	-0.895543	1.808196
O	-0.131955	-2.270702	0.442429
F	2.626443	0.0	0.0
