13

C	0.0	0.0	0.0
C	-0.538192	-0.021768	-1.404381
Cl	1.854971	0.0	0.0
H	-0.304542	0.940205	-1.890893
H	-0.267414	-0.926844	0.502607
H	-1.629632	-0.077886	-1.244024
N	-0.480012	1.10797	0.713614
H	-0.156853	1.987714	0.341283
H	-0.331142	1.050351	1.707776
N	-0.061426	-1.192551	-2.134868
H	-0.680228	-1.363365	-2.916527
H	0.868055	-1.020261	-2.497521
H	-3.67272	0.0	0.0
