13

C	0.0	0.0	0.0
C	-0.554454	-0.109734	-1.394425
Cl	1.85469	0.0	0.0
H	-1.642775	-0.158223	-1.217122
H	-0.264431	-0.895862	0.559818
H	-0.331691	0.818993	-1.946026
N	-0.486066	1.14563	0.647602
H	-0.18973	2.009466	0.218913
H	-0.349624	1.150973	1.644578
N	-0.089027	-1.324279	-2.055607
H	-0.726876	-1.545253	-2.812089
H	0.830625	-1.167092	-2.45213
H	-3.742784	0.0	0.0
