15
Coordinates from ORCA-job run
  C   0.87833687866999     -0.32946526099209     -0.15698147331194
  C   -0.54232057890364      0.06939424628085     -0.57473634135182
  Cl  1.80811392122159     -0.70664707223665     -1.61345413681102
  H   -0.95049293147532     -0.70714072119169     -1.22037487355587
  N   0.83241955299649     -1.62425793289579      0.66648207654565
  O   -0.02945120030823     -2.42204935320811      0.32733479154772
  O   1.68245178834917     -1.75897348318117      1.53022279552154
  C   1.54598245477865      0.71672327924337      0.60053559141721
  N   2.05677940645537      1.63017824381999      1.13583304284938
  N   -0.53945670015141      1.32186673930547     -1.23025896443834
  H   -1.41572489554146      1.49628340207777     -1.70201580561828
  H   -0.31169451740193      2.09140302059580     -0.61233897348604
  N   -1.44760066909897      0.05536496490709      0.66040817478069
  O   -0.92022462990342      0.05949107597447      1.77072561868989
  O   -2.64711787968687      0.11082885150069      0.41761847722122
