15
Coordinates from ORCA-job run
  C   0.76470676141774     -0.46754230961514     -0.28051631667840
  C   -0.53557779355452      0.35356317921248     -0.57030818000511
  Cl  0.88928471855130     -1.82604773525360     -1.37936869738882
  H   -0.52586185271732      0.56882882143974     -1.63917978888592
  N   0.76574312963148     -0.96196760098884      1.19231837004149
  O   0.62740165008341     -2.14831716014359      1.40946714659477
  O   0.89172523878617     -0.05493235154169      2.00596633773586
  C   1.90076784269694      0.42929665017049     -0.42932576450636
  N   2.78134206553783      1.19007838316289     -0.59817817553720
  N   -0.75587841384827      1.53340125887948      0.17798299148079
  H   -0.57561234401834      1.41360073982513      1.16565298204952
  H   -0.23815984485630      2.31933054114312     -0.18849319234655
  N   -1.70976012776439     -0.56852207973714     -0.35096438400667
  O   -2.35604020394297     -0.90800838616206     -1.33431014978932
  O   -1.92508082600277     -0.87176195039127      0.81925682124193
