15
Coordinates from ORCA-job run
  C   0.92262581186898     -0.20111852729781      0.00745959895506
  C   -0.45595471275098      0.08068498058721     -0.64108942494750
  Cl  2.19104989347080     -0.05587337939789     -1.20603463359440
  H   -0.68012512260231     -0.76283318042221     -1.29725991421761
  N   0.99381485566843     -1.65583459531109      0.51576618911250
  O   0.64775381708121     -2.49961914391295     -0.29373261679673
  O   1.42191729117686     -1.82697115380771      1.64549262501275
  C   1.15862013093148      0.72376541702049      1.10455238967390
  N   1.26165786470756      1.54657933161924      1.93941567201275
  N   -0.47427912284284      1.30541905905849     -1.32570223489930
  H   -1.13696632893654      1.30944772029244     -2.08698045866250
  H   -0.64922538173640      2.08951161773455     -0.71268564532539
  N   -1.49065142635234      0.00505670976660      0.51009518096389
  O   -2.23075585291110      0.96693539854720      0.66455957968138
  O   -1.47748171677282     -1.02515025447656      1.17514369303122
