15
Coordinates from ORCA-job run
  C   0.85955645328667     -0.37029873925753     -0.16882371027302
  C   -0.55240605797486      0.07998146915880     -0.56373610923819
  Cl  1.73846012927525     -0.81797070543841     -1.63687377404804
  H   -1.00766857504928     -0.69192141173970     -1.18285942338019
  N   0.77763553455909     -1.64370473816275      0.68422078694982
  O   -0.12351216787206     -2.41198777634311      0.38039040720724
  O   1.63967130767081     -1.79585374899813      1.53308999019872
  C   1.58870738879614      0.66245986771115      0.54947584816721
  N   2.15041151265827      1.56510695735157      1.05104640195496
  N   -0.51157336437842      1.31699892563610     -1.24673520060642
  H   -0.23735991185505      2.08908867628089     -0.65127426496699
  H   -1.38998618841894      1.51884643052269     -1.70333181652276
  N   -1.42818921714276      0.13112076528515      0.69146177340381
  O   -2.62990763737681      0.22965840629931      0.47493769978873
  O   -0.87483920617804      0.13947562169396      1.78901139136512
