15
Coordinates from ORCA-job run
  C   0.67089925202602     -0.53048646773105      0.15186199970637
  C   -0.54479934572549      0.38453504010711     -0.18727914253145
  Cl  0.24463286973106     -2.03348120446511      0.93830393921946
  H   -0.13620434901673      1.34405727872698     -0.50798196479490
  N   1.48277900808020      0.35614879451439      1.14259812379733
  O   2.13525963642701      1.23904349670788      0.60169891206168
  O   1.33276320344759      0.15850579512554      2.33501324903097
  C   1.49648864308122     -0.76637566091965     -1.02072769249896
  N   2.10881206816277     -0.95251884884920     -2.00732848686282
  N   -1.50305030392273      0.56265889983972      0.83867402571756
  H   -1.29021904846144      1.34120864810455      1.44409821737316
  H   -1.67522061674197     -0.27934925210134      1.37192383981543
  N   -1.24916391487072     -0.15353024729717     -1.41355895864545
  O   -1.57356828301557     -1.33585374203027     -1.39459314584505
  O   -1.49840881920124      0.66643747026760     -2.29170291554332
