15
Coordinates from ORCA-job run
  C   0.45665485704857     -0.74325028055926      0.20271726306207
  C   -0.36867504742148      0.46475441770536     -0.26623023537936
  Cl  -0.52213364696221     -2.05439969109480      0.80339841526910
  H   0.35005977486601      1.23199112840843     -0.59261610183411
  N   1.31424503079573     -0.13422677320213      1.36854300919565
  O   2.23949623287570      0.57140980334026      0.99360472720083
  O   0.95256428919906     -0.34758312008976      2.51359173953232
  C   1.40730703408491     -1.19669969140898     -0.80041620067319
  N   2.20938930048280     -1.57367190791205     -1.57274467737248
  N   -1.32695951110484      0.85814805463859      0.71914665423328
  H   -1.72618776229499      1.75586963657194      0.47702738310025
  H   -0.94180503305627      0.88657331061329      1.65513428521290
  N   -1.15615764549883      0.14894157330508     -1.52734088831035
  O   -1.93300442757038      1.03792594624726     -1.85761105301335
  O   -0.95579344544379     -0.90478240656322     -2.11820432022356
