11

C	0.0	0.0	0.0
C	-0.206236	-0.029254	-1.539086
F	1.380088	0.0	0.0
H	0.446242	0.774524	-1.89758
H	-0.393995	0.892479	0.479297
H	0.268938	-0.960895	-1.861634
C	-0.424871	-1.220599	0.697117
N	-0.488272	-2.247772	1.265951
C	-1.453	0.084765	-2.294984
N	-2.135457	0.110363	-3.254848
Br	-3.23941	0.0	0.0
