11

C	0.0	0.0	0.0
C	-0.502609	0.325698	-1.400684
F	1.377269	0.0	0.0
H	-1.602389	0.346919	-1.350513
H	-0.365812	0.735233	0.718477
H	-0.186271	-0.459617	-2.092331
C	-0.411901	-1.353471	0.414523
N	-0.552547	-2.471224	0.74339
C	0.03111	1.606722	-1.850338
N	0.463958	2.635379	-2.213634
Br	-3.573936	0.0	0.0
