11

C	0.0	0.0	0.0
C	-0.500481	0.06255	-1.436668
F	1.377644	0.0	0.0
H	-1.597697	-0.014842	-1.400058
H	-0.373819	0.860807	0.55597
H	-0.232886	1.036743	-1.855894
C	-0.40277	-1.244444	0.68207
N	-0.547216	-2.273939	1.226713
C	0.087416	-0.985664	-2.264082
N	0.563279	-1.809758	-2.950901
Br	-3.56857	0.0	0.0
