11

C	0.0	0.0	0.0
C	-0.494807	0.166892	-1.430571
F	1.385285	0.0	0.0
H	-1.594212	0.198654	-1.388382
H	-0.363375	0.811423	0.632317
H	-0.179269	-0.694034	-2.025951
C	-0.408392	-1.30028	0.559104
N	-0.543134	-2.37945	1.000012
C	0.04544	1.386155	-2.022779
N	0.477268	2.363039	-2.509841
Br	-3.556587	0.0	0.0
