11

C	0.0	0.0	0.0
C	-0.501143	0.009995	-1.437532
F	1.377574	0.0	0.0
H	-1.598388	-0.06631	-1.399322
H	-0.372976	0.880973	0.524274
H	-0.234118	0.968368	-1.891962
C	-0.402457	-1.218759	0.72728
N	-0.548147	-2.229465	1.305672
C	0.086735	-1.067664	-2.226267
N	0.563724	-1.916812	-2.881093
Br	-3.568982	0.0	0.0
