17

C	-0.531656	-0.074763	-1.437388
C	0.0	0.0	0.0
F	-0.244295	-1.301858	-1.93262
H	1.094895	0.0	0.0
N	-1.923636	0.178279	-1.662933
H	-2.467478	-0.468356	-1.103816
H	-2.136757	1.124663	-1.369842
N	0.195502	0.94632	-2.307593
O	0.929941	0.539109	-3.190568
O	-0.068141	2.116693	-2.042135
C	-0.427339	-1.237433	0.801206
H	0.002255	-2.12795	0.344651
H	-1.515165	-1.342309	0.865911
H	-0.029621	-1.149751	1.812905
C	-0.504724	1.199361	0.66011
N	-0.969341	2.108219	1.242416
Cl	3.269834	0.0	0.0
