17

C	-0.352623	0.29006	-1.468547
C	0.0	0.0	0.0
F	-1.625688	0.761798	-1.580174
H	1.102543	0.0	0.0
N	0.528885	1.168821	-2.154361
H	1.487218	0.87549	-1.958842
H	0.408654	2.095503	-1.758129
N	-0.32742	-1.046418	-2.210897
O	0.783789	-1.475551	-2.494879
O	-1.400982	-1.602657	-2.415915
C	-0.559767	-1.299405	0.571124
H	-0.301481	-1.368399	1.628603
H	-1.645311	-1.353435	0.461761
H	-0.101351	-2.149661	0.063918
C	-0.436563	1.156171	0.77827
N	-0.809553	2.075456	1.407282
Cl	3.290557	0.0	0.0
