17

C	-0.249676	-0.160727	-1.491869
C	0.0	0.0	0.0
F	-0.160052	1.087801	-2.112779
H	1.106028	0.0	0.0
N	0.609397	-1.120807	-2.016325
H	1.566473	-0.943369	-1.70746
H	0.533825	-1.187617	-3.021444
N	-1.691519	-0.548124	-1.84464
O	-1.867027	-1.123178	-2.915782
O	-2.576383	-0.194636	-1.07089
C	-0.442725	-1.205328	0.832068
H	-1.527515	-1.250597	0.935151
H	-0.076395	-2.117442	0.35947
H	0.009892	-1.131312	1.822223
C	-0.516748	1.251809	0.532237
N	-0.936466	2.232154	1.023567
Cl	3.292975	0.0	0.0
