17

C	-0.462341	0.024327	-1.445079
C	0.0	0.0	0.0
F	0.115303	-1.051802	-2.093988
H	1.095881	0.0	0.0
N	-1.860519	0.067305	-1.618804
H	-2.308263	-0.668253	-1.090417
H	-2.083609	-0.017532	-2.60315
N	0.065236	1.239011	-2.208095
O	-0.161852	1.218538	-3.416642
O	0.623736	2.129521	-1.585862
C	-0.413766	-1.312632	0.68297
H	-1.494954	-1.39344	0.833657
H	-0.053126	-2.157061	0.095609
H	0.068444	-1.353353	1.660368
C	-0.530433	1.131943	0.750769
N	-1.001556	1.971703	1.423353
Cl	3.297076	0.0	0.0
