15

C	-0.474461	-0.051973	-1.435369
C	0.0	0.0	0.0
Br	0.282357	1.540103	-2.442891
H	1.093589	0.0	0.0
H	0.014649	-0.885274	-1.940009
N	-1.887851	-0.135198	-1.577319
H	-2.321942	0.655514	-1.112865
H	-2.155932	-0.117216	-2.553787
C	-0.361007	-1.303399	0.723257
H	0.06132	-1.269073	1.729876
H	-1.436177	-1.493035	0.777409
H	0.126862	-2.129174	0.19876
C	-0.570792	1.142715	0.685608
N	-1.07672	2.048938	1.241288
F	2.554314	0.0	0.0
