15

C	-0.406988	0.010909	-1.456438
C	0.0	0.0	0.0
Br	0.064206	1.725008	-2.31409
H	1.095453	0.0	0.0
H	0.257789	-0.69413	-1.970175
N	-1.821602	-0.204352	-1.674096
H	-2.115696	-0.999194	-1.119666
H	-2.001549	-0.403838	-2.651293
C	-0.298494	-1.361738	0.642746
H	0.216951	-1.398696	1.60417
H	0.138216	-2.147175	0.018787
H	-1.361699	-1.572697	0.810376
C	-0.584225	1.075301	0.773249
N	-1.029155	1.934017	1.442949
F	2.554027	0.0	0.0
