15

C	-0.105749	-0.074281	-1.518612
C	0.0	0.0	0.0
Br	-1.922483	-0.71899	-2.169559
H	1.100017	0.0	0.0
H	-0.10193	0.932822	-1.949474
N	0.919113	-0.95052	-1.982938
H	1.11348	-0.783926	-2.960405
H	1.761174	-0.74344	-1.406761
C	-0.455093	-1.255722	0.732923
H	-1.543636	-1.350514	0.754783
H	-0.031205	-2.12133	0.222162
H	-0.072855	-1.237258	1.756344
C	-0.58076	1.212561	0.533659
N	-1.060901	2.188102	0.982554
F	2.639496	0.0	0.0
