15
Coordinates from ORCA-job run
  C   -0.57377779977780      0.04084789579115     -0.21789058649172
  C   0.71752969901143     -0.34014384561217     -0.11081436490783
  N   -1.43901378112788     -0.66741969799398     -1.17932539999905
  O   -1.01581476186333     -0.85880910051952     -2.31638549502520
  O   -2.54594266655358     -0.99530266620072     -0.75331958798242
  C   -1.31032525199694      1.06928340203736      0.57176010007204
  H   -1.90473057660938      1.69443252229942     -0.09909607778843
  H   -2.00320872256462      0.58634091467431      1.26363505019059
  H   -0.63233158985924      1.71000231987414      1.13091862869305
  C   1.25404275971103     -1.39546131280654     -0.92073899354749
  N   1.80134979079207     -2.26151809340135     -1.50058720888097
  C   1.71206764453506      0.25093712161341      0.85308265387297
  H   2.13169477870673     -0.53960576784575      1.47991370425310
  H   2.53954645204749      0.70124794910953      0.29860211304418
  H   1.26991402554896      1.00616835898069      1.49924546449718
