15
Coordinates from ORCA-job run
  C   -0.57800892427555      0.07596729664053     -0.02414918115327
  C   0.73883457200754     -0.05829787461485      0.25120635996914
  N   -0.99694496389537      0.02733365172818     -1.43172938790649
  O   -1.96818168734772     -0.68453129123103     -1.68423347010358
  O   -0.36980632916975      0.70457783102253     -2.24559841841602
  C   -1.70955028056206      0.21774579803681      0.93529549672179
  H   -2.31790375394266      1.08707717955715      0.67114774657661
  H   -1.34033293712873      0.33815267859058      1.95315370905233
  H   -2.35322375022769     -0.66246896728816      0.88515683360875
  C   1.12095395648694     -0.00312153497303      1.63123438038624
  N   1.46723053918925      0.03979650356568      2.75596460917995
  C   1.85883660327951     -0.24191935124143     -0.73953492352941
  H   1.51952176129476     -0.72877744854220     -1.65240293186004
  H   2.27569059703185      0.72963008291586     -1.01576156450304
  H   2.65088459725970     -0.84116455416662     -0.28874925802297
