15
Coordinates from ORCA-job run
  C   -0.58007848557481      0.04996069726651     -0.03578594331039
  C   0.73179476704232     -0.06784035876785      0.26930434517335
  N   -0.96855723067727     -0.02681194202736     -1.45102708522776
  O   -0.50379862555078     -0.94215181289587     -2.12952289051944
  O   -1.75433946745805      0.83404768817394     -1.84514617219408
  C   -1.72091988700917      0.30850899341138      0.88755947452241
  H   -2.50591929047222     -0.43627457563327      0.73074850136480
  H   -2.15174134073425      1.29014230757267      0.68192549343525
  H   -1.39447913320574      0.26711103486572      1.92611310273060
  C   1.08341601341442      0.00610425346332      1.65648433712326
  N   1.40439789757401      0.06047863329416      2.78820240982684
  C   1.87078526032719     -0.28749340553820     -0.69219130793808
  H   2.06294190653120     -1.35727245120637     -0.80460737360088
  H   1.65386850205803      0.11555741741821     -1.68003281947318
  H   2.77362911373512      0.18493352060303     -0.30302407191269
