15
Coordinates from ORCA-job run
  C   -0.58026137941533      0.05046316473479     -0.02869740409156
  C   0.73667530584217     -0.05180506192463      0.25925057220908
  N   -0.97304611247410      0.12812687695751     -1.44238092970425
  O   -0.36577439517833      0.91397094672568     -2.16905882440836
  O   -1.90425112521032     -0.59834658982167     -1.78748239927728
  C   -1.73267220902950      0.04238924565702      0.91624421811020
  H   -2.33722531193874     -0.85270107731265      0.75849844814136
  H   -1.38656832216989      0.06770809461073      1.94893055900836
  H   -2.37288567090880      0.90983791385154      0.73358408086965
  C   1.09316684483268     -0.11748827941287      1.64564801138871
  N   1.41680049240451     -0.16882589172311      2.77670655429827
  C   1.88023387949831     -0.08187059557225     -0.72124783214026
  H   2.69287299369715     -0.68630466316962     -0.31624809860374
  H   1.57960861691216     -0.48809073556195     -1.68562654079512
  H   2.25432639313805      0.93093665196147     -0.88912041500507
