15
Coordinates from ORCA-job run
  C   -0.57935869057546      0.06684311485551     -0.02390538250047
  C   0.73955818557694     -0.04633211871907      0.25144125730642
  N   -0.99632712061574      0.02646280636564     -1.43250226988401
  O   -1.95498262595325     -0.69946446959769     -1.69304929144055
  O   -0.37833063628337      0.71987841689563     -2.23950482330361
  C   -1.71448897805728      0.17459541920304      0.93579124259365
  H   -1.34938215471136      0.28098543704855      1.95687878394111
  H   -2.34534771543476     -0.71347797574100      0.86618469721122
  H   -2.33435041677626      1.04009533341482      0.68692912434363
  C   1.11842368397363     -0.00416910059333      1.63263235848699
  N   1.46518192714390      0.03094489975095      2.75753585095297
  C   1.86387492230743     -0.19728451350910     -0.73996053270958
  H   2.66998158013997     -0.78047771432313     -0.29270896173832
  H   1.53619165917602     -0.68511427172402     -1.65662319701159
  H   2.25835638008960      0.78551473667319     -1.00913885624786
