15
Coordinates from ORCA-job run
  C   -0.53999056827280      0.28029183411539     -0.06953237415825
  C   0.78939680919993      0.10891611101424      0.09495871008191
  N   -1.04089809447364      1.63439188210799     -0.37307269577315
  O   -0.64391214380148      2.57021729011442      0.31646306457718
  O   -1.84929027184281      1.70763977862464     -1.29779460476451
  C   -1.62568641287836     -0.74088180444054     -0.04625346383351
  H   -2.05475315087361     -0.84710770701212     -1.04422760330157
  H   -1.26560702346087     -1.70919371616959      0.29253252916472
  H   -2.42815715971496     -0.41311612620059      0.61983581422902
  C   1.69967439105220      1.21047349801917     -0.02956113369171
  N   2.54062510065747      2.02748181207958     -0.13488744047862
  C   1.46250335552036     -1.21057601284392      0.36600116143026
  H   0.75020072571835     -2.01847441067199      0.51813193339771
  H   2.11572891882663     -1.47307803904112     -0.47007221240422
  H   2.09016552434359     -1.12598438969558      1.25647831552474
