17

C	-0.464561	-0.011225	-1.436631
C	0.0	0.0	0.0
Br	0.216999	-1.567465	-2.314424
H	1.089698	0.0	0.0
N	-1.991192	0.036183	-1.466007
O	-2.607578	-1.009081	-1.676116
O	-2.480057	1.157579	-1.321355
N	0.14249	1.129304	-2.273955
O	1.256297	1.519237	-1.933774
O	-0.56834	1.61403	-3.158568
N	-0.475526	-1.147691	0.828219
O	-1.705043	-1.306022	0.927426
O	0.382741	-1.938578	1.243411
N	-0.335911	1.223604	0.811952
O	-0.547277	1.058077	2.01534
O	-0.395326	2.296698	0.20794
F	2.481011	0.0	0.0
