17

C	-0.463466	-0.013945	-1.496246
C	0.0	0.0	0.0
Br	0.390133	-1.448371	-2.512194
H	1.114961	0.0	0.0
N	-1.937493	-0.21685	-1.670665
O	-2.315194	-1.369506	-1.184282
O	-2.335295	0.046602	-2.889032
N	-0.04793	1.290735	-2.103744
O	-0.816185	2.288253	-1.787967
O	1.254305	1.483625	-2.007919
N	-0.359971	-1.219301	0.771923
O	-0.209915	-1.04547	2.061932
O	0.198075	-2.291565	0.281159
N	-0.489817	1.1863	0.742345
O	0.338913	1.538002	1.711949
O	-1.743215	1.099137	1.068903
F	2.485904	0.0	0.0
