17

C	-0.470975	0.005029	-1.476225
C	0.0	0.0	0.0
Br	0.412514	1.422867	-2.511593
H	1.116056	0.0	0.0
N	-0.03928	-1.257151	-2.175362
O	-0.361111	-1.314933	-3.43705
O	1.224636	-1.534129	-1.902012
N	-1.946702	0.252234	-1.627596
O	-2.404314	0.031369	-2.841492
O	-2.287185	1.391347	-1.100821
N	-0.490387	-1.199557	0.724327
O	-1.742371	-1.113727	1.057233
O	0.342673	-1.572845	1.684332
N	-0.353604	1.207814	0.790162
O	0.17481	2.289566	0.285099
O	-0.161732	1.028989	2.07228
F	2.486192	0.0	0.0
