17

C	-0.481345	0.009704	-1.437798
C	0.0	0.0	0.0
Br	0.184001	1.469041	-2.458263
H	1.090636	0.0	0.0
N	-0.137603	-1.318146	-2.168988
O	-0.344111	-2.341823	-1.510545
O	0.380059	-1.279535	-3.283129
N	-2.003994	0.102913	-1.615059
O	-2.591087	0.775813	-0.768622
O	-2.52932	-0.583814	-2.499165
N	-0.473623	-1.15706	0.82872
O	0.401488	-1.81927	1.395084
O	-1.68228	-1.431647	0.806622
N	-0.338817	1.189713	0.878385
O	-0.22155	2.308547	0.384304
O	-0.727412	0.949398	2.02302
F	2.483966	0.0	0.0
