19

C	-0.501937	-0.018029	-1.458408
C	0.0	0.0	0.0
Br	0.362087	-1.567006	-2.339483
H	1.08986	0.0	0.0
N	-1.9279	-0.247677	-1.527152
H	-2.244883	-0.105945	-2.479499
H	-2.384956	0.426077	-0.920572
C	0.001469	1.220157	-2.195081
H	-0.229928	1.149204	-3.261215
H	1.080094	1.331728	-2.059316
H	-0.50351	2.10715	-1.797162
C	-0.53942	-1.112945	0.877797
H	-0.222337	-2.065665	0.45506
H	-0.103392	-1.025091	1.875298
H	-1.626895	-1.092349	0.941866
N	-0.423461	1.319187	0.587889
O	-1.64021	1.515211	0.737317
O	0.442182	2.140471	0.868229
Cl	3.374619	0.0	0.0
