19

C	-0.300917	-0.015788	-1.515529
C	0.0	0.0	0.0
Br	-2.245168	0.361225	-1.796582
H	1.095516	0.0	0.0
N	0.439051	0.944926	-2.29364
H	0.372005	1.850701	-1.841564
H	1.42221	0.674745	-2.211957
C	-0.016696	-1.397085	-2.082657
H	-0.135173	-1.348799	-3.166304
H	-0.687717	-2.154868	-1.680877
H	1.020017	-1.659155	-1.84159
C	-0.525341	-1.166027	0.806507
H	-1.604919	-1.288435	0.697575
H	-0.011289	-2.074019	0.490759
H	-0.29915	-1.010033	1.86144
N	-0.44651	1.289895	0.610976
O	0.029352	2.335293	0.162177
O	-1.277053	1.252205	1.5201
Cl	3.319682	0.0	0.0
