19

C	-0.411744	-0.033916	-1.468633
C	0.0	0.0	0.0
Br	-2.586396	0.240381	-1.450707
H	1.095343	0.0	0.0
N	0.18829	0.927229	-2.240323
H	-0.09855	0.939993	-3.206321
H	0.275473	1.834953	-1.808719
C	-0.260523	-1.407515	-2.086973
H	-0.514675	-1.35944	-3.148348
H	0.791095	-1.695431	-1.982788
H	-0.905468	-2.144588	-1.615131
C	-0.464303	-1.176379	0.830421
H	-1.549249	-1.289589	0.818699
H	-0.132151	-1.037296	1.857924
H	0.015203	-2.080378	0.454368
N	-0.412321	1.289896	0.647194
O	-0.099007	2.340085	0.082365
O	-1.014007	1.246884	1.716985
Cl	3.2877	0.0	0.0
