15

C	-0.502597	0.034092	-1.433426
C	0.0	0.0	0.0
Br	0.239351	1.668778	-2.270235
H	1.091047	0.0	0.0
C	0.056652	-1.074309	-2.229413
N	0.414251	-1.968228	-2.905775
N	-1.938878	0.140984	-1.500754
H	-2.238311	0.168318	-2.469986
H	-2.317562	-0.694968	-1.064287
N	-0.3884	-1.198981	0.702269
O	-0.045004	-1.274129	1.890806
O	-0.914476	-2.132374	0.055316
C	-0.399016	1.160869	0.764196
N	-0.681268	2.100004	1.413758
H	2.339199	0.0	0.0
