15

C	-0.27962	-0.042446	-1.502273
C	0.0	0.0	0.0
Br	0.181401	-1.956704	-2.146809
H	1.109106	0.0	0.0
C	-1.664762	0.135598	-1.930275
N	-2.755514	0.366016	-2.304155
N	0.572914	0.927863	-2.039668
H	0.565352	0.945773	-3.051191
H	1.522031	0.792181	-1.654432
N	-0.575163	-1.126909	0.778251
O	-1.658008	-1.586142	0.411448
O	0.066059	-1.492491	1.759342
C	-0.470062	1.232627	0.592795
N	-0.836941	2.219877	1.117743
H	2.532225	0.0	0.0
