15

C	-0.258343	-0.134724	-1.499551
C	0.0	0.0	0.0
Br	-2.149158	-0.954696	-1.838452
H	1.092564	0.0	0.0
C	-0.412582	1.190214	-2.112691
N	-0.454235	2.220959	-2.679657
N	0.74473	-0.909594	-2.09136
H	0.906704	-0.66952	-3.058614
H	1.606968	-0.853426	-1.52218
N	-0.328151	-1.209815	0.773667
O	0.019045	-2.279816	0.280237
O	-0.830566	-1.065089	1.891604
C	-0.578203	1.176074	0.599672
N	-0.986277	2.176907	1.064191
H	2.445281	0.0	0.0
