15

C	-0.293219	-0.131183	-1.484477
C	0.0	0.0	0.0
Br	-2.259652	-0.772319	-1.76735
H	1.110199	0.0	0.0
C	-0.326634	1.199349	-2.101522
N	-0.270822	2.22972	-2.667932
N	0.614105	-0.999357	-2.108906
H	0.810271	-0.734906	-3.0627
H	1.470269	-1.068186	-1.549122
N	-0.311307	-1.196445	0.786868
O	-0.747342	-1.040866	1.931935
O	0.004602	-2.276304	0.286965
C	-0.548881	1.184162	0.609097
N	-0.911003	2.194287	1.092073
H	2.40327	0.0	0.0
