15

C	-0.414128	-0.049959	-1.462485
C	0.0	0.0	0.0
Br	0.350512	1.688344	-2.266703
H	1.090886	0.0	0.0
C	0.252041	-1.083066	-2.259873
N	0.675684	-1.870018	-3.023105
N	-1.813035	-0.132458	-1.632411
H	-2.075659	-0.085111	-2.609637
H	-2.27866	0.601129	-1.111329
N	-0.327716	-1.217703	0.71428
O	-0.242171	-2.277784	0.076809
O	-0.485391	-1.139472	1.942103
C	-0.544507	1.149219	0.67857
N	-0.968737	2.113078	1.206121
H	2.338138	0.0	0.0
