17

C	-0.36511	0.018444	-1.483471
C	0.0	0.0	0.0
Br	0.307746	-1.651284	-2.284739
H	1.088469	0.0	0.0
C	-1.795365	0.097919	-1.770299
N	-2.928573	0.251511	-2.045783
C	0.418463	1.157942	-2.143737
H	0.364154	1.065232	-3.228563
H	0.004333	2.122206	-1.844424
H	1.447341	1.069453	-1.781995
N	-0.57741	-1.12147	0.776521
O	-1.42266	-1.848326	0.254871
O	-0.154374	-1.229213	1.925274
N	-0.51897	1.239607	0.655867
O	-1.620536	1.181332	1.207894
O	0.183628	2.244221	0.581441
F	2.497918	0.0	0.0
