17

C	-0.523039	0.006596	-1.428334
C	0.0	0.0	0.0
Br	-2.473539	-0.243118	-1.623553
H	1.091398	0.0	0.0
C	-0.193545	1.295358	-2.034915
N	0.148473	2.287322	-2.564936
C	0.169221	-1.095878	-2.231422
H	-0.114736	-1.011935	-3.283665
H	-0.123503	-2.075418	-1.857176
H	1.250478	-0.969705	-2.103836
N	-0.450884	-1.231946	0.723102
O	-1.36906	-1.118864	1.538782
O	0.203093	-2.245996	0.496022
N	-0.450737	1.154291	0.839492
O	0.127565	1.244022	1.917456
O	-1.223442	1.987043	0.348447
F	2.48948	0.0	0.0
