16

C	0.0	0.0	0.0
C	-0.439828	0.230156	-1.471569
F	1.339315	0.0	0.0
H	-1.300679	0.882098	-1.5603
N	-0.33024	1.299307	0.800022
O	-0.784692	2.284257	0.233404
O	-0.0113	1.228051	1.980116
C	-0.805334	-1.049048	0.628305
N	-0.776464	-2.044852	1.287621
N	-0.74244	-1.063878	-2.142491
O	-1.668457	-1.074025	-2.94768
O	0.019237	-1.994368	-1.88822
N	0.686009	0.849942	-2.282716
O	1.148953	1.89471	-1.84397
O	1.00115	0.312924	-3.34061
H	-2.171304	0.0	0.0
