13
Coordinates from ORCA-job run
  C   0.65935214200536     -0.01534003229574     -0.29488253332314
  C   -0.66016230649439     -0.72345860607824      0.04219057336222
  Br  1.74968741168161     -1.42623133895545     -1.30887461413005
  H   -0.41307035123366     -1.57096826920836      0.68862773250675
  H   -1.05729741064886     -1.13271385573084     -0.89498292804474
  N   1.31014900981335      0.49678166768808      0.83302419943139
  H   1.34707985934018     -0.16344786328412      1.59727388394310
  H   2.22088984963255      0.88744195913969      0.63543505996371
  C   0.43984939239115      1.04442477191275     -1.28042088732186
  N   0.20373465336745      1.90279864199071     -2.04753769701282
  N   -1.54760992893706      0.17603670384154      0.75955374772715
  H   -1.92584634882795      0.87410657559072      0.13011248694907
  H   -2.32575597208972     -0.34843035461075      1.13848097594923
