13
Coordinates from ORCA-job run
  C   0.64394616139538     -0.03663854313106     -0.32496652784184
  C   -0.67421151649830     -0.70146562166305      0.09819064593281
  Br  1.63522480190068     -1.49315106707120     -1.37724041138436
  H   -1.11865975965799     -1.14568194013473     -0.80052951378452
  H   -0.41506520322288     -1.52301033538013      0.77278912239495
  N   1.37558709832116      0.47052688262428      0.75474573305742
  H   2.27442863389611      0.85110995555036      0.49326856446279
  H   1.46222035925768     -0.19142441630533      1.51331862328848
  C   0.39537258160460      1.01493970041399     -1.31154065897865
  N   0.13773304924432      1.86668768715439     -2.07909748862645
  N   -1.51378668398180      0.25027620498811      0.80392817020571
  H   -1.96274276935253      0.87976563216296      0.14987822576642
  H   -2.24004675290645     -0.24093413920858      1.30825551550724
