13
Coordinates from ORCA-job run
  C   0.73008321980902     -0.04031245559584     -0.41790948117951
  C   -0.58190955238738     -0.74420818223783     -0.02512352888594
  Br  1.81022292322796     -1.31409268628737     -1.44182708958854
  H   -0.31195513326072     -1.59478446671425      0.60641710916710
  H   -1.07455862154408     -1.13006435733661     -0.92610300852685
  N   1.52009098233790      0.44382748968436      0.68963728017924
  H   0.88356799807360      0.96534153420753      1.28826960207731
  H   1.87205960330009     -0.35020172748531      1.21434816273604
  C   0.40058771828858      1.08523310749733     -1.30049625800907
  N   0.04880646674413      1.97984939060337     -1.97600590658474
  N   -1.37126491419207      0.20618176553298      0.74744413780454
  H   -1.95372655582458      0.76694893141159      0.13837671446414
  H   -1.97300413457244     -0.27171834327996      1.40397226634628
