13
Coordinates from ORCA-job run
  C   0.61737786382203     -0.03933955427888     -0.34408046532445
  C   -0.72961249476611     -0.70441846139908     -0.06261412030968
  Br  1.72983460298709     -1.41318357065647     -1.34389996196795
  H   -1.13764437439145     -1.08142685877624     -1.00136457312008
  H   -0.52992341355720     -1.57220403413830      0.58636481631039
  N   1.21932667681458      0.38337417694094      0.86695778436169
  H   1.42766228099641     -0.40985377267662      1.46216201832494
  H   2.06293902703451      0.92135991888830      0.71425759811904
  C   0.47880591482040      1.09051000826458     -1.26119548789265
  N   0.39744985139223      1.99547550461638     -2.00527227601609
  N   -1.62085584758808      0.30197051392708      0.47868552934952
  H   -1.34172889143203      0.55849004956392      1.41551455696975
  H   -2.57463119613238     -0.03275392027559      0.49348458119557
