13
Coordinates from ORCA-job run
  C   -0.52003942605754     -0.13699067106018     -0.61633917884867
  C   0.74731313578284     -0.71178956335260     -0.01787642121465
  F   -1.14369393721117     -1.05299055828060     -1.41563109648280
  H   1.43669131795227     -0.89181640945359     -0.84642226542053
  H   0.49010478780669     -1.67559580363500      0.42889725195101
  C   -0.27274605091226      1.09567247714516     -1.36707492599468
  N   -0.01908368606540      2.03343365739176     -2.02622899769436
  N   -1.52088652864734      0.16642552616273      0.50183344766937
  O   -2.32862454051329      1.06262964559078      0.29453946785307
  O   -1.47469391920440     -0.57312279595349      1.47853903516997
  N   1.27103396534389      0.26890219576379      0.91272543816695
  H   2.26386232163815      0.40583311071037      0.80279273123711
  H   1.07176256008756      0.01140918897087      1.86824551360821
