13
Coordinates from ORCA-job run
  C   -0.52339821586374     -0.18570023196601     -0.61781175260241
  C   0.73483541506808     -0.69992472227333      0.05884146946602
  F   -1.05240731535832     -1.14520645342031     -1.42709268972278
  H   0.44119336670332     -1.60604743258470      0.59143371407675
  H   1.44162838563889     -0.97858123513105     -0.73242157672223
  C   -0.27942760312327      1.03949301765587     -1.38301871187611
  N   0.00824420971328      1.97042531515992     -2.03851743875372
  N   -1.56288149196674      0.09756326070461      0.46648528589151
  O   -1.87422501497307     -0.87975474937947      1.13343026082846
  O   -1.98811504315841      1.23890772028614      0.57416033147393
  N   1.19163583406240      0.31621171489628      0.98465923162349
  H   1.57944592893962     -0.09046988682021      1.82245082944955
  H   1.88247154431796      0.92408368287224      0.56740104686756
