13
Coordinates from ORCA-job run
  C   -0.44554966263398     -0.05436303231618     -0.47098319966916
  C   0.58000642351150     -0.24077079373441      0.63619865707026
  F   -0.21470783669954     -0.94782609523139     -1.46386039760915
  H   0.43432010338652     -1.25755429209939      1.02921017484794
  H   0.34906909585716      0.47132444744446      1.42946956377254
  C   -0.46817061092399      1.30467994038079     -1.01425082672655
  N   -0.49099061701904      2.39555322535704     -1.44762105230255
  N   -1.82971003330412     -0.35043460906257      0.11378058765199
  O   -2.39336791085628     -1.36633003050023     -0.25859860518567
  O   -2.21016184774902      0.45972838208074      0.94972275783650
  N   1.88791774472270      0.02951003225768      0.07906214232699
  H   2.27125701138039     -0.78932849085166     -0.37114320728898
  H   2.53108814032768      0.34481131627513      0.79001340527582
