17
Coordinates from ORCA-job run
  C   -0.57365340282867     -0.32737219630258     -0.49786976582594
  C   0.55218363819484      0.15893796571787      0.42453098860343
  Cl  -0.02918835112904     -0.37261533889136     -2.20271159815794
  H   0.08340075148222      0.15420165402511      1.43165972248286
  N   -0.87476851560726     -1.71237853579490     -0.14110823150943
  H   -1.46622063052546     -2.13458649731107     -0.84791089110964
  H   -1.38294683754714     -1.71234884493797      0.73814958759400
  N   -1.66826129792771      0.62038861482351     -0.44489243659804
  H   -2.01892695356096      0.67072792379011      0.50629223194669
  H   -2.42089401985879      0.31501655653768     -1.05142470621777
  C   1.00983860829886      1.57584517379441      0.12402670047375
  H   1.76329244000931      1.88047894058580      0.85635626730661
  H   1.46669060012581      1.60547021528912     -0.86536295431114
  H   0.18057255702522      2.28102407312912      0.15886461396337
  N   1.67926233796418     -0.75107102694983      0.32512018319221
  H   2.34867870498767     -0.54824805374913      1.05657215647336
  H   1.35094037089691     -1.70347062375589      0.42670813169362
