17
Coordinates from ORCA-job run
  C   -0.79549094253569     -0.31740638930635     -0.15908985509948
  C   0.44494100567340      0.17090192533137      0.59080900153906
  Cl  -1.48829329855081     -1.75948552102271      1.06718362767275
  H   0.10892646731788      0.48017744003539      1.59098856652247
  N   -1.80138185082026      0.65738221883952     -0.24551425385234
  H   -2.15438236478955      0.89192165426798      0.67275940590523
  H   -2.57271879711792      0.35513114741729     -0.82675457495184
  N   -0.45931860673959     -0.87923336659320     -1.38250662044797
  H   -1.21843560077156     -1.38171152120540     -1.82119512110292
  H   0.35844743260828     -1.46650246055711     -1.26608152963888
  C   1.05908694402479      1.36500893783729     -0.12871720119465
  H   1.42169052968802      1.06239901190739     -1.11179714883565
  H   0.32500749287181      2.15882036737096     -0.25687889705740
  H   1.89919591138356      1.75552045862981      0.45360204337146
  N   1.41326976137195     -0.92015361482351      0.62647695130895
  H   2.32443981473019     -0.56187481219011      0.88220362524540
  H   1.13401610165551     -1.60889547593861      1.31451198061579
