17
Coordinates from ORCA-job run
  C   -0.75596156311272     -0.48686981398058     -0.03547342258694
  C   0.48069069915274      0.17049612134860      0.59533928508800
  Cl  -1.41929179778804     -1.68076921413868      1.26261214393034
  H   0.15783869226316      0.49049751602351      1.59935474779358
  N   -1.75097600382369      0.50019782359821     -0.30785492145543
  H   -1.99534529059746      1.00375113966767      0.53843502635629
  H   -2.59583343948988      0.06141715740540     -0.65682661147108
  N   -0.41361335177473     -1.30531535023177     -1.14696112684335
  H   0.24684201380255     -0.82941944766129     -1.74647990531692
  H   -1.23418857830803     -1.57649056471378     -1.67379328614718
  C   0.93470964612613      1.40649259202565     -0.17445612236309
  H   0.16581992071988      2.17728130810819     -0.19978322974571
  H   1.20795927857120      1.14781168912379     -1.19944937183289
  H   1.82655084647229      1.81830130278788      0.30699387495654
  N   1.57451116208403     -0.78959579882064      0.62059728855646
  H   2.31399021250214     -0.43698872055286      1.21626917739463
  H   1.25629755320043     -1.67279773998930      1.00147645368675
