17
Coordinates from ORCA-job run
  C   -0.69313101514085     -0.32787875051637     -0.52152624820786
  C   0.43611872692649      0.09199729274746      0.43843519695157
  Cl  0.01213280583196     -0.42504771260699     -2.19392193345863
  H   -0.04489112783649      0.10199906872915      1.42826102118357
  N   -1.22992677952838     -1.64217552195441     -0.25084483428787
  H   -1.74930484893251     -1.59144173011459      0.62033050106855
  H   -0.44994665208826     -2.27686851971020     -0.10724104961496
  N   -1.71212755200887      0.68348745262660     -0.54822103983604
  H   -2.49278474315451      0.33983663465384     -1.09691174880341
  H   -2.03378092802111      0.86608686674415      0.39690319389223
  C   1.00750556880464      1.47701868538282      0.15613695956978
  H   1.72698959452633      1.74394603075843      0.93561716001485
  H   0.22670529444455      2.23721782875070      0.11995036711599
  H   1.52557235177835      1.48180626192491     -0.80479357492455
  N   1.42766264001081     -0.98132940047313      0.47987283082032
  H   2.01882113102510     -0.91729921469126     -0.34198082464801
  H   2.02338553336277     -0.86135527225108      1.28993402316446
