17
Coordinates from ORCA-job run
  C   -0.54313619203815     -0.34588451693855     -0.45677228377827
  C   0.52236500350827      0.16660303055578      0.53657405974087
  Cl  0.16184521444831     -0.47456151166831     -2.10626410250685
  H   0.00233793493990      0.17279981340720      1.50950507048230
  N   -0.88307498785471     -1.71226066522805     -0.07687428182019
  H   -1.45202630579801     -2.14726729257857     -0.79464728759590
  H   -1.42455393892372     -1.68107499763317      0.78171593721493
  N   -1.62348810396728      0.61132173511656     -0.54628415727470
  H   -2.01168280882848      0.76020131033831      0.37980447834265
  H   -2.35744887053012      0.26066694870126     -1.15157681182406
  C   0.98773052475119      1.58166568831893      0.23761271718060
  H   0.15704861852672      2.28451324054339      0.20843526936766
  H   1.49016057587059      1.61690165211637     -0.73209330867709
  H   1.70007904119366      1.88637831896371      1.00613491240032
  N   1.67002960663098     -0.71099689762288      0.67371239940790
  H   1.34251371067515     -1.67086493133558      0.67279336522736
  H   2.26230097739569     -0.59914092505637     -0.14177597588753
