17
Coordinates from ORCA-job run
  C   -0.90157930055870      0.03454780206672     -0.25294508399026
  C   0.32684470607613      0.35321840750587      0.61328957177986
  Cl  -1.76695178725579      1.55252454614401     -0.67813348028206
  H   -0.06737229347915      0.71565491356288      1.56709703908868
  N   -0.44364062377314     -0.54051639894693     -1.51301172603146
  H   -0.19411599665047     -1.50637091441174     -1.32683678633895
  H   -1.19884719998243     -0.53681055816175     -2.18912631955623
  N   -1.80555737143106     -0.75390463498945      0.54841540936042
  H   -1.27153760814454     -1.54391063007040      0.89668790546245
  H   -2.57641652523012     -1.08952698432369     -0.01770065920720
  C   1.26610352839126      1.38279079909844      0.00353047242468
  H   2.15564939030034      1.47814500490233      0.63195957517168
  H   1.56510072137504      1.06003782644089     -0.99573724666777
  H   0.80095090662679      2.36495345278105     -0.07900623447675
  N   0.97951238591672     -0.94598453108057      0.85402730053406
  H   1.41631553031870     -0.94790745473910      1.76692159326228
  H   1.71754153750041     -1.07594064577855      0.17056866946658
