17
Coordinates from ORCA-job run
  C   -0.70589823014388     -0.29711185575847     -0.39018263236550
  C   0.45482418215107      0.11366549800125      0.52704091688029
  Cl  -0.03998635244526     -0.33195458766903     -2.13126607870675
  H   -0.00808609588528      0.15275757679305      1.52138138721904
  N   -1.18105914298973     -1.56475051590010      0.01874924678533
  H   -0.39654022781174     -2.18741046905519      0.17661634263433
  H   -1.83277592917505     -1.95739480044983     -0.64831189289173
  N   -1.73663555813748      0.71863188100809     -0.40409058603484
  H   -2.37335101310466      0.50403535222822      0.35604169397630
  H   -2.25455443386115      0.68953402967408     -1.27287630046993
  C   1.03692878436224      1.48175107145305      0.20222195690183
  H   0.25077764787181      2.23351790444361      0.13863862265408
  H   1.57095851440714      1.45794662211536     -0.74976442651299
  H   1.74534640672773      1.77043567024170      0.98361769025542
  N   1.42706815662079     -0.98070818274240      0.55835262510716
  H   2.02261917389291     -0.91704030435584     -0.26053957282405
  H   2.02036411752055     -0.88690489002757      1.37337100739200
