17
Coordinates from ORCA-job run
  C   -0.63152481564164     -0.39730253521420     -0.34513264337308
  C   0.58678246801640      0.13932727818096      0.41647558350414
  Cl  -0.22231107626405     -0.53253735823752     -2.12623808043906
  H   0.25419023408795      0.09432241589894      1.46896159132558
  N   -0.88841355669832     -1.75453523808358      0.09598388468943
  H   -1.40323382127164     -1.70153686912300      0.96903577939532
  H   -1.44921898810646     -2.25185493667417     -0.58471934894114
  N   -1.76391059381234      0.45078677448810     -0.12932884352675
  H   -2.57542813285064      0.05901119818781     -0.59352206795342
  H   -1.60652036995849      1.37683495799467     -0.50782614226564
  C   0.93314716805053      1.58231260518236      0.08539161979555
  H   0.14910148238460      2.27502837758685      0.39931227303308
  H   1.12316569179840      1.68815160377245     -0.98377253441942
  H   1.84459916866946      1.86892339146346      0.61607523773628
  N   1.73392271625390     -0.71081914234079      0.14415585112994
  H   1.44981517957161     -1.67676129639893      0.26301323910825
  H   2.46583724577072     -0.50835122668342      0.81413460120091
