17
Coordinates from ORCA-job run
  C   -0.59932832270195     -0.44901160704120     -0.49588420915160
  C   0.51580132697938      0.12280756649129      0.39639796790107
  Cl  -0.04168101189794     -0.52468186946984     -2.19900557056029
  H   0.06260898047414      0.09999186509623      1.40977552073269
  N   -0.85052808080071     -1.80719776223917     -0.06736275334963
  H   -1.18394610212655     -1.78478402093102      0.89232125267997
  H   -1.59510144560738     -2.18581287319238     -0.64334731948357
  N   -1.82412268308802      0.33468999802443     -0.51773302171533
  H   -2.10899030550075      0.53132450499233      0.43708187757748
  H   -1.68124245918851      1.21619936470929     -0.99573676400937
  C   0.87698950176593      1.56496799866322      0.08099845674466
  H   1.24826776541558      1.63886164193092     -0.94163566185597
  H   1.67377439801748      1.89610125137509      0.75202488515449
  H   0.03136675862171      2.24207284678239      0.21804092250028
  N   1.70480096859548     -0.70579406518469      0.28910051249360
  H   2.33602194941408     -0.50604982089011      1.05507900642569
  H   1.43630876162804     -1.68168501911679      0.32888489791583
