17
Coordinates from ORCA-job run
  C   -0.76349223426935     -0.14623844816189     -0.21066473347259
  C   0.39528308756310      0.42372253373547      0.63470059728613
  Cl  -1.85218999540718      1.28679689492177     -0.69700523898929
  H   -0.04474960040103      0.86279708215422      1.53992141604473
  N   -0.26812072501427     -0.76465119665130     -1.41809002140062
  H   -0.44722910825456     -1.75922081619271     -1.39533808289490
  H   -0.66907904332567     -0.35926878690457     -2.24987782821842
  N   -1.49492997236547     -1.09523881908654      0.56038338450397
  H   -2.31148268006181     -1.41529510731378      0.05251702684573
  H   -1.80096764327351     -0.68968556443427      1.43704185784904
  C   1.19510717942882      1.48436350597223     -0.10121923708401
  H   1.52363392171407      1.09160701563274     -1.06651711384963
  H   2.07621068756758      1.72614105972421      0.49467670616943
  H   0.62071268997345      2.39340805133670     -0.27145591127459
  N   1.30467244839109     -0.63922047401632      1.04170454595181
  H   1.76164774181596     -0.99339047774529      0.20747728187733
  H   0.77497324591875     -1.40662645297069      1.43874535065587
