17
Coordinates from ORCA-job run
  C   -0.86133152203546     -0.41320825804190     -0.08879524771995
  C   0.51640997835567     -0.06542770243649      0.50786439912101
  Cl  -2.10914847497666     -0.14413848449149      1.25233265798464
  H   0.62208145393767     -0.67349890524549      1.41234641112200
  N   -1.10708329094212      0.38467979093687     -1.23623840850162
  H   -1.91409835884614      0.01685043835280     -1.72435294491469
  H   -1.25777921336149      1.35720452589485     -1.00374987325550
  N   -1.00300213398983     -1.79362765676879     -0.48371959925036
  H   -1.10501050318726     -2.37083077554484      0.34169434105805
  H   -0.12558651103731     -2.04247674148813     -0.93358253067589
  C   0.68438236221620      1.40836309928831      0.86865003202117
  H   0.67473103953019      2.02595632240330     -0.03407101363716
  H   1.65237274378912      1.55951253604418      1.35356113687318
  H   -0.09256246106426      1.76045695982841      1.54921871864626
  N   1.50390399705669     -0.55035689646222     -0.45909200876318
  H   2.43050919738926     -0.51689596493705     -0.05171051076414
  H   1.49121169716570      0.05643771266770     -1.27135555934383
