17
Coordinates from ORCA-job run
  C   -0.70906306402086     -0.41006337691624     -0.44988731191552
  C   0.38350294668311      0.08515864704883      0.51682532047324
  Cl  0.11130542251580     -0.49939278106445     -2.14189783156478
  H   -0.13010984507989      0.10725924388195      1.48649702304959
  N   -1.17443494182768     -1.65603417564761     -0.00361285844042
  H   -1.81347495851060     -2.06580370923182     -0.67126136156507
  H   -0.39523886425656     -2.26521409576746      0.21001026821863
  N   -1.84527335658057      0.44264612860728     -0.65450144471250
  H   -1.58044924108344      1.34336027299983     -1.02728231088526
  H   -2.33611423750320      0.54986300755270      0.22532558244717
  C   0.91025732697856      1.48272086090709      0.21217812663549
  H   1.41729515133174      1.50849286361890     -0.75395556242188
  H   0.11525050421875      2.23230109013973      0.20891567592066
  H   1.62822925877664      1.77290800296606      0.98353298077023
  N   1.41495441637031     -0.94697220223557      0.61556875885840
  H   1.98335998210065     -0.78755465799150      1.43841847619450
  H   2.02100349988724     -0.89267511886774     -0.19587353106248
