17
Coordinates from ORCA-job run
  C   -0.76452586013844     -0.22852750854178     -0.16590301061993
  C   0.40177570467224      0.43346307729274      0.59565225406316
  Cl  -1.98896422550240      1.20525335611707     -0.58111281887206
  H   -0.04617406968065      0.97918809891897      1.43428891368030
  N   -0.32614204256949     -0.85050541008524     -1.35708242867030
  H   -1.05027177894293     -1.42340583303119     -1.77267708955006
  H   -0.03561726593315     -0.16061158471761     -2.03639197449989
  N   -1.43427469846173     -1.16057945462904      0.66679070395815
  H   -1.80108422287778     -0.68624738824600      1.48289032082137
  H   -2.21557119787901     -1.59003998182363      0.18492906320794
  C   1.19751846964485      1.41015233673783     -0.25562115359956
  H   0.56762563622699      2.18018725215327     -0.69949527448713
  H   1.72928814788714      0.87906943520813     -1.05096093611342
  H   1.95051014747571      1.88454917666411      0.37419127271213
  N   1.31709873690565     -0.56024681802388      1.13957086108914
  H   1.71147919596895     -1.07887959469531      0.36121719984718
  H   0.78832932320406     -1.23381915929845      1.68171409703298
