17
Coordinates from ORCA-job run
  C   -0.83657735260044     -0.45561880579518     -0.08776070277639
  C   0.41127368197825      0.12902160408861      0.59935095846232
  Cl  -1.43686801754205     -1.78424818466593      1.12297213686921
  H   0.09190969749980      0.44247737139902      1.60473258902922
  N   -1.97183090028740      0.40460724763216     -0.23351648291149
  H   -1.76361491617411      1.11829573662463     -0.91995372917936
  H   -2.24110604975406      0.82101199535027      0.64812539614325
  N   -0.49650526581563     -0.96980198843544     -1.34399085297136
  H   0.34268814823565     -1.53214195867954     -1.28035644246129
  H   -1.26765065189423     -1.47361743686417     -1.76009486807724
  C   0.93706615232733      1.34175790584970     -0.15600120310050
  H   1.80266393108424      1.75831710646415      0.36737648264592
  H   0.18604421307397      2.13058080092586     -0.21615371100615
  H   1.23857344707758      1.05808624623956     -1.16466346574151
  N   1.44997502677284     -0.89877422432502      0.62357956619415
  H   1.21693678965974     -1.60490436287814      1.31151727640457
  H   2.33702206635855     -0.48704905293056      0.88583705247664
