17
Coordinates from ORCA-job run
  C   -0.84554286163316     -0.35091894377746      0.13651753688411
  C   0.57661927121964      0.07225224640793      0.52836843706150
  Cl  -1.95224288765599     -0.02595990313647      1.51722826645042
  H   0.77855895492906     -0.41938012409342      1.48756570359081
  N   -1.28790774273855      0.44475639129021     -0.97927336795854
  H   -2.17403013243720      0.09903011574217     -1.32907986805621
  H   -0.58242560752909      0.34942306342467     -1.70416175150101
  N   -0.83956515871328     -1.80195145171536     -0.03173918824087
  H   -1.78910298125137     -2.15647156270687     -0.00990936439487
  H   -0.45320136367797     -1.99497319412539     -0.94997236560143
  C   0.73910074411098      1.57448903667850      0.67484303895856
  H   0.62119884870252      2.06901125268398     -0.29004389969517
  H   -0.00420734086135      1.98500953364711      1.35736059162485
  H   1.73280460496526      1.80120149121541      1.07264826173060
  N   1.45070319684783     -0.42463991138104     -0.54433072382723
  H   1.74536781058720     -1.36929709742096     -0.32905678927632
  H   2.28287264513546      0.14841905726700     -0.60696451774921
