17
Coordinates from ORCA-job run
  C   -0.85615567939587     -0.42119872364754     -0.05344372005514
  C   0.42070632626497      0.13669920848448      0.60279490712569
  Cl  -1.46009576632104     -1.73444043046747      1.15015472096692
  H   0.13109925772100      0.52660079712934      1.59188644191493
  N   -1.82924252441331      0.59070104176155     -0.22852860400096
  H   -2.06218512854547      1.03199090307267      0.65200199992373
  H   -2.66743742741098      0.18415156047419     -0.62702344096126
  N   -0.66992020164942     -1.09183605856841     -1.29953132823472
  H   0.15860423605029     -1.67254446743508     -1.23121532491578
  H   -0.53349140296392     -0.39091662694543     -2.01858874735219
  C   1.00473320003070      1.27006328241513     -0.22877136441218
  H   1.35290526981880      0.88621833290669     -1.19019950923393
  H   1.86432952851203      1.70602029013637      0.28862726863950
  H   0.27082198565344      2.05491257013443     -0.40438513131974
  N   1.40426126540401     -0.93824516453585      0.68130070411231
  H   1.15750365239791     -1.58771865442621      1.41779554424958
  H   2.31456340884687     -0.55145786048891      0.89712558355325
