17
Coordinates from ORCA-job run
  C   -0.92657390848042     -0.31473125403132      0.12468652157709
  C   0.54199608601509      0.02628905237730      0.45224649664719
  Cl  -1.90907838866342      0.01141697247761      1.60859400457935
  H   0.79484662875693     -0.53908151752152      1.35974165746069
  N   -1.37839599252609      0.52963495490642     -0.93584571398319
  H   -2.25985959429493      0.16862458023893     -1.28279545789524
  H   -0.68494759998067      0.47730171602449     -1.67613321216851
  N   -1.15446928716021     -1.71605049200420     -0.17999451820162
  H   -0.90775750630535     -2.30756210967965      0.60620353689741
  H   -0.57682974095036     -1.95703080653467     -0.97844992271987
  C   0.77534472051498      1.50699088415517      0.70569134958279
  H   1.80459013960700      1.66935699034702      1.03935276386778
  H   0.60372190207027      2.07807264960423     -0.20804070679048
  H   0.10108716638869      1.88828662034521      1.47055926089842
  N   1.33756889372631     -0.40912735910550     -0.70608409655853
  H   2.11864423012611      0.21856844486607     -0.84798582269851
  H   1.72011225115609     -1.33295932646561     -0.55174614049478
