17
Coordinates from ORCA-job run
  C   -0.92883363005440     -0.10231619966303     -0.23100112387996
  C   0.28726978323352      0.35242240391343      0.61414776781114
  Cl  -1.96399511555843      1.45263077548884     -0.40471433748530
  H   -0.11013227691433      0.96866952501265      1.42670567025997
  N   -0.70436587180508     -0.51673716870220     -1.58783477306616
  H   -0.19996482628667     -1.39389676474912     -1.59822114510548
  H   -0.22839567921461      0.18674622596551     -2.13462911839911
  N   -1.61078506707676     -1.15198767863387      0.40756891414067
  H   -1.65585508960868     -1.04524330112179      1.41017604209629
  H   -2.52157574034640     -1.30025271974176     -0.00479040888235
  C   1.26324259692355      1.19556509105451     -0.20119665010116
  H   0.77498934793414      2.04276649902526     -0.68708314946617
  H   2.04090518546645      1.59216351658925      0.45684624990186
  H   1.75617515287206      0.58248150839944     -0.96048846652967
  N   0.89826128376661     -0.81954891008775      1.24697775147381
  H   1.14478032102169     -1.50884380492468      0.54522791797516
  H   1.75827962564733     -0.53361899782468      1.70230885925649
