17
Coordinates from ORCA-job run
  C   -0.72842537402975     -0.40370490445734     -0.42379342623940
  C   0.40385107877508      0.07964577850407      0.50201033220500
  Cl  0.02525627385041     -0.49187551948259     -2.14640059896052
  H   -0.07072044728304      0.09980697252672      1.49138258282803
  N   -1.18514847077605     -1.64862724687660      0.03502259857477
  H   -0.40242015275389     -2.26462735093209      0.21362304334272
  H   -1.85165861104464     -2.05113777460599     -0.60993351810544
  N   -1.86560214808568      0.45769684589141     -0.58078663133918
  H   -2.32104594384637      0.56504489392812      0.31785923676872
  H   -1.60856288599928      1.35803418914379     -0.95995779727621
  C   0.92612499621476      1.47623291563278      0.18430006223345
  H   0.13669917091830      2.23072671099497      0.22295177057375
  H   1.67999039081865      1.75576985056039      0.92468289029952
  H   1.38929853211243      1.50631617823129     -0.80348778974054
  N   1.43241095640842     -0.95872290809932      0.55493519242089
  H   2.03271318550453     -0.80752390286747      1.35638191934964
  H   2.00723944921614     -0.90305472809214     -0.27878986693520
