17
Coordinates from ORCA-job run
  C   -0.63370165862268     -0.27582611566775     -0.36881174761179
  C   0.50702990741001      0.22079305649924      0.54379297187491
  Cl  -0.02640029882392     -0.26823697521533     -2.11196242774930
  H   0.01949587749811      0.32869653918854      1.52180623846266
  N   -1.03372847933754     -1.59225330649692      0.02219231601413
  H   -0.27923060171093     -2.25424633008596     -0.10980118947965
  H   -1.82020000336235     -1.89888951480793     -0.53856291791980
  N   -1.73118922465968      0.66068306406139     -0.33594258725928
  H   -2.37075374442605      0.48866857250474     -1.10265528603664
  H   -2.22794302173592      0.52283412326722      0.53823368703202
  C   1.05464060083625      1.57432189956710      0.12103585326517
  H   1.66437820493965      1.97462998991699      0.93231163128571
  H   1.69044458867276      1.47402265194059     -0.76063691075841
  H   0.24589463145750      2.26581288590206     -0.11086856411823
  N   1.60516185873399     -0.71278450371135      0.72502248884212
  H   1.31028971170156     -1.55499155905101      1.20026173611038
  H   2.02481165142925     -0.95223447781163     -0.16541529195402
