17
Coordinates from ORCA-job run
  C   -0.65966498375170     -0.30334765987025     -0.46624476023094
  C   0.49283131827081      0.17449704406673      0.45255204448263
  Cl  -0.06419613984376     -0.28612703957948     -2.18031281033300
  H   0.05901626354516      0.13310396940415      1.46455395077564
  N   -1.09240654047205     -1.67327934607129     -0.24416490055476
  H   -1.34962873291289     -1.78603341529713      0.73151450730321
  H   -0.36493928273042     -2.33772162830160     -0.47702226617955
  N   -1.76073413105537      0.60434237181961     -0.36174656970628
  H   -1.93114565625246      0.84620750799130      0.60744075013487
  H   -2.58738589556348      0.16723659859305     -0.75195437028757
  C   0.92904651517299      1.60510838159751      0.17144580260582
  H   0.08110368422367      2.28820214300638      0.14214615578166
  H   1.43515874637838      1.66134737162111     -0.79453724342053
  H   1.63142873888641      1.91949626102246      0.94486915603683
  N   1.66552528956829     -0.68101504555396      0.47359010783785
  H   1.42631964612750     -1.62847589386989      0.73651939075407
  H   2.08967116040891     -0.70354162057873     -0.44664894499998
