17
Coordinates from ORCA-job run
  C   -0.60115752872566     -0.40629168450883     -0.30474013020760
  C   0.57037414082610      0.15401158763525      0.52927031173804
  Cl  -0.02877562973561     -0.59949425553342     -2.05198008029502
  H   0.18309635965336      0.12206765575268      1.55681778011548
  N   -0.88454681002450     -1.75214873474881      0.14536995170061
  H   -1.43978180688929     -1.68272637610543      0.99227695037250
  H   -1.41484755204857     -2.26183697198847     -0.55089047402282
  N   -1.74388208573918      0.44087855452823     -0.21783841412332
  H   -1.56179406428554      1.35876608632595     -0.60355858421126
  H   -2.52672413890788      0.03377937541291     -0.71615337710310
  C   0.92034486973890      1.59560792027834      0.19603054439025
  H   1.17730424496346      1.70230986513508     -0.86129231019187
  H   0.10662903521025      2.28263461366242      0.43518024226513
  H   1.78860569242734      1.88561734486224      0.78902860273088
  N   1.76641308757157     -0.66491996533501      0.49228834813469
  H   2.20269784917184     -0.57213687214078     -0.41835740977656
  H   1.48604433679342     -1.63511814323234      0.58854804848398
