17
Coordinates from ORCA-job run
  C   -0.57081216356000     -0.45839008336383     -0.45489698461768
  C   0.48938707369134      0.13081364500463      0.50513825578880
  Cl  0.14132990518807     -0.58595243029996     -2.10656892270329
  H   -0.01257029175911      0.12380350985362      1.48705488419846
  N   -0.86446344370590     -1.79964518871411     -0.01395898064352
  H   -1.59129039082442     -2.18062155352651     -0.61054792418667
  H   -1.22535568986375     -1.76097165720700      0.93475066648686
  N   -1.78406812780421      0.32544019730566     -0.61328288163938
  H   -1.59035222539293      1.20994130990000     -1.06738396085338
  H   -2.17527860213832      0.51499608878754      0.30463460660607
  C   0.86908910742287      1.56783329008499      0.18814538795144
  H   1.30926531506995      1.64112349934211     -0.80941142674756
  H   1.61205545799700      1.89951701003896      0.91460827107816
  H   0.01449556650093      2.24372618950759      0.24062840186064
  N   1.69520239332555     -0.67035746557236      0.63401484349831
  H   1.42992093814925     -1.64864619307253      0.66952585049332
  H   2.25344517770364     -0.55161016806879     -0.20445008657060
