17
Coordinates from ORCA-job run
  C   -0.76591638548187     -0.41840996045269     -0.33369266062310
  C   0.44853379827558      0.10216244971645      0.45835882636100
  Cl  -0.17325855633117     -0.59910096531542     -2.11228845349547
  H   0.06667759504865      0.17713066415407      1.48464944763113
  N   -1.18236553467862     -1.63485058724883      0.22755205316406
  H   -1.90608978341325     -2.06449538642057     -0.33274630015963
  H   -0.38843324277958     -2.24691707637072      0.36541026343578
  N   -1.90986418128446      0.44264708520874     -0.43026134452865
  H   -2.28132691515165      0.59893064362599      0.49926218302129
  H   -1.68653417382366      1.32044169962086     -0.87740943815145
  C   0.94516903373740      1.47575196469426      0.02226118934713
  H   0.16392762032777      2.23688997785893      0.08781545205348
  H   1.76075828508252      1.78884571246502      0.67912140857196
  H   1.32148884390948      1.44976122372528     -1.00188093292121
  N   1.47338702234169     -0.94110219868560      0.47119311269984
  H   2.14430487200373     -0.75464931471652      1.20642820034536
  H   1.97054170221742     -0.93303593185925     -0.41277300675151
