17
Coordinates from ORCA-job run
  C   -0.87450564873756     -0.38914590951858     -0.06258640865152
  C   0.52623564516360     -0.07276088453032      0.49709885962797
  Cl  -2.08255466039000     -0.06391086192925      1.30314510484790
  H   0.63531644571859     -0.67117248836018      1.40762071547561
  N   -1.12440352043346      0.39862073613887     -1.21589735821336
  H   -1.24168732146565      1.37842159131991     -0.99523230947753
  H   -1.95244209324221      0.04684831753401     -1.68000677168468
  N   -1.06530120025899     -1.77031054036586     -0.43238347721009
  H   -0.20681096671659     -2.05177958824843     -0.89918981715226
  H   -1.16429902660503     -2.33216276381593      0.40389318053504
  C   0.74518079554784      1.40041919743702      0.83144522363976
  H   -0.00395957574420      1.78491818231745      1.52544000321070
  H   0.73087911787439      2.00487971666616     -0.08008595097320
  H   1.72917376288143      1.53012729071748      1.28965293737253
  N   1.47605579983935     -0.60051008059851     -0.48507859715179
  H   1.46007078661653     -0.00666450160594     -1.30680734377938
  H   2.41305165995203     -0.58681741315793     -0.10102799041572
