17
Coordinates from ORCA-job run
  C   -0.85259723520485     -0.50884856829478      0.05941665868424
  C   0.50728341627657      0.02409949332143      0.55433870978706
  Cl  -2.04587374633557     -0.30042094173307      1.39055000325795
  H   0.69495604437485     -0.46001294963163      1.52016674743891
  N   -1.40006547421289      0.16959512474277     -1.09939834414991
  H   -0.66490366056149      0.19439520640066     -1.80120807454610
  H   -1.65897220834737      1.12309425500372     -0.87341481097888
  N   -0.70766467361291     -1.92460878138158     -0.17528958678083
  H   -1.61194650960034     -2.28037726808336     -0.46834165518576
  H   -0.07660347466297     -2.02514684900302     -0.96487309388296
  C   0.52859744135971      1.53235619528377      0.72830608907628
  H   -0.28745680720035      1.87599436900825      1.36410960353592
  H   0.45364336032328      2.02918674907748     -0.24244621947631
  H   1.46889706661560      1.84040097324922      1.19292624954033
  N   1.49476039189688     -0.36815596617284     -0.46095226080581
  H   1.92661590194991     -1.24563052382007     -0.19916151735988
  H   2.23133016694197      0.32307948203305     -0.52372849815422
