17
Coordinates from ORCA-job run
  C   -0.84416074789967     -0.44286211858671     -0.10806428941209
  C   0.51248230197289     -0.05637901979746      0.51271090957132
  Cl  -2.11644806703308     -0.24981816681358      1.22386879051560
  H   0.63020324767882     -0.67808203237324      1.40633278488619
  N   -1.10722720944689      0.36900806286951     -1.24122209766869
  H   -1.29763669340527      1.33013168285871     -0.99131290155822
  H   -1.89314620551010     -0.01947323936165     -1.74736737908112
  N   -0.92892110945146     -1.81906084585740     -0.53323440321463
  H   -0.03765766012909     -2.02438820990663     -0.97795816873389
  H   -1.01643155490406     -2.41712126684165      0.27895117923186
  C   0.62029881691496      1.41518420500048      0.90472965824498
  H   0.59949969430736      2.05010211981963      0.01427017571979
  H   1.57559588440735      1.59234200918733      1.40576523421243
  H   -0.17817662037937      1.72429471223698      1.58117870319069
  N   1.52876074562152     -0.48410921052085     -0.45094672867848
  H   1.50551004729029      0.13947699293448     -1.25004891731918
  H   2.44845512996580     -0.42924567484805     -0.03065254990652
