17
Coordinates from ORCA-job run
  C   -0.77313325522583     -0.38521783099008     -0.33688484518111
  C   0.49708985227402      0.04822780673176      0.41591751894357
  Cl  -0.33144973288981     -0.34712746557357     -2.15631749836841
  H   0.21675594619033     -0.07664482334551      1.46927501209320
  N   -1.18163561973081     -1.73321342035915     -0.07445133066779
  H   -1.54262754082465     -1.75967411111328      0.87390827799053
  H   -0.35798268258291     -2.32279589067530     -0.12385624970988
  N   -1.86677014898926      0.46385371897450     -0.04262746560760
  H   -2.69421036793989      0.10103405497935     -0.50172322394312
  H   -1.70519346279257      1.41037043196611     -0.35742383312604
  C   0.90130983781961      1.50244957812327      0.19138261394243
  H   1.10175126195520      1.69150643640254     -0.86530298399672
  H   0.13511113232238      2.20027009895554      0.53888195375902
  H   1.81270992125926      1.71783008805266      0.75507300899549
  N   1.54822460588721     -0.92780169071768      0.14222409608543
  H   1.96129780817126     -0.73967177017169     -0.76431286149128
  H   2.27875244509646     -0.84439521123941      0.83823781028220
