17
Coordinates from ORCA-job run
  C   -0.73468108609660     -0.56531004890905      0.02711560662518
  C   0.44371183534564      0.20086205768673      0.67741932891944
  Cl  -1.20235858231345     -1.89000443802854      1.16703619584796
  H   0.05966391816003      0.59822588145533      1.62439897189059
  N   -1.95246766780383      0.19835544082772     -0.17210905763440
  H   -1.78230380315324      0.93880262589939     -0.84241327533215
  H   -2.26595716058210      0.61310792759617      0.69885487042629
  N   -0.28627081848309     -1.19018345525734     -1.19099147042012
  H   -0.05801500490967     -0.47265010871689     -1.87106237416888
  H   -1.04749984466085     -1.74429415776920     -1.56809924544814
  C   0.89958466439978      1.37026534480193     -0.19307042623295
  H   1.38816950244573      1.01339167834694     -1.10455377024542
  H   0.08610858150412      2.04592379019908     -0.46510091943716
  H   1.64450178212250      1.94001892884331      0.36243075747592
  N   1.60820818060555     -0.61535623401049      0.98162875897479
  H   1.37324228297826     -1.27692502493532      1.71128589760157
  H   1.82736322044124     -1.16423020802978      0.15623015115747
