17
Coordinates from ORCA-job run
  C   -0.85770794153454     -0.33217462860980      0.12696483578456
  C   0.58621836293904      0.07820885901781      0.51760946012427
  Cl  -1.92540307371202      0.06682786099848      1.53507384579388
  H   0.78850770217956     -0.43860873099427      1.46335887398212
  N   -1.30544090503954      0.42254921994985     -1.00481983068008
  H   -2.17696412614808      0.02787280912439     -1.33977059488436
  H   -0.61561868748467      0.36872011876570     -1.74513537380805
  N   -1.05475102722361     -1.75667902575686     -0.08083337263463
  H   -0.52229256603427     -2.06201082285621     -0.88676098712672
  H   -0.77762354041183     -2.29328436497502      0.73369777362982
  C   0.75013132469630      1.57574992075898      0.72861614237543
  H   0.55252613505129      2.11823899453133     -0.19869965906287
  H   0.06123590837589      1.95003865239434      1.48341028357765
  H   1.77475385074069      1.77836888776022      1.04490208575906
  N   1.60098673768523     -0.35991586018116     -0.43297344143071
  H   1.52456679093558     -1.34058828922414     -0.66493373684686
  H   1.59787505498496      0.19568639929638     -1.27870630455251
