17
Coordinates from ORCA-job run
  C   -0.87133876790193     -0.45431507239914      0.09537130858061
  C   0.45111410187716      0.12225521309413      0.63698241746720
  Cl  -1.42304086640773     -1.67303375930775      1.33380468747885
  H   0.23529509792554      0.49026646743006      1.64862470048944
  N   -1.88517174388455      0.56873168518978      0.07092052425596
  H   -2.77388615767398      0.13545065365955     -0.15477496125601
  H   -1.67117927204459      1.23931864703889     -0.65923863608474
  N   -0.74977759585731     -1.16545908013718     -1.15085933085307
  H   0.12698481863220     -1.67851331525216     -1.14556179629606
  H   -0.73629645638224     -0.50062945484997     -1.91488804697606
  C   0.94419545852065      1.28167082485765     -0.21685266913368
  H   1.90034378841688      1.64545043835233      0.16935569980689
  H   1.10522688728492      0.96335473065369     -1.24955998583226
  H   0.25207406510453      2.12447668803715     -0.19075096803595
  N   1.45551151386599     -0.93973648135376      0.60643820221354
  H   1.26711076955864     -1.61177131911636      1.34091074447215
  H   2.37283435896583     -0.54751686589692      0.77907810970320
