17
Coordinates from ORCA-job run
  C   -0.76780361566110     -0.42365190751283     -0.32486568311325
  C   0.47093875536782      0.08263990257327      0.43820880167868
  Cl  -0.28313987594308     -0.41856052712642     -2.14286956085002
  H   0.15165355550687      0.04835122912848      1.48770266567666
  N   -1.09625473357318     -1.70344959659622      0.14823909094412
  H   -1.83456609597396     -2.11631629009515     -0.40549527132335
  H   -0.26922828856581     -2.28563347362656      0.18327422291486
  N   -1.95127162693228      0.38738307548211     -0.27355094185976
  H   -2.26504810739846      0.44696185446979      0.68801417829237
  H   -1.79359515424621      1.30976412267769     -0.65424388780014
  C   0.88184842566065      1.51082726144223      0.09941651013219
  H   0.07451417428016      2.22592345718101      0.27479711385950
  H   1.19706773803565      1.59084159806920     -0.94241946595576
  H   1.72121229038714      1.80420719238817      0.73501069351468
  N   1.53784459629910     -0.90805424191654      0.29589004834584
  H   1.97760465551912     -0.79734361645122     -0.61134734519940
  H   2.24522330723755     -0.75489004008703      1.00423883074279
