17
Coordinates from ORCA-job run
  C   -0.81282087186957     -0.41729604147244     -0.03672868045300
  C   0.41924857769656      0.19758857348623      0.67645538395467
  Cl  -1.42076850960625     -1.75824600445570      1.12096779770921
  H   0.06006198484724      0.57535070653558      1.64179842794578
  N   -1.80114566011963      0.56583076646361     -0.26387305572566
  H   -2.06254499204177      1.03762156598076      0.59231482378298
  H   -2.61888950279420      0.14214532750552     -0.68484463628471
  N   -0.58446341430265     -1.08895020426486     -1.28419916926951
  H   0.09879203162332     -1.82725881609798     -1.18498565598121
  H   -0.28127605045730     -0.41429048156936     -1.97607894545166
  C   0.98424319097621      1.36095722353354     -0.12950778544775
  H   1.81783116028900      1.79761932419979      0.42217792144704
  H   1.37091315035837      1.01205017930603     -1.09260211006384
  H   0.23275866045967      2.12419827101357     -0.32365048058799
  N   1.49891957252481     -0.72954334690813      0.96049639818987
  H   1.15870279083677     -1.54052500853190      1.46100061222806
  H   1.93843788157941     -1.03725203472427      0.10125915400774
