17
Coordinates from ORCA-job run
  C   -0.87650792136095     -0.13119561675619     -0.17792054462074
  C   0.36325204589333      0.39760623926488      0.58654471912733
  Cl  -1.93133351780157      1.33757592527245     -0.56533217383824
  H   -0.02047976557698      0.89830455483737      1.48522730378088
  N   -0.64139527758874     -0.78247002156567     -1.43965181470964
  H   -0.24173265947202     -0.14357882158142     -2.11356352143113
  H   -0.01590774464138     -1.56561180446400     -1.29060251783490
  N   -1.56090783412401     -1.06846820068775      0.64419769235804
  H   -2.34965549811600     -1.44730032753812      0.13376484605429
  H   -1.88809214028296     -0.63471892065709      1.49879284285097
  C   1.19521706471070      1.39515420848708     -0.20090272579167
  H   2.05367343174586      1.68884819004452      0.40490343862496
  H   0.62946350099848      2.28557896046763     -0.46844513156853
  H   1.57856627787033      0.93835636460757     -1.11914140814815
  N   1.23269662618423     -0.68919000577750      1.02019356019892
  H   0.67224602364455     -1.46486297261883      1.35262798104963
  H   1.80189738791713     -1.01402775133495      0.24730745389802
