17
Coordinates from ORCA-job run
  C   -0.63458084230939     -0.46116959589558     -0.35763068169066
  C   0.57345489706688      0.12836242883978      0.40790307555326
  Cl  -0.24794572858485     -0.49946465531257     -2.11937593849552
  H   0.26943794525177      0.06474531651465      1.46616911959996
  N   -0.80078376888259     -1.82770565089773      0.07067491237480
  H   -1.61966935922997     -2.21061084215923     -0.38984853288231
  H   -0.96789771518292     -1.84006575970962      1.07246024958453
  N   -1.87688798494320      0.28383537045548     -0.24824149129855
  H   -1.79676619941444      1.19384829102034     -0.68589910741754
  H   -2.09461574440085      0.41800950607281      0.73466727616450
  C   0.84388284750106      1.58960765976973      0.08972936951448
  H   -0.00084875148405      2.23208291514685      0.34182529821172
  H   1.70735228057759      1.91733120356159      0.67015109618047
  H   1.07477935972844      1.71913416702959     -0.97053818585801
  N   1.80345656044175     -0.63298883444771      0.26778841247718
  H   1.57667135736470     -1.62107053566104      0.30066102611566
  H   2.19096084650011     -0.45488098432735     -0.65249589813396
