17
Coordinates from ORCA-job run
  C   -0.79273248992929     -0.48579512012776      0.09612953258159
  C   0.55481294538269      0.08338250239703      0.60813214385534
  Cl  -2.00972142493239     -0.24018439733637      1.40373689836374
  H   0.70241023667634     -0.35760445796093      1.59797081774113
  N   -1.35480517486188      0.14533579480914     -1.08588125323826
  H   -0.70006970453924      0.06170620241192     -1.85673378612187
  H   -1.54152052803217      1.12800913869886     -0.92388429859356
  N   -0.65727540271670     -1.91183437090259     -0.08321301344988
  H   -1.57062498464005     -2.28401803992634     -0.32131385022875
  H   -0.04930470804001     -2.08066256961257     -0.87736132704450
  C   0.54797985292575      1.59958395706903      0.72528135884869
  H   0.51621557528685      2.06581125383462     -0.26430689990906
  H   1.47141426197276      1.92030872269982      1.20803587566036
  H   -0.29940194131498      1.96188863168550      1.30816078946631
  N   1.70156265641364     -0.30921830091616     -0.19966418145903
  H   1.85290038063951     -1.30831183398988     -0.17790726384381
  H   1.62716044970918      0.01160288716669     -1.15718154262847
