17
Coordinates from ORCA-job run
  C   -0.83415043558855     -0.44667622389867      0.12434319200717
  C   0.45405744267803      0.19524510948721      0.69819685956244
  Cl  -1.37982337897706     -1.67844119166372      1.33619262082828
  H   0.18280677007769      0.56193299851167      1.69224217799176
  N   -1.87476904207078      0.54270494934870      0.04417960448722
  H   -1.61697572906459      1.25394920457758     -0.63038903453236
  H   -2.71976287276423      0.08986869440223     -0.28775101490006
  N   -0.68875319523843     -1.18063761281503     -1.11856014209077
  H   -0.40749791588348     -0.54630612396504     -1.85792490165103
  H   -0.00114947331686     -1.91945298148971     -1.03311193774524
  C   0.91976998482908      1.37735381215204     -0.14485207497081
  H   1.86532813099713      1.73649625832579      0.26266547639749
  H   0.20953812790658      2.20489902227734     -0.12563140259555
  H   1.10023887695953      1.08643548033110     -1.18548596154401
  N   1.57386955084381     -0.71748782620624      0.85952404964317
  H   1.91196180941829     -1.03507994576356     -0.04118804443333
  H   1.30431134919380     -1.52480362361168      1.40755053354563
