17
Coordinates from ORCA-job run
  C   -0.75943243513934     -0.49046333799471     -0.01573881487786
  C   0.57818584544280      0.05507350561595      0.54475049574898
  Cl  -2.04825259172595     -0.16812407080884      1.27174251404545
  H   0.76307767463501     -0.48751924318006      1.48121024615396
  N   -1.26007358877597      0.11215473541254     -1.22311388736725
  H   -1.48222516018230      1.08813044042967     -1.08104529243950
  H   -0.55960035624919      0.01801115736131     -1.94925401118010
  N   -0.61689457504229     -1.87986750085755     -0.28119979114953
  H   -0.40382967156906     -2.39476762927738      0.56428876295495
  H   -1.47531062388520     -2.23332533244958     -0.68641518531612
  C   0.55984906220902      1.54349778405241      0.84723087363470
  H   1.54571726363709      1.83828928246511      1.20968329642062
  H   -0.18529164816446      1.80418053010189      1.59642212903159
  H   0.35512158332138      2.11928175202671     -0.06124966405762
  N   1.69138112899014     -0.21996514323663     -0.35552740670979
  H   1.59694816893167     -1.15114385269127     -0.74315161295141
  H   1.69862992356666      0.44555692303044     -1.11963265194110
