14

C	-0.470116	0.019414	-1.463794
C	0.0	0.0	0.0
Cl	0.273707	-1.316307	-2.341083
H	1.095776	0.0	0.0
C	-1.923325	-0.044751	-1.592799
N	-3.095395	-0.109161	-1.665166
N	-0.026224	1.333301	-2.153566
O	0.696697	2.081163	-1.516872
O	-0.450593	1.483486	-3.291268
C	-0.458323	-1.243818	0.619366
N	-0.830566	-2.238598	1.121536
C	-0.53621	1.139931	0.73964
N	-0.968567	2.048324	1.346618
Cl	3.104427	0.0	0.0
