14

C	-0.496052	0.042427	-1.463185
C	0.0	0.0	0.0
Cl	-2.257427	0.138651	-1.563563
H	1.096944	0.0	0.0
C	0.093448	1.154363	-2.198847
N	0.501622	2.0691	-2.814798
N	-0.017221	-1.275636	-2.141641
O	-0.843381	-2.14796	-2.34786
O	1.180381	-1.297355	-2.365552
C	-0.49095	-1.203171	0.664984
N	-0.871992	-2.183249	1.189533
C	-0.452228	1.201978	0.695364
N	-0.810195	2.172441	1.251908
Cl	3.119986	0.0	0.0
