14

C	-0.465572	-0.004329	-1.465633
C	0.0	0.0	0.0
Cl	0.293225	-1.344995	-2.320202
H	1.095633	0.0	0.0
C	-1.917938	-0.084176	-1.597806
N	-3.089111	-0.162947	-1.671469
N	-0.027486	1.301363	-2.167873
O	0.704087	2.050192	-1.544897
O	-0.462642	1.445566	-3.303288
C	-0.454693	-1.235161	0.637989
N	-0.825514	-2.224199	1.151802
C	-0.540639	1.150852	0.717593
N	-1.013893	2.051136	1.305686
Cl	3.10547	0.0	0.0
