14

C	-0.374967	-0.014136	-1.483437
C	0.0	0.0	0.0
Cl	0.206365	1.453915	-2.268164
H	1.098227	0.0	0.0
C	0.158338	-1.195753	-2.153326
N	0.559353	-2.144503	-2.720058
N	-1.913165	-0.056958	-1.697685
O	-2.284128	-0.267509	-2.843478
O	-2.616681	0.142462	-0.71766
C	-0.474845	-1.212507	0.657342
N	-0.836142	-2.199338	1.182394
C	-0.458415	1.20353	0.684863
N	-0.780572	2.176969	1.257478
Cl	3.076095	0.0	0.0
