14

C	-0.377864	0.008528	-1.482701
C	0.0	0.0	0.0
Cl	0.197713	1.493161	-2.241849
H	1.098484	0.0	0.0
C	0.156842	-1.159231	-2.173537
N	0.552989	-2.110894	-2.738904
N	-1.9176	-0.034981	-1.698379
O	-2.286474	-0.236691	-2.846364
O	-2.621457	0.155209	-0.716996
C	-0.475615	-1.222504	0.639674
N	-0.832338	-2.224385	1.139092
C	-0.456798	1.192654	0.705975
N	-0.784662	2.144737	1.310409
Cl	3.082026	0.0	0.0
