14

C	-0.485371	0.006151	-1.458102
C	0.0	0.0	0.0
Cl	0.284176	-1.309234	-2.344896
H	1.095761	0.0	0.0
C	-1.937865	-0.099346	-1.568109
N	-3.107842	-0.207111	-1.613005
N	-0.084263	1.328619	-2.151814
O	0.679152	2.065836	-1.549206
O	-0.573715	1.495342	-3.262343
C	-0.449108	-1.240407	0.633827
N	-0.80632	-2.237376	1.14232
C	-0.534729	1.145229	0.732387
N	-0.963509	2.055358	1.339083
Cl	3.106296	0.0	0.0
