16

C	0.0	0.0	0.0
C	-0.451307	-0.220224	-1.469384
Cl	1.793771	0.0	0.0
H	0.387273	0.073805	-2.113957
C	-0.337562	1.371058	0.614598
H	0.127556	2.162424	0.02912
H	0.08724	1.379553	1.621377
H	-1.418595	1.454456	0.635892
C	-0.458066	-1.06838	0.887319
N	-0.558316	-1.934684	1.677343
N	-1.570164	0.648413	-2.01199
O	-2.417369	0.109281	-2.705091
O	-1.396988	1.855551	-1.899563
C	-0.74492	-1.622803	-1.739988
N	-0.863213	-2.763122	-1.995923
F	-2.431046	0.0	0.0
