16

C	0.0	0.0	0.0
C	-0.528932	0.228958	-1.445159
Cl	1.789891	0.0	0.0
H	0.315213	0.095646	-2.129929
C	-0.382253	1.051617	1.055841
H	0.115311	1.993049	0.827969
H	-0.02624	0.691558	2.022858
H	-1.46811	1.12084	1.040001
C	-0.411181	-1.333663	0.44799
N	-0.543092	-2.42776	0.85772
N	-0.900867	1.676083	-1.669499
O	-2.011627	1.957039	-2.09383
O	0.011007	2.47749	-1.46126
C	-1.612813	-0.651182	-1.879991
N	-2.203848	-1.390285	-2.581708
F	-2.495489	0.0	0.0
