17

C	-0.479113	0.002168	-1.451094
C	0.0	0.0	0.0
Br	0.356386	-1.570432	-2.323034
H	1.092031	0.0	0.0
C	-1.92172	-0.21378	-1.556263
N	-3.079802	-0.396725	-1.658775
C	-0.064685	1.252277	-2.224162
H	-0.311374	1.142594	-3.281588
H	-0.598963	2.119938	-1.830264
H	1.009681	1.409395	-2.116672
N	-0.581977	-0.989502	0.823394
H	0.109257	-1.517645	1.33761
H	-1.24289	-1.598503	0.365903
N	-0.369652	1.389394	0.529046
O	-1.558439	1.635715	0.730254
O	0.562179	2.161924	0.750864
Br	2.757168	0.0	0.0
