17

C	-0.489987	0.019458	-1.461932
C	0.0	0.0	0.0
Br	0.19538	-1.616289	-2.308839
H	1.0904	0.0	0.0
C	-1.949296	-0.074042	-1.518666
N	-3.123381	-0.12939	-1.558019
C	0.034031	1.216925	-2.250986
H	-0.423512	2.139377	-1.888853
H	1.116983	1.272903	-2.113657
H	-0.204265	1.093576	-3.308136
N	-0.508788	-1.101174	0.732322
H	0.108867	-1.307039	1.507492
H	-1.444526	-0.91296	1.069695
N	-0.429868	1.338479	0.613977
O	0.315363	2.303667	0.47428
O	-1.518807	1.365342	1.193547
Br	3.483568	0.0	0.0
