13

C	-0.526549	0.029222	-1.420575
C	0.0	0.0	0.0
F	-0.265931	1.323833	-1.874453
H	1.088012	0.0	0.0
H	0.040629	-0.649436	-2.058855
H	-0.377446	0.853777	0.562564
N	-1.932624	-0.228415	-1.569478
H	-2.095607	-1.189087	-1.829159
H	-2.424968	-0.047931	-0.704043
N	-0.43561	-1.205068	0.679544
O	-0.336339	-2.276718	0.063163
O	-0.82529	-1.123179	1.854394
H	2.66313	0.0	0.0
