13

C	-0.477311	0.053603	-1.432892
C	0.0	0.0	0.0
F	-0.250674	1.353399	-1.880607
H	1.086999	0.0	0.0
H	0.151454	-0.587117	-2.06104
H	-0.3708	0.852604	0.565254
N	-1.896576	-0.19034	-1.568286
H	-2.119402	-0.22554	-2.557487
H	-2.075105	-1.112487	-1.188781
N	-0.40476	-1.207981	0.683133
O	-0.466976	-1.188947	1.918299
O	-0.544148	-2.245506	0.00484
H	2.642153	0.0	0.0
