13

C	-0.53905	0.037593	-1.427398
C	0.0	0.0	0.0
F	0.046708	1.157905	-1.991164
H	1.087416	0.0	0.0
H	-0.185382	-0.84234	-1.973078
H	-0.377615	0.862713	0.557622
N	-1.959132	0.173323	-1.640884
H	-2.407574	-0.636032	-1.236182
H	-2.274325	0.970543	-1.096767
N	-0.491155	-1.207835	0.727657
O	-1.692482	-1.507422	0.635316
O	0.310458	-1.845209	1.402478
H	2.923682	0.0	0.0
