16

C	-0.399109	-0.073604	-1.462934
C	0.0	0.0	0.0
F	0.135505	0.96091	-2.198375
H	1.091712	0.0	0.0
C	0.13545	-1.330194	-2.032539
N	0.51775	-2.324534	-2.525946
C	-1.865875	-0.092086	-1.671646
N	-3.027852	-0.187398	-1.815387
C	-0.424622	-1.217013	0.801496
H	-1.508854	-1.378203	0.806679
H	0.078147	-2.098905	0.40419
H	-0.078239	-1.07713	1.823672
N	-0.533825	1.223975	0.615746
O	-1.105222	2.055812	-0.097633
O	-0.353195	1.366169	1.825306
F	2.478337	0.0	0.0
