16

C	-0.389591	0.020955	-1.476527
C	0.0	0.0	0.0
F	-0.084859	-1.230205	-2.001229
H	1.093219	0.0	0.0
C	-1.843642	0.209653	-1.681574
N	-3.007884	0.269297	-1.824596
C	0.358399	1.01239	-2.27194
N	0.922419	1.76673	-2.972489
C	-0.51174	-1.215901	0.739205
H	-0.120007	-1.180191	1.75383
H	-0.119156	-2.108914	0.254394
H	-1.606638	-1.266213	0.779317
N	-0.452811	1.24174	0.628774
O	-0.493363	1.291464	1.857353
O	-0.721947	2.199257	-0.10927
F	2.478271	0.0	0.0
