16

C	-0.388312	0.021031	-1.457132
C	0.0	0.0	0.0
F	-1.774231	0.021952	-1.654897
H	1.093074	0.0	0.0
C	0.174023	1.153702	-2.21913
N	0.594451	1.965474	-2.955938
C	0.127434	-1.210394	-2.094248
N	0.481006	-2.19017	-2.635913
C	-0.447464	-1.245794	0.73766
H	0.006657	-2.119241	0.267791
H	-0.071902	-1.189816	1.756973
H	-1.535773	-1.363037	0.759077
N	-0.483526	1.214086	0.673357
O	-0.787965	2.195913	-0.012582
O	-0.522959	1.202902	1.904943
F	2.470283	0.0	0.0
