16

C	-0.416301	-0.143539	-1.450132
C	0.0	0.0	0.0
F	0.008017	0.946291	-2.180052
H	1.09171	0.0	0.0
C	0.240585	-1.33923	-2.027718
N	0.697868	-2.263556	-2.589266
C	-1.874147	-0.318671	-1.66834
N	-3.013093	-0.53345	-1.86457
C	-0.444846	-1.157783	0.870579
H	-0.051308	-0.998606	1.873659
H	-1.533311	-1.262749	0.91658
H	-0.003865	-2.080689	0.49188
N	-0.5326	1.257762	0.562547
O	-1.404727	1.878919	-0.057177
O	-0.086765	1.602545	1.655248
F	2.497082	0.0	0.0
