16

C	-0.422275	0.184854	-1.433867
C	0.0	0.0	0.0
F	-1.812094	0.144105	-1.607245
H	1.109147	0.0	0.0
C	0.070761	1.429328	-2.057687
N	0.460846	2.345834	-2.679017
C	0.135346	-0.930308	-2.230176
N	0.534033	-1.81271	-2.894892
C	-0.405507	-1.338325	0.587835
H	0.007661	-1.403697	1.592123
H	-1.490405	-1.477998	0.631232
H	0.044258	-2.137163	-0.003553
N	-0.496612	1.104793	0.829014
O	-0.884819	2.141297	0.278146
O	-0.469568	0.951663	2.050864
F	2.465177	0.0	0.0
