16

C	-0.421723	0.226171	-1.440646
C	0.0	0.0	0.0
F	0.206554	1.312715	-2.008613
H	1.11052	0.0	0.0
C	-0.043845	-0.95845	-2.244066
N	0.214884	-1.884884	-2.917718
C	-1.886959	0.397127	-1.593575
N	-3.055897	0.444216	-1.703273
C	-0.439966	-1.339135	0.558382
H	-1.526308	-1.489683	0.527823
H	0.057613	-2.136986	0.006301
H	-0.102603	-1.395291	1.591506
N	-0.487631	1.10049	0.843771
O	-0.401914	0.959002	2.06482
O	-0.909047	2.127656	0.298963
F	2.471466	0.0	0.0
