16

C	-0.422716	0.245333	-1.435916
C	0.0	0.0	0.0
F	0.088728	1.423055	-1.937544
H	1.111347	0.0	0.0
C	0.108913	-0.847522	-2.281889
N	0.486099	-1.696851	-2.999696
C	-1.894968	0.251009	-1.610445
N	-3.060032	0.150741	-1.72587
C	-0.402026	-1.369788	0.51615
H	-1.48473	-1.544764	0.495976
H	0.105989	-2.135695	-0.071639
H	-0.042816	-1.4541	1.540335
N	-0.53453	1.049888	0.877357
O	-0.340235	0.920827	2.086886
O	-1.115704	2.018416	0.373223
F	2.473981	0.0	0.0
