16

C	-0.385474	-0.031872	-1.476915
C	0.0	0.0	0.0
F	-0.080523	-1.301837	-1.956355
H	1.109795	0.0	0.0
C	-1.837677	0.155476	-1.697669
N	-3.000845	0.225222	-1.844531
C	0.369205	0.925464	-2.307022
N	0.931915	1.614023	-3.072933
C	-0.509764	-1.185554	0.78484
H	-1.604353	-1.223493	0.845586
H	-0.135928	-2.098603	0.321928
H	-0.100695	-1.12528	1.792793
N	-0.447191	1.263096	0.579745
O	-0.710663	2.196707	-0.193478
O	-0.492606	1.357573	1.806588
F	2.472156	0.0	0.0
