16
Coordinates from ORCA-job run
  C   -0.95624825650415     -0.15252360831943     -0.15117513977094
  C   0.49747823880176      0.26016458458194     -0.42939090862782
  Cl  -1.65990005181552     -0.80370430671515     -1.71363447112770
  H   0.47275982337826      1.08918849936429     -1.14011097783572
  C   -1.06556681813114     -1.22237295687202      0.84389825814234
  N   -1.21148807235063     -2.02768433158309      1.68645168839403
  N   -1.65018565070078      0.99296739128755      0.33423551458365
  H   -1.70503549964841      1.70742993470933     -0.38291421195003
  H   -2.58678330309541      0.75565717243296      0.63804964386920
  N   1.22943961494152     -0.83199582051653     -1.14535027077702
  O   1.74034481581181     -0.54500530291121     -2.22438338045322
  O   1.28984368339892     -1.91860060073231     -0.57753223914521
  C   1.25973598171545      0.60888314356996      0.83541658567619
  H   2.26928925383733      0.93442656246504      0.57586521129687
  H   0.74834655671792      1.41378016334226      1.36131929905760
  H   1.32796968364305     -0.26161052410358      1.48925539866778
