16
Coordinates from ORCA-job run
  C   -0.96407443137327     -0.06098257444229     -0.22534090918815
  C   0.55005677851482      0.07825031900694     -0.48329960956088
  Cl  -1.74585342112036      1.34045712296737     -1.16236481651239
  H   0.70687618127530      0.04110627430684     -1.56143767149807
  C   -1.51053182760222     -1.26984347673898     -0.84934533425211
  N   -1.99073257467316     -2.22863963834857     -1.32915373651492
  N   -1.26092665496527     -0.07247132868099      1.15008828100513
  H   -2.24010245443634     -0.24569980189972      1.33532881377479
  H   -0.95645712216683      0.76815857232792      1.62184429311366
  N   1.21292244100895     -1.17243000410976      0.04464409336698
  O   1.26770199666034     -2.12120614188402     -0.73569902476217
  O   1.63478825940251     -1.15706421316990      1.19626817936368
  C   1.19155127532718      1.30048966673922      0.13894201710003
  H   2.24856381510249      1.32535723301868     -0.13102389394684
  H   1.13666060041026      1.26758812665420      1.22588712567671
  H   0.71955713863558      2.20792986425305     -0.23533780716545
