16
Coordinates from ORCA-job run
  C   -1.02041687930175     -0.24323344075490     -0.19827117353050
  C   0.42189170885398      0.22637534187114     -0.48545126728103
  Cl  -1.68180007365217     -0.90192891277699     -1.73498573216324
  H   0.35633099436978      1.01431490828333     -1.23895943207819
  C   -1.06079818387185     -1.29183572841142      0.82650476985969
  N   -1.11615679770432     -2.06469456071089      1.70921111749149
  N   -1.88696529041240      0.82164715326152      0.23236967688931
  H   -1.71799371341187      1.07843708018185      1.19603410353358
  H   -1.81525311164329      1.62787120650176     -0.37652120774774
  N   1.22782527414186     -0.85490480509583     -1.13792092541075
  O   1.70861842532842     -0.60416573250313     -2.23990759989133
  O   1.36960677792132     -1.89636069205827     -0.50247508987864
  C   1.16022519844967      0.68233738374424      0.75969191536342
  H   0.65089152814158      1.53137056832761      1.21752710583081
  H   1.23461497024306     -0.13084925392798      1.48328207636239
  H   2.16837917254798      1.00361948406798      0.48987166265073
