16
Coordinates from ORCA-job run
  C   -0.87317565465292     -0.32478291881962      0.18820638046095
  C   0.48858228502694      0.32882259619120     -0.12534431940701
  Cl  -0.69834567850655     -2.04061438711537      0.66853788275840
  H   0.29193562897284      1.39329955597618     -0.28006739123426
  C   -1.42148328658570      0.38493855526520      1.36191181932168
  N   -1.88181982928755      1.00414624655433      2.24946374759382
  N   -1.70882422035538     -0.28269376666970     -0.97721504156643
  H   -1.76959802093471      0.65662049534042     -1.35430861803519
  H   -2.63565483717419     -0.63580082743839     -0.77346624049314
  N   0.94562497823609     -0.15762018366884     -1.46993659258123
  O   0.69643113104442      0.57355896686467     -2.42622906558301
  O   1.52281740843720     -1.23839432211587     -1.51447296265317
  C   1.55985539507185      0.11738107662564      0.92039079692601
  H   2.45329010954238      0.68162749701470      0.64654061492113
  H   1.81989632780945     -0.93609346687640      0.99646727660563
  H   1.21046826335583      0.47660488287185      1.89052171296581
