16
Coordinates from ORCA-job run
  C   -0.95801483214482     -0.15590248595626     -0.25222417987234
  C   0.50141549240014      0.24460105651788     -0.50860215320243
  Cl  -1.66555152102218     -0.74185420911526     -1.78435162147450
  H   0.47690300976107      1.00661603011885     -1.28735698669286
  C   -1.08898118361114     -1.22927707085767      0.74727214293682
  N   -1.26854941479628     -1.98894760746182      1.62664410190950
  N   -1.67572252155903      1.04765709723044      0.13102055712877
  H   -1.47452404565637      1.26409336246306      1.10227560989709
  H   -2.67324025424035      0.87863166363039      0.05678533985526
  N   1.26163013854346     -0.90480020069722     -1.09453257872932
  O   1.37902455383651     -1.90644754188394     -0.39244854152779
  O   1.73057832646879     -0.74725260322673     -2.21858671418519
  C   1.22135348478239      0.71494687308027      0.74163864147126
  H   2.26447294721110      0.93041242693566      0.50163516770935
  H   0.77206614794915      1.63783006061670      1.11081935717703
  H   1.19613967207756     -0.05030685139435      1.51901185759933
