16
Coordinates from ORCA-job run
  C   -0.85776882563513     -0.37845457085639      0.15307794582632
  C   0.47278015941151      0.35961067054272     -0.10010015387524
  Cl  -0.60030426854170     -2.10068413342405      0.56819629854713
  H   0.22210501402157      1.41735164876724     -0.21840191365011
  C   -1.47148034644015      0.25107880031253      1.33993460046343
  N   -1.98781748052977      0.80572683434932      2.23932848725114
  N   -1.66828489237809     -0.33250796804140     -1.03019402219558
  H   -2.57917447863263     -0.74213817518049     -0.86325562353712
  H   -1.77176500547464      0.61746799818031     -1.36957128459376
  N   0.98698427612756     -0.04676663963083     -1.45091146875930
  O   0.72116733118561      0.70849928958490     -2.38379152664139
  O   1.62261619248013     -1.09262464844905     -1.52314054555207
  C   1.52963789840051      0.16299798757203      0.96300860703004
  H   2.39531720777317      0.78828097959468      0.73719188531969
  H   1.84797056104169     -0.87643733702239      1.00000086044298
  H   1.13801665719035      0.45759926370089      1.93862785392384
