16
Coordinates from ORCA-job run
  C   -0.98275262632273      0.07194144945644     -0.25958584192480
  C   0.53986030500981      0.15508857370376     -0.48932066950423
  Cl  -1.70832815091534      1.44554018407342     -1.16641315554321
  H   0.71810989301990      0.24117115412316     -1.56157145497406
  C   -1.50289174382358     -1.15712494911721     -0.89079045625914
  N   -1.91586230909793     -2.16042112291879     -1.34444655671705
  N   -1.33133068435870      0.22709217734792      1.12368999772420
  H   -2.33832812313201      0.20131640287974      1.23511387307863
  H   -0.91175219836422     -0.52988170196811      1.65328155647235
  N   1.18164873571275     -1.14822218496626     -0.10310236560443
  O   2.02904018459287     -1.59726028592806     -0.86671048099788
  O   0.84640443699964     -1.64621422289849      0.97230484617952
  C   1.21933562457534      1.26742861861364      0.28714669156984
  H   2.27883757610880      1.29265663063991      0.02458677353445
  H   1.10877207338158      1.11159638592906      1.35880041197304
  H   0.76923700661383      2.22529289102988      0.02801683099278
