16
Coordinates from ORCA-job run
  C   -0.95858330652144     -0.00827166368800     -0.25529152687614
  C   0.56770863442306      0.05116835477098     -0.46601221234241
  Cl  -1.63658736223865      1.43935573118819     -1.20354999053077
  H   0.75596517340565      0.01077808411282     -1.53897947565330
  C   -1.54978752603886     -1.18157207294776     -0.90619844384727
  N   -2.06524146931458     -2.11016143327804     -1.40838805624618
  N   -1.29739499079331     -0.01402490128712      1.11050331526810
  H   -2.29037864901705     -0.13024496227041      1.26410243225233
  H   -0.95835262034789      0.80267721455255      1.60037318660810
  N   1.14603493122185     -1.23571435956916      0.07523442927461
  O   1.53187572386518     -1.24764622619729      1.23940498693978
  O   1.17445013096881     -2.18280774253897     -0.70842190990985
  C   1.25409130284087      1.23453724571091      0.18321853184152
  H   0.83965507203027      2.16761188921851     -0.19602316910820
  H   2.31801493154610      1.20736150031821     -0.05802358571417
  H   1.16853002396999      1.19695334190456      1.26805148804382
