16
Coordinates from ORCA-job run
  C   -0.99935660084087      0.05392221156816     -0.19949048821153
  C   0.50490609011025      0.09999435507138     -0.53647932762555
  Cl  -1.78270658992888      1.33254970329726     -1.19386989815588
  H   0.61134559027889      0.07325585925228     -1.62124965918502
  C   -1.56000786480265     -1.22944044797041     -0.66579907325832
  N   -1.98339737961254     -2.27509852361675     -0.99784488587172
  N   -1.25410655580960      0.35345066694370      1.18025884321710
  H   -2.25072697380528      0.33815658460139      1.36368369684754
  H   -0.79166013582303     -0.34161919843792      1.75701563831648
  N   1.16635648919748     -1.16310462002226     -0.06059312925597
  O   0.92648720104006     -1.52480511015134      1.09201977445787
  O   1.93347572318208     -1.71708833450808     -0.83999108624034
  C   1.23562046985326      1.28089312703131      0.07423570801892
  H   0.77236706536915      2.21033847757878     -0.25562849279560
  H   1.19420269227315      1.23959116273603      1.16112172343647
  H   2.27620077931852      1.26900408662646     -0.25638934369447
