16
Coordinates from ORCA-job run
  C   -0.93009787533505     -0.03534242509607      0.17373539445845
  C   0.51798879143643      0.14383473561438     -0.34142025071031
  Cl  -0.90319893626704     -1.38321513241828      1.43836937763250
  H   0.43856706572927      0.74685367600841     -1.25053598457374
  C   -1.33114297377113      1.17096929873414      0.90582237797297
  N   -1.66285727060771      2.14708881774233      1.46902366778159
  N   -1.84393860385089     -0.25138185720080     -0.88122789859187
  H   -1.55291527025267     -1.02063001268488     -1.47144986266853
  H   -2.78660758460277     -0.39033948709002     -0.54044352567601
  N   1.01945787553675     -1.19880363658503     -0.82181064549655
  O   0.40600671682382     -1.70357698201345     -1.76293163181978
  O   1.98905059806735     -1.69368906348378     -0.26223146360358
  C   1.47783244547143      0.75056143681502      0.65597471722859
  H   2.47723080914958      0.79684237785836      0.22421739676582
  H   1.52624705382011      0.15811281030974      1.56854592030219
  H   1.15837715865250      1.76471544348992      0.89836241099829
