16
Coordinates from ORCA-job run
  C   -1.00784388742917     -0.04600607139822     -0.38515275494811
  C   0.53755406832839      0.10979412317446     -0.45983398581660
  Cl  -1.66709926814646      1.23378005206857     -1.46226737225462
  H   0.83905900779440      0.12665314071874     -1.50745933231379
  C   -1.37008426470872     -1.34807423872245     -0.96266472729903
  N   -1.61430291439726     -2.40350056165880     -1.41722480020647
  N   -1.64438327496980      0.09089183986176      0.89364528658500
  H   -1.52222168543620      1.03041507398857      1.25132819961238
  H   -1.24240386506239     -0.57682487406558      1.54290174582767
  N   1.16803546555346     -1.13331955794397      0.09881975843439
  O   1.96852627411350     -1.72904039058573     -0.61457381319782
  O   0.84522449055357     -1.45460391092378      1.24337504501343
  C   1.07240912365694      1.30335122557401      0.30573092291456
  H   0.86493563899680      1.20076259114103      1.37099969189321
  H   0.62227701051554      2.22362968079805     -0.06760212041083
  H   2.15331808063739      1.37109187797332      0.16897825616662
