16
Coordinates from ORCA-job run
  C   -0.97872005191744     -0.01686859899816     -0.16202872978131
  C   0.51926664096533      0.09590103795345     -0.51110992200109
  Cl  -1.77168926282603      1.47612669579065     -0.93335346830564
  H   0.60425783776584      0.12919308195890     -1.59750329204105
  C   -1.60720125796974     -1.15565477046566     -0.83889534618982
  N   -2.15060630311306     -2.05276767032141     -1.36810563832048
  N   -1.18419133804345     -0.12812438738994      1.22570680842985
  H   -2.15545871645408     -0.28082985327596      1.46376670533289
  H   -0.81623344584824      0.66099720177531      1.73930541363731
  N   1.17145681444905     -1.20727729474664     -0.11287175460641
  O   1.13953525389911     -2.10351307231533     -0.95422505542469
  O   1.67162568817860     -1.28108528192625      1.00467850620226
  C   1.24221461438624      1.25308551075311      0.14567227553238
  H   2.28164534399231      1.25864624976926     -0.18656121012433
  H   1.25135011874131      1.15408851691857      1.23009787311264
  H   0.78374806379426      2.19808263452011     -0.14257316545252
