16
Coordinates from ORCA-job run
  C   -1.02728783227150     -0.23791646674310     -0.15323354014895
  C   0.40544192325940      0.21881901820497     -0.50377044800201
  Cl  -1.75374973140841     -0.91269591817722     -1.65317474842573
  H   0.31508699995803      0.99722029027413     -1.26452231017112
  C   -1.03301630557519     -1.27314160425754      0.88593957524947
  N   -1.06287175112702     -2.03550644130352      1.77896432712071
  N   -1.87170735974944      0.83676662307881      0.29672070417495
  H   -1.65642265105066      1.11204995486454      1.24632923366162
  H   -1.82572185728514      1.63106165109611     -0.33021808468687
  N   1.17551686888873     -0.87768868813527     -1.17520001338939
  O   1.59759688280215     -0.65099545839974     -2.30593673123852
  O   1.34449418834448     -1.90787440146085     -0.52828331932090
  C   1.19541315284561      0.68387414448419      0.70544073803927
  H   1.29831936172395     -0.12371623118173      1.43153859107516
  H   2.19194478456356      1.00177127153126      0.39236440018765
  H   0.70596332608146      1.53697225612495      1.17704162587468
