16
Coordinates from ORCA-job run
  C   -0.96863396802468     -0.14820859663107     -0.21195618995696
  C   0.48336807909073      0.23364356839911     -0.53052913898523
  Cl  -1.74282308739678     -0.74124703667330     -1.70909418891581
  H   0.43626905707706      0.98666873481804     -1.31692427817513
  C   -1.07111686273854     -1.21047064120483      0.80258352890916
  N   -1.22189039330551     -1.96083147983826      1.69525188423202
  N   -1.65762996915769      1.06689999738984      0.18749613520406
  H   -2.65913225820561      0.90997706465339      0.14962496599257
  H   -1.41947278559299      1.28747475249538      1.14941895534546
  N   1.20828339861033     -0.93040790079711     -1.13233982132342
  O   1.34554301148138     -1.92445173447363     -0.42304427267344
  O   1.63226041159609     -0.79117104094635     -2.27656095464604
  C   1.25656341840208      0.71106592377635      0.68482442297625
  H   1.25368196019711     -0.04426769452936      1.47222399219870
  H   0.83098965911064      1.64337811891907      1.05832506212455
  H   2.29174032885637      0.91194796464272      0.40169989769325
