16
Coordinates from ORCA-job run
  C   -0.95707176517030     -0.03683515346566     -0.25919029100808
  C   0.56672786120765      0.08399140367114     -0.46152412922918
  Cl  -1.68362438594660      1.40963363706410     -1.17250996629729
  H   0.75970698408441      0.07885488896936     -1.53445365988640
  C   -1.50272521792478     -1.21338849663206     -0.94326676303789
  N   -1.98245845453744     -2.14640530166831     -1.47160416129395
  N   -1.30033899241180     -0.09080685576100      1.10432825462623
  H   -2.28871039968198     -0.24865804945509      1.25084570090840
  H   -0.99397719413841      0.72480138357257      1.61732042781395
  N   1.19124704847142     -1.19426328948123      0.04745829189059
  O   1.57702746720704     -1.22194939115398      1.21133890007214
  O   1.25557786781927     -2.11908708533213     -0.76022901494563
  C   1.20714980241017      1.27433459520189      0.22105727145612
  H   0.76262703429827      2.20141006706638     -0.13851105052056
  H   2.27286759215808      1.28967016621052     -0.01315220445367
  H   1.11597475215500      1.20769748119351      1.30409239390523
