16
Coordinates from ORCA-job run
  C   -0.91075402896771     -0.21951690968448      0.12675706415095
  C   0.48511409056220      0.33936160349304     -0.23946058533091
  Cl  -0.67599238998756     -1.96772427928142      0.68166606828508
  H   0.29989985194169      1.25975441464845     -0.80065974555114
  C   -1.41972700922783      0.49155853461841      1.30428919711345
  N   -1.84565039453856      1.07839661385168      2.22865859345668
  N   -1.83541357024108     -0.06860144719921     -0.92968126417126
  H   -1.48506990433816     -0.47233017067191     -1.78944424238104
  H   -2.74355001226711     -0.44743195525217     -0.69242247410064
  N   1.11965674595028     -0.59421010082741     -1.24477697523604
  O   0.53030640731524     -0.71860871640968     -2.31900524362172
  O   2.16174643944995     -1.15903128355114     -0.94002009204574
  C   1.40579742517803      0.57041449813359      0.93646221976632
  H   0.98116247805960      1.33692490400361      1.58576400791506
  H   1.55564582225168     -0.34520253918450      1.50687847853564
  H   2.37682804885933      0.91624683331316      0.58299499321529
