16
Coordinates from ORCA-job run
  C   -0.97522811418564     -0.04523354061447     -0.18199961912009
  C   0.52508493263956      0.11266810826883     -0.50137480125264
  Cl  -1.79653075633367      1.42324954675362     -0.97090059415967
  H   0.63026210513820      0.15073035125931     -1.58580228909467
  C   -1.55436513767021     -1.20310247470006     -0.87055969461278
  N   -2.05715050590321     -2.12411499010707     -1.39884682956558
  N   -1.20596244139832     -0.16295305567785      1.20086610014078
  H   -2.17744800797842     -0.34033758864306      1.41989451651222
  H   -0.86621364803554      0.63286104898173      1.72333979587185
  N   1.20927117718177     -1.17085252948845     -0.09293040732549
  O   1.68080698280965     -1.23533780515827      1.03763608015763
  O   1.22994104895092     -2.06230043516674     -0.93987147991977
  C   1.20055244727708      1.28950252082576      0.17116705744590
  H   0.71912394566570      2.22103655030218     -0.12325915056864
  H   2.24523781486192      1.32743157122972     -0.14172403849258
  H   1.19261815698021      1.18775272193484      1.25536535398351
