16
Coordinates from ORCA-job run
  C   -0.89024716889333     -0.29907818008035      0.14271672695105
  C   0.50908336113457      0.31466905222670     -0.06673382776491
  Cl  -0.83439208275998     -2.08706532231864      0.21194094860397
  H   0.38937254609398      1.39721848815165      0.03013859704064
  C   -1.35752070942166      0.15741478620141      1.46756521380936
  N   -1.75414988300022      0.58507139029719      2.48875223347100
  N   -1.74688289501017      0.06711690000760     -0.94871865491594
  H   -1.74434615031388      1.06994162941874     -1.09917453662962
  H   -2.69321004698716     -0.25761538080690     -0.79255570262316
  N   0.89991012765513      0.11826820114991     -1.50286454536724
  O   1.39315808632221     -0.96046221907350     -1.81288897545584
  O   0.68544466074975      1.06363990944172     -2.25894716330445
  C   1.58369105911569     -0.20281965156759      0.86241879355973
  H   2.51024785993561      0.34828242015006      0.69159804372223
  H   1.28260047832964     -0.05537387066163      1.90143070279968
  H   1.76724075704982     -1.26020815253637      0.68532214610350
