16
Coordinates from ORCA-job run
  C   -0.94827411572415     -0.06249322619768     -0.31815071135686
  C   0.54674519034089      0.25809448562826     -0.45244198194142
  Cl  -1.59757409284400     -0.44097340504902     -1.93867772361770
  H   0.61887358641333      1.09388034186662     -1.14810616327693
  C   -1.20878373314521     -1.21829005004474      0.55631172804783
  N   -1.48953799793364     -2.04718463103541      1.34162739169463
  N   -1.60867222534131      1.14448302974797      0.14939881805266
  H   -2.60774939667501      1.05812689326931     -0.00370086721265
  H   -1.46063474886596      1.24269815196824      1.14894738353300
  N   1.26584435496699     -0.87722908825104     -1.11259059722455
  O   1.81324887669733     -0.64076788797247     -2.18628545193369
  O   1.27404863927596     -1.95063313964486     -0.51443359431009
  C   1.21720908586992      0.54994626302551      0.87714291022888
  H   0.80500074583483      1.46058611717949      1.31378976642317
  H   2.28476458980334      0.71494002254011      0.71841415526942
  H   1.09549124132668     -0.28518387703030      1.56875493762430
