16
Coordinates from ORCA-job run
  C   -1.00202113061818      0.06034741695002     -0.17579800296890
  C   0.49407119971060      0.11768016863527     -0.54494959887441
  Cl  -1.80465605435044      1.37365449113242     -1.10686387726149
  H   0.57646461677013      0.12892962903603     -1.63214442853480
  C   -1.57711775692096     -1.20539890563785     -0.67259172788991
  N   -2.02980122907170     -2.23445134632295     -1.01758618331348
  N   -1.22595720014462      0.31189618971462      1.21891628340270
  H   -0.76067679519178     -0.40932836388631      1.75994842364563
  H   -2.21892390629188      0.30034196220002      1.42130632789179
  N   1.16738934510813     -1.16029876372761     -0.12854758111920
  O   1.94350512939031     -1.66578900715181     -0.93165086459475
  O   0.92943041271145     -1.58112256992288      1.00425367477072
  C   1.24057583630102      1.27604445417676      0.08972876798174
  H   1.22493339485485      1.19557544801006      1.17518209216763
  H   0.77099525984098      2.21703327210787     -0.19515044639694
  H   2.27278887790209      1.27488592468634     -0.26605285890635
