16
Coordinates from ORCA-job run
  C   -0.94701565689975     -0.06116420864298     -0.32264906726749
  C   0.54720586426942      0.26755165962889     -0.44602606301592
  Cl  -1.58851353400716     -0.41700611517058     -1.95138141476322
  H   0.61866295918456      1.11488945149982     -1.12765452483524
  C   -1.20587991088059     -1.23154363808607      0.53273409915192
  N   -1.48586103417233     -2.07361964833758      1.30417478714334
  N   -1.61423905746904      1.13554453413074      0.16091523676508
  H   -1.46951716957673      1.21984754246961      1.16220348254550
  H   -2.61247591502918      1.04709482552512      0.00361357057648
  N   1.27343022208983     -0.85396579020593     -1.12181070566511
  O   1.28296449043811     -1.93717864101240     -0.54163163337630
  O   1.82426049322525     -0.59775455911265     -2.18919714786359
  C   1.21181206096975      0.54019203900420      0.89058576131353
  H   2.27883888489088      0.71406329256677      0.73777482387016
  H   0.79363252493806      1.44068897526855      1.34233106359715
  H   1.09269477802892     -0.30763971952551      1.56701773182371
