16
Coordinates from ORCA-job run
  C   -0.96008078152679     -0.17142648436660     -0.23107973791986
  C   0.48992755838129      0.23851852980305     -0.52228101728550
  Cl  -1.68777412961644     -0.80102360049794     -1.73639192583255
  H   0.44408975081678      0.98295256834237     -1.31688539275469
  C   -1.06238358745944     -1.22194322799773      0.79564429041053
  N   -1.21741005339995     -1.96269418021514      1.69560572615197
  N   -1.68424896273602      1.03342915209234      0.13624097779149
  H   -1.47240607113820      1.27257744665008      1.09985153475672
  H   -2.68101903540018      0.85412253508032      0.07859634171315
  N   1.25247987210316     -0.91533711467742     -1.09688436957904
  O   1.70426631567539     -0.77504324120623     -2.23021974484357
  O   1.38716934877056     -1.90301984472697     -0.37831698578309
  C   1.22681533512087      0.74292027028677      0.70475419665277
  H   2.26245026948965      0.96642477830403      0.44087926981573
  H   1.22567772769402     -0.00745637631954      1.49692650623859
  H   0.77244644322531      1.66699878944862      1.06456033046735
