16
Coordinates from ORCA-job run
  C   -0.96220513847312     -0.16224405376264     -0.09129551402737
  C   0.47141237919353      0.24339609551109     -0.46727953946096
  Cl  -1.74714674166606     -0.88229563470275     -1.58304504610409
  H   0.40216319208222      1.04109200957709     -1.21018042096095
  C   -1.00982513274143     -1.18845526594903      0.95330215015567
  N   -1.10350448036183     -1.95715384543004      1.83650100107443
  N   -1.63503336680991      1.00065242382488      0.38256252774907
  H   -1.73492602262260      1.68293037411184     -0.36059514400479
  H   -2.55141640950190      0.77317593335742      0.74906149406424
  N   1.16908398422864     -0.87599339202245     -1.17571672063605
  O   1.26795653764674     -1.93658325903538     -0.56570414539004
  O   1.61684712598253     -0.63399746642087     -2.29310201436269
  C   1.30056576440420      0.64883114861997      0.73703016328532
  H   0.81419747565810      1.47331940765091      1.25625538182977
  H   1.41080550584371     -0.19270425643487      1.42230150823624
  H   2.29202532713718      0.96702978110483      0.40790431855218
