16
Coordinates from ORCA-job run
  C   -1.06558268993257      0.05851674980197     -0.16579781433258
  C   0.44007675952147      0.15332376004042     -0.54345921021530
  Cl  -1.83019089810779      1.51412339212916     -0.89367998352758
  H   0.52275643604312      0.31450609263891     -1.61853643210151
  C   -1.63458604899593     -1.12439780633975     -0.82687322313364
  N   -2.04410427131544     -2.08746282191513     -1.36075336146838
  N   -1.41796783157028      0.03133325186189      1.22504052412624
  H   -0.94649061038001     -0.74484139424713      1.67677411253159
  H   -1.15392690223630      0.89973027471679      1.67424558251257
  N   1.07447314590212     -1.18708008317294     -0.30811636008391
  O   1.66862619543578     -1.70269099204905     -1.24923600245509
  O   0.96542223274346     -1.66314473724872      0.82272223364742
  C   1.20769291417134      1.19196731760449      0.24943570301244
  H   2.24007675018794      1.23173076916190     -0.10301096629988
  H   0.76159508204165      2.17735720228793      0.11174281440136
  H   1.21412973649144      0.93802902472925      1.30950238338625
