16
Coordinates from ORCA-job run
  C   -0.92815533448456     -0.12875639426820      0.13542556557873
  C   0.51757601514387      0.32674225881480     -0.17647070980152
  Cl  -0.92540388771447     -1.97636332363942      0.18754357868214
  H   0.44454076161234      1.38219590159897     -0.45408409095188
  C   -1.28079000876816      0.29428287478260      1.49509032781051
  N   -1.57266452382262      0.65673195681279      2.57375523919460
  N   -1.86292172866926      0.42235073879451     -0.76828935460960
  H   -2.80535120835754      0.10893063775932     -0.57397268035551
  H   -1.60576048180469      0.23384980944187     -1.72910845429766
  N   0.96974555625036     -0.36582022007661     -1.44181027198481
  O   0.32739662946625     -0.11027706576782     -2.46114073187877
  O   1.93038823871745     -1.12180382145916     -1.38153364481395
  C   1.51003140533423      0.10464527891782      0.94141471007913
  H   1.22598479083512      0.70587244411780      1.80574525103488
  H   2.50419424958581      0.41225095604758      0.61843872830310
  H   1.55318952667586     -0.94483203187688      1.22899653801059
