16
Coordinates from ORCA-job run
  C   -0.95534715628614     -0.27781721186656      0.12953223683733
  C   0.47600763102931      0.29881627981049     -0.10651250781455
  Cl  -0.87800542675842     -2.06044258322373     -0.10753637058487
  H   0.35977687992567      1.38644407480324     -0.13333354585421
  C   -1.29791118410008     -0.01751528127578      1.53331129791719
  N   -1.56104481489654      0.24566634310132      2.64753465374586
  N   -2.01359871771738      0.23917382853804     -0.68814826440830
  H   -2.26123114337181      1.17812891410490     -0.39807476058030
  H   -1.73396754631773      0.25197044431813     -1.66203756487116
  N   0.90041466499771     -0.06448474560907     -1.50473476580821
  O   0.28876153265979      0.49133804093584     -2.41931202255187
  O   1.80089212361851     -0.88324760527616     -1.64691202169178
  C   1.52026179958995     -0.12452131207254      0.90144445386927
  H   2.48749779820204      0.30179414228754      0.63329890442042
  H   1.24412781229985      0.24239800992130      1.89092639276127
  H   1.62136574712526     -1.20770133849695      0.93255388461391
