16
Coordinates from ORCA-job run
  C   -1.03407060833095      0.07157350242036     -0.30288511179605
  C   0.50908335258865      0.08916947927839     -0.49520328125655
  Cl  -1.64679841378766      1.47257692366491     -1.24857258922882
  H   0.72929268153556      0.14600631978562     -1.56146914642398
  C   -1.56312236598938     -1.15217231549399     -0.92144988034780
  N   -1.94095807361497     -2.14934259251022     -1.41461333245498
  N   -1.55503655051940      0.18453829695381      1.02956502893597
  H   -1.31591919076811      1.08434082870499      1.42798619161004
  H   -1.17093914774234     -0.55722136317573      1.60501129379070
  N   1.05705941729056     -1.23993981372046     -0.06236624095176
  O   0.79329258532113     -1.60327691299405      1.08470854809344
  O   1.73996643038997     -1.85890294812036     -0.87174032520645
  C   1.21337794763837      1.17659348071772      0.29094854860249
  H   0.82719257746088      2.15639674389855      0.00842750016313
  H   2.28231565392989      1.15355886661816      0.07065227588842
  H   1.07826370459780      1.02510150397231      1.36200052058220
