16
Coordinates from ORCA-job run
  C   -0.93963355390156     -0.29116132006415      0.19784767246783
  C   0.46007314443247      0.29891810867993     -0.16252790398818
  Cl  -0.79755183289005     -2.08502313115957      0.20179174822766
  H   0.29906716275960      1.36714654484895     -0.33621472436597
  C   -1.25179523900983      0.14628423894640      1.56429871371435
  N   -1.49244467195242      0.54950823826603      2.64099003476673
  N   -2.04152606076008      0.07007280861594     -0.64591841339588
  H   -2.31090901962694      1.03390428252713     -0.48477979873452
  H   -1.79216640611150     -0.04892475711686     -1.62093860753622
  N   0.86058752887262     -0.24022480766246     -1.51043798937581
  O   0.19795921825398      0.15525703311810     -2.47164367469813
  O   1.79279549064593     -1.03337151927447     -1.56838614806782
  C   1.54788122439797      0.05806157798846      0.85930130286243
  H   1.69356968305089     -1.00604547432923      1.03530902909253
  H   1.28466775710768      0.54787693858449      1.79770309705312
  H   2.48942557473124      0.47772123803132      0.50360566197789
