16
Coordinates from ORCA-job run
  C   -1.02789793196838     -0.23720885347243     -0.14983319749196
  C   0.40099877645330      0.22918527678420     -0.50384080730585
  Cl  -1.76557994962685     -0.88503464086394     -1.65611038008743
  H   0.30238849698912      1.02247513992603     -1.24805096585281
  C   -1.02259328100729     -1.29198866412750      0.86947130195273
  N   -1.04398570122231     -2.07001087815274      1.74909614620601
  N   -1.86929611746700      0.82713736395795      0.32836826719088
  H   -1.65440060645554      1.07787379801716      1.28463323532904
  H   -1.82609061504994      1.63656038903957     -0.27892762379921
  N   1.16729315951325     -0.85230546256877     -1.20241616532724
  O   1.58215818302184     -0.60261281524270     -2.33092075355746
  O   1.34032226468405     -1.89563056598110     -0.57792280853665
  C   1.19999201862948      0.67325048588637      0.70745292362948
  H   0.71210854892593      1.51535428753142      1.19994374149825
  H   1.31160139116832     -0.14791817173964      1.41696143643645
  H   2.19298136341200      0.99987331100612      0.39209564971578
