17
Coordinates from ORCA-job run
  C   -0.55444315109065     -0.29866105468540      0.27589803471512
  C   0.71600681496531      0.35478184474298     -0.28044226451745
  Br  -0.07325501637065     -1.73922689635899      1.47271603442410
  H   0.42086064067946      1.29382388017356     -0.75427307977489
  N   -1.38150130829090      0.76165415413827      1.01892746830996
  O   -1.61135266792027      1.75848357707566      0.34211873579318
  O   -1.80037419136306      0.52904556887367      2.13879901143292
  C   -1.44827430381358     -0.81978480444824     -0.83542079611018
  H   -2.37945766438809     -1.19567162706141     -0.40717341635759
  H   -0.94288715100424     -1.61723565185119     -1.37407037130923
  H   -1.66880219729376     -0.00569241687541     -1.52829455284881
  N   1.37725922420329     -0.48880995327879     -1.19993219699066
  H   2.11344882671275      0.01030127487624     -1.68044126037831
  H   1.78743244488554     -1.28581153217071     -0.72809634250710
  N   1.60373652211113      0.80003901160308      0.90020717944324
  O   2.77252677353867      0.43218506445010      0.89565340073903
  O   1.06707640443906      1.51057956079658      1.74282441593667
