17
Coordinates from ORCA-job run
  C   -0.65790196767491     -0.44824954804797     -0.02178202495705
  C   0.87119925722389     -0.33252579104154      0.08126155682971
  Br  -1.15829415139178     -1.97996179472916     -1.10495884153217
  H   1.26910370234489     -1.26416485815371      0.47707682798141
  N   -1.10199983225133     -0.78383545705281      1.41099824319353
  O   -2.05302566276809     -0.15830554208794      1.86026131286026
  O   -0.47609848660122     -1.66255920179560      1.98840816584511
  C   -1.36881804965896      0.78992855340425     -0.50889095300651
  H   -1.04006878379315      1.02813360512069     -1.51937124157418
  H   -1.15590140967870      1.62645362947631      0.15766528889916
  H   -2.44398898080392      0.62318559435977     -0.50921737424428
  N   1.19845847246956      0.76670354612777      0.92143003226672
  H   1.12437666029313      1.64358453868860      0.42042857849632
  H   2.13036286622570      0.67385089055171      1.30278152456029
  N   1.46759274577733     -0.21030705640803     -1.31567329376970
  O   1.40687311552613      0.90054129657172     -1.84247226436064
  O   1.98513050476142     -1.21247240498406     -1.79794553748796
