17
Coordinates from ORCA-job run
  C   -0.48178571478620     -0.29285631070016      0.31877566228032
  C   0.76201099187999      0.42240084355885     -0.26685842726096
  Br  0.05837731410309     -1.69610699527834      1.52881108783259
  H   0.39738174141167      1.33041157124717     -0.75200953529047
  N   -1.34465385887813      0.74693389216545      1.04816269252640
  O   -1.71738541457499      1.65843738906469      0.31514087484543
  O   -1.62141313243318      0.59907473816832      2.22569680012140
  C   -1.34855808925103     -0.87138105877653     -0.78583600127586
  H   -0.81901028335299     -1.67711376379562     -1.29202572025326
  H   -1.60525351879159     -0.08732933627253     -1.50076603474351
  H   -2.26726958351756     -1.27765043356419     -0.35935055159818
  N   1.57395754229611     -0.31671788072946     -1.15984693045770
  H   1.84195489788725     -1.22230221610693     -0.80024676409432
  H   1.17084118066653     -0.38333946841713     -2.08190909022063
  N   1.60944808107447      0.90682763256392      0.89632770154200
  O   2.69804447780888      0.38046594326144      1.07679700986704
  O   1.09331336845768      1.78124545361105      1.58813722617968
