17
Coordinates from ORCA-job run
  C   -0.58880255938329     -0.58203218841702      0.02823943426520
  C   0.89226587050090     -0.26493002481353     -0.28036020055853
  Br  -0.77395859650823     -2.50801933813506     -0.08651148482446
  H   1.15209128816867     -0.83160769928504     -1.17488405619970
  N   -0.87471944097148     -0.13026369282284      1.45730065583686
  O   -0.44666872080973      0.99827649605329      1.69833798996297
  O   -1.53376033326004     -0.83075457440881      2.20586814244978
  C   -1.64405920931870      0.07667045856710     -0.84072453931117
  H   -1.60124463646298      1.16056068492581     -0.73149449081413
  H   -1.48463466056866     -0.17912522772126     -1.88671353770213
  H   -2.62652535970527     -0.28207616137468     -0.52924159906780
  N   1.73729252729444     -0.60785742972994      0.79859058963559
  H   2.68964903851612     -0.74325652496404      0.48998508356610
  H   1.72207952344839      0.11340814603302      1.50909576631901
  N   1.07180365885502      1.19529385550386     -0.75611011740234
  O   1.69813872472272      1.96171830943760     -0.03568834893213
  O   0.61105288548210      1.45599491115155     -1.86468928722313
