17
Coordinates from ORCA-job run
  C   -0.53848873692941     -0.32287707896853      0.28003017623413
  C   0.69722183485458      0.38716973256252     -0.28545907466948
  Br  0.01572974366154     -1.72420207720198      1.49171994942737
  H   0.35461186447606      1.30452073758570     -0.76972706573822
  N   -1.41676910683454      0.70272191538470      1.01274700068965
  O   -1.69727989717490      1.67911551054886      0.32526056631325
  O   -1.82199002228380      0.46198935698533      2.13597247311595
  C   -1.40610676546919     -0.90042934480362     -0.82417436061997
  H   -0.86125758958456     -1.67652197815119     -1.35547770562601
  H   -2.31627997424732     -1.31891273649195     -0.39030397451520
  H   -1.66891330831987     -0.10579636051499     -1.52484350237609
  N   1.39921888843712     -0.43261180006644     -1.19611535778710
  H   1.84899345522511     -1.20282480635615     -0.71605055557649
  H   2.10874305795666      0.09713472087583     -1.68380642577241
  N   1.56227915121383      0.88970101063003      0.88901770269513
  O   2.74780135939728      0.57990417256626      0.88759631888477
  O   0.99148604562141      1.58291902541563      1.72361383532070
