17
Coordinates from ORCA-job run
  C   -0.51835442831407     -0.54908444387763     -0.01663998622166
  C   0.98320500020947     -0.18009101162752      0.07295550536328
  Br  -0.73022986699897     -2.28953294865978     -0.85644105885668
  H   1.52420913335947     -1.02753511864544      0.48612732149997
  N   -0.95146655149605     -0.74170125108881      1.44319905384042
  O   -0.15676773340259     -1.31540304695126      2.18125670371272
  O   -2.04931984152611     -0.30818415807130      1.77012703095611
  C   -1.41784910855421      0.45887167800442     -0.68914049129662
  H   -1.33793638200420      1.43020003740852     -0.19731717977794
  H   -2.45302517614816      0.13099397846111     -0.62325545607094
  H   -1.13766266285778      0.56480324139311     -1.73506021783656
  N   1.29358448706294      0.99797117615312      0.81277968133198
  H   0.75259498064343      1.80441791260959      0.53693066379711
  H   1.25645302627275      0.83978257471137      1.80869604652894
  N   1.51532534412082      0.00847134978426     -1.32321027857838
  O   1.24864704459017      1.07969542312490     -1.86408955510885
  O   2.17859273504303     -0.90367539272868     -1.80491778328291
