17
Coordinates from ORCA-job run
  C   -0.55496897434305     -0.61589669844118     -0.02471485094679
  C   0.91505039504390     -0.19927856071364     -0.26069205526100
  Br  -0.62431147980599     -2.53979182578672     -0.24706243693352
  H   1.23995248554586     -0.70315250826019     -1.17133161367037
  N   -0.91251252552758     -0.25873830791803      1.41522094325394
  O   -0.57076036302727      0.88289625301849      1.72323293308807
  O   -1.53948442926417     -1.04010830819073      2.10907641078437
  C   -1.61691494736280      0.02938057092952     -0.89555524272896
  H   -1.63958863934064      1.10647342308231     -0.72896410458290
  H   -2.58719636587151     -0.39902713289722     -0.63846464127942
  H   -1.40911661887905     -0.16108910368020     -1.94695689243544
  N   1.73930514042772     -0.54897818239751      0.83209979852454
  H   2.70846444813670     -0.61467676099038      0.55470759500967
  H   1.65649781959385      0.13243689162456      1.57649867929673
  N   1.02499680236822      1.29123943594450     -0.65566286863585
  O   1.57459795179024      2.05457412758435      0.12793917427003
  O   0.59298930051560      1.58173668709208     -1.76837082775312
