17
Coordinates from ORCA-job run
  C   -0.57510440165933     -0.25829061353682      0.27490431877227
  C   0.73734435152414      0.31345144238413     -0.27506383721776
  Br  -0.19073067422309     -1.53808816532937      1.67227433075169
  H   0.48464669714008      1.18627054705154     -0.88144025883399
  N   -1.43346790002279      0.89204203501792      0.82284718950493
  O   -1.61270893708968      1.79222866586029      0.00910751172540
  O   -1.92175502028419      0.80814520202080      1.93566225446256
  C   -1.40169364625507     -0.91125186598288     -0.81856533858792
  H   -1.56618097075846     -0.19054796878756     -1.62164103814002
  H   -0.87247458222851     -1.77283167418403     -1.21740875148155
  H   -2.36361921376180     -1.22548731596952     -0.40898781124800
  N   1.44468442368502     -0.64305071769925     -1.03621740038560
  H   1.82164047255284     -1.37092179058488     -0.44117160993575
  H   2.21033271715001     -0.21077588339161     -1.53507493914791
  N   1.55312617742814      0.89853045945217      0.89576713127210
  O   2.71062975353921      0.51684043400448      1.02197039254869
  O   0.97433075326345      1.71573720967461      1.60303785594082
