17
Coordinates from ORCA-job run
  C   -0.52449065626982     -0.52558827919223      0.03262047229266
  C   0.92614495163344     -0.11215001195769     -0.33946714672348
  Br  -0.56670292410167     -2.46871441783134      0.05900676602537
  H   1.09807167314680     -0.47537016810312     -1.35323497036022
  N   -0.86772207391442     -0.05718499902202      1.44595802955253
  O   -0.15876454385562     -0.46817718256922      2.35795529023129
  O   -1.81745390308001      0.70753287634228      1.56319348203680
  C   -1.54304961668025     -0.00319607146011     -0.95492681292553
  H   -1.57598809344698      1.08620042839467     -0.93171595416150
  H   -2.53596609053658     -0.37939059164796     -0.71334247925061
  H   -1.26996528703600     -0.33374760956380     -1.95836058946435
  N   2.02021829419639     -0.46337752744336      0.49362315020557
  H   1.78317852755520     -0.39796762728507      1.47440729403518
  H   2.34883243588645     -1.39416734193857      0.28179295389956
  N   0.90389748974420      1.39505297679802     -0.46265504595697
  O   0.98415924904330      1.87714038691296     -1.58809189202814
  O   0.79260056771551      2.01210515956653      0.59323745259184
