17
Coordinates from ORCA-job run
  C   -0.60325172950345     -0.53068872324007      0.09054083554426
  C   0.86105535532389     -0.30424083764978     -0.33178655625805
  Br  -0.88889137652594     -2.43490532347777      0.31119693290937
  H   0.97158397292966     -0.70639823191045     -1.34059260499939
  N   -0.85172021794937      0.12079923032583      1.45709863203773
  O   -0.16471218915838     -0.26628591414261      2.39460077244724
  O   -1.71219265401762      0.99148589521859      1.50822473198542
  C   -1.58678125573679      0.01207694271386     -0.92413454762450
  H   -1.38457976043136     -0.44622667778310     -1.89314827074520
  H   -2.60440175070953     -0.22940994368568     -0.62241228835297
  H   -1.50335393591304      1.09436782153775     -1.01440379936826
  N   1.83866668475948     -0.83983885859705      0.52499465557782
  H   1.77659315558157     -0.48198858350655      1.46731206637864
  H   2.76926477350743     -0.72788714221519      0.14815104567444
  N   0.99231975813716      1.21871165654939     -0.54370268042535
  O   1.12541845580182      1.90021274885292      0.47006090993561
  O   0.96398271390444      1.63021594100995     -1.70099983471684
