17
Coordinates from ORCA-job run
  C   -0.51079600739664     -0.24982015319254      0.31053599614363
  C   0.78789528424965      0.38192636271906     -0.25133913550667
  Br  -0.09350104103763     -1.50508699995806      1.71615759933947
  H   0.47866774130364      1.22900398255660     -0.86751485983760
  N   -1.41099537669362      0.87519426927202      0.84075917151648
  O   -1.78208867412209      0.87027706304459      2.00154609044182
  O   -1.70913752212062      1.69642154287557     -0.02169967252008
  C   -1.29620190302678     -0.94786237597163     -0.78583080322989
  H   -1.48096352105632     -0.25171891393138     -1.60620502768304
  H   -0.74193061784764     -1.81191960306250     -1.14919387185877
  H   -2.25315004315248     -1.29351175313581     -0.39119282713461
  N   1.65602056154583     -0.46350302204099     -0.98236867072737
  H   1.32733805608408     -0.63526862290001     -1.92023080408911
  H   1.87897145335148     -1.32232107705575     -0.49871848208688
  N   1.54765911561478      0.99425333906010      0.91208751863265
  O   2.60844935140124      0.48370517271527      1.24189814869939
  O   0.99376314290311      1.94923078900548      1.45130962990060
