17
Coordinates from ORCA-job run
  C   -0.66145700803755     -0.43969535447015     -0.06365612446939
  C   0.87198645239702     -0.33941767223777     -0.04034835607435
  Br  -1.24389538997238     -1.74006641806095     -1.38246069988476
  H   1.28739812475908     -1.32795740126916      0.14209783092963
  N   -1.01389792346116     -1.04197927926374      1.30584294008050
  O   -1.92050476993316     -0.50955370846734      1.93206359642261
  O   -0.36007658068199     -2.01271957867240      1.66291314361992
  C   -1.39210861651069      0.86537463190305     -0.26071715736819
  H   -1.12948902581019      1.29104172353604     -1.22803462674852
  H   -1.12899644350354      1.56289101648553      0.53530056912554
  H   -2.46633611333301      0.69703969596627     -0.22060138163611
  N   1.26193963662283      0.57972345206996      0.97207576841458
  H   2.21726275203000      0.42139208630680      1.26361392402364
  H   1.16143970683859      1.53576832417586      0.65350609267738
  N   1.37734267407439      0.05163503451608     -1.42413852144916
  O   1.29277919934983      1.24309579058644     -1.72174232191954
  O   1.84961332517190     -0.83757234310452     -2.12471467574384
