17
Coordinates from ORCA-job run
  C   -0.54712768765305     -0.49913312352012      0.07081631986870
  C   0.91723259730905     -0.17598990955994     -0.33919232337182
  Br  -0.67197564451495     -2.43104960079035      0.23937187226380
  H   1.06241920621477     -0.61105870492877     -1.32855433641566
  N   -0.84880913023312      0.08922427723701      1.44841400351816
  O   -0.16123718505092     -0.30119432527475      2.38543623065731
  O   -1.74188944592956      0.92558959611322      1.51144348785459
  C   -1.55543245467196     -0.00716067171246     -0.94251355279904
  H   -1.31380605599733     -0.42841907418203     -1.91962729356411
  H   -2.56046775878080     -0.31666412456426     -0.65937781426311
  H   -1.53773407187565      1.08070029811674     -1.00673049877668
  N   2.00171016601890     -0.52266311015643      0.50765775938995
  H   2.27694839152909     -1.48326690601991      0.36357450823365
  H   1.78247710008461     -0.37124956931736      1.48309672963636
  N   0.96019435858031      1.31996025335848     -0.55868810885120
  O   0.92944310223915      2.00746953331651      0.45807698346080
  O   1.00805451273143      1.72490516188442     -1.71620396684168
