17
Coordinates from ORCA-job run
  C   -0.55615932685476     -0.50846309513209      0.25711689156681
  C   0.90382735184192     -0.02829790988145      0.24322552230950
  Br  -0.63948721745078     -2.44797603434078      0.28105118532783
  H   1.42234634760866     -0.45256171368297      1.10008443158919
  N   -1.08473506661914     -0.04745306207320      1.62482182875273
  O   -0.37502312949959     -0.27969318109367      2.59420464172007
  O   -2.17699576319533      0.50414725604652      1.64278266411501
  C   -1.42735460988012      0.03721069449708     -0.84704898175357
  H   -1.03983416056315     -0.28346429316168     -1.81287931662724
  H   -2.44591731188673     -0.32656408904820     -0.72836036252496
  H   -1.44953551627890      1.12652799591572     -0.79914371028713
  N   0.92613011566106      1.39266594365782      0.27772918718299
  H   1.81255640418287      1.73892065179495      0.61963173094765
  H   0.74239657300186      1.78266857617164     -0.63854735638093
  N   1.61752411055790     -0.60422813325872     -0.97428657212696
  O   1.40873814481071     -0.04106568076927     -2.04878479498659
  O   2.36252305456354     -1.56137392564173     -0.79159698882439
