15

C	-0.324037	0.159448	-1.495002
C	0.0	0.0	0.0
Br	-0.124735	-1.557617	-2.439107
H	1.096049	0.0	0.0
H	-1.37505	0.42862	-1.661485
C	0.652306	1.160742	-2.099662
H	0.60944	1.163293	-3.189661
H	0.406403	2.167306	-1.744726
H	1.650378	0.89434	-1.731675
C	-0.635125	-1.157876	0.614307
N	-1.170922	-2.077227	1.114826
N	-0.35402	1.21317	0.748799
H	0.463449	1.810849	0.741343
H	-1.136176	1.705587	0.331456
F	2.616727	0.0	0.0
