15

C	-0.144127	0.018958	-1.510003
C	0.0	0.0	0.0
Br	-2.046949	0.122473	-2.119445
H	1.098823	0.0	0.0
H	0.281036	0.965879	-1.849564
C	0.579956	-1.142458	-2.153415
H	1.590369	-1.095937	-1.728712
H	0.610348	-1.048239	-3.241019
H	0.111552	-2.093264	-1.889785
C	-0.538355	-1.223146	0.579947
N	-0.969089	-2.217427	1.036951
N	-0.468926	1.176894	0.713157
H	0.262692	1.874433	0.653316
H	-1.313063	1.53994	0.28349
F	2.593405	0.0	0.0
