15

C	-0.546752	0.027859	-1.425193
C	0.0	0.0	0.0
Br	0.277595	1.509429	-2.412822
H	1.093674	0.0	0.0
H	-0.199059	-0.86615	-1.947851
C	-2.054511	0.174784	-1.505071
H	-2.4009	0.213626	-2.539835
H	-2.530514	-0.676712	-1.007545
H	-2.350394	1.094194	-0.998648
C	-0.463849	-1.231496	0.629242
N	-0.864431	-2.211004	1.146157
N	-0.404295	1.190297	0.76384
H	0.444779	1.540536	1.194226
H	-1.063511	0.962706	1.497043
F	2.562991	0.0	0.0
