17
Coordinates from ORCA-job run
  C   -0.74548483715483      0.25924452265344     -0.04394846776108
  C   0.42319327697161     -0.23627558355710      0.80894108115216
  F   -1.39800908478269      1.24345842788928      0.64468812521160
  H   0.03042876181460     -0.49995907591574      1.79029993024277
  N   -1.71350883827296     -0.92655837768420     -0.08154646664403
  O   -1.98508368152645     -1.41640333440156     -1.17051533753141
  O   -2.14410884078189     -1.28340706052955      1.00922197725986
  C   -0.41921884143495      0.73269269638846     -1.42941709296110
  H   -1.34274885115147      1.01814893150495     -1.93223238428868
  H   0.05790491363668     -0.05179811090173     -2.01313036083098
  H   0.23838073712285      1.59943242096712     -1.36588295517594
  N   1.33268533680265      0.96554904061391      1.05972555246319
  O   1.11134567291812      1.63479104472541      2.06284743589309
  O   2.21153246829798      1.17081432299719      0.22319473856905
  N   1.06470547518596     -1.33252004814045      0.18400082642342
  H   1.64637093732140     -1.02539342241166     -0.58553711523639
  H   1.63061539503340     -1.85381639419777      0.83929051321446
