17
Coordinates from ORCA-job run
  C   -0.68535155554104      0.23820286643633      0.11902471425921
  C   0.78024247634916      0.13627931533856      0.61155799394839
  F   -1.43438530541191      0.41558725701680      1.25085030466351
  H   1.07371959446539      1.14172337014857      0.91846284223178
  N   -1.08837859630871     -1.11235771196325     -0.45205685244965
  O   -1.02045029773672     -1.23853427728024     -1.67055290836140
  O   -1.40288595643722     -1.97904086389265      0.35766795891149
  C   -0.97656733223710      1.33814688016125     -0.86171368953930
  H   -0.40036188633402      1.22302991437702     -1.77560027958719
  H   -0.72485974145944      2.29193682057105     -0.39512707083851
  H   -2.03999650806812      1.33139036138648     -1.10508438554223
  N   1.63975425476542     -0.19439431163353     -0.57969340914492
  O   2.06958579860406      0.75065406776143     -1.23661158216541
  O   1.81306608720343     -1.38642032771718     -0.81048632304255
  N   1.05669975613416     -0.79015370811311      1.65514526285321
  H   0.66104507457660     -0.45674305766303      2.52374108392268
  H   0.68012413743607     -1.70730659493448      1.45147633988090
