17
Coordinates from ORCA-job run
  C   -0.69019058194249      0.33232364956217      0.06114601312092
  C   0.56084957375673     -0.17467922100964      0.80982651783491
  F   -1.28118629214854      1.30001014038294      0.81997525591660
  H   0.28917446814134     -0.24265950478931      1.86373490858636
  N   -1.62642012867125     -0.87061993852380      0.09784788134769
  O   -1.74850059255271     -1.52404197676619     -0.93369734623247
  O   -2.12681228307193     -1.12501089170736      1.18796219323976
  C   -0.50687096929266      0.83045776576219     -1.34378062655657
  H   -1.48520670804213      1.01386360758682     -1.78867400104061
  H   0.02903514687405      0.11580734863953     -1.96450264477881
  H   0.05021103901519      1.76646727963876     -1.31312128383802
  N   1.58356395934579      0.93013478515158      0.71493538450102
  O   1.57711292968756      1.77658980425281      1.60326481678767
  O   2.31184692174144      0.91032650206892     -0.27330819252709
  N   1.14514962689961     -1.38860974586855      0.36208398472197
  H   1.24078174498932     -1.45041098223660     -0.64075660478001
  H   0.67646214527070     -2.19994862214426      0.73606374369670
