17
Coordinates from ORCA-job run
  C   -0.64248058194347     -0.10699332187520     -0.02378443965158
  C   0.86006063099783      0.09206533326370      0.21819121153317
  F   -1.19920852084373     -0.79625179333641      1.00926529534918
  H   1.25018498720860      0.82770021862700     -0.48224988931284
  N   -0.84954766956654     -0.91584514452590     -1.28788767622336
  O   -0.16127130698012     -0.54697816988369     -2.23730450102578
  O   -1.69309794530358     -1.79682620237212     -1.28122860404671
  C   -1.37235123305189      1.20290771935146     -0.19620593095460
  H   -1.00678775365823      1.73450031317135     -1.07479690858811
  H   -2.43863909988238      0.99956457705750     -0.30997962873236
  H   -1.22679270452603      1.81619647418961      0.69394801101790
  N   1.61927496863465     -1.17853792454899     -0.11317794986724
  O   1.08411251529515     -2.23833978164924      0.20275060008479
  O   2.73001780880001     -1.03648864486025     -0.60798528487369
  N   1.17312036126719      0.44341776464839      1.56044716957063
  H   1.35631921241920      1.42356844587883      1.69494461405681
  H   0.51808633113334      0.07634013686396      2.23405391166378
