17

C	-0.30716	0.079068	-1.488163
C	0.0	0.0	0.0
F	-0.148931	-1.244751	-2.026566
H	1.093924	0.0	0.0
H	-0.343962	0.939227	0.450261
N	-1.644675	0.5162	-1.78481
H	-2.29436	-0.101572	-1.31119
H	-1.802521	0.412904	-2.782174
C	0.743103	0.922843	-2.18069
H	0.693254	0.782768	-3.265693
H	1.716716	0.622931	-1.77256
H	0.574947	1.976867	-1.945175
C	-0.594625	-1.204187	0.712162
H	-0.206598	-2.124479	0.273727
H	-1.692589	-1.243202	0.67491
H	-0.304059	-1.189571	1.766534
F	2.795048	0.0	0.0
