17

C	-0.292576	-0.152137	-1.485024
C	0.0	0.0	0.0
F	-1.562883	-0.824389	-1.689204
H	1.093444	0.0	0.0
H	-0.392585	0.956412	0.367459
N	-0.367126	1.129008	-2.113599
H	-1.106077	1.668618	-1.67856
H	-0.589862	1.00945	-3.095126
C	0.781582	-0.997157	-2.142363
H	1.747529	-0.641594	-1.759375
H	0.655533	-2.039827	-1.840306
H	0.716768	-0.943363	-3.235457
C	-0.506508	-1.159037	0.847175
H	-0.184009	-1.021729	1.883649
H	-0.072613	-2.101619	0.502963
H	-1.595817	-1.260457	0.828178
F	2.788692	0.0	0.0
