17

C	-0.071563	-0.005616	-1.518668
C	0.0	0.0	0.0
F	-1.379605	0.243118	-1.999346
H	1.095592	0.0	0.0
H	-0.365714	0.974553	0.350207
N	0.794653	1.039849	-2.048549
H	1.690492	0.86704	-1.56844
H	0.451772	1.917616	-1.664056
C	0.411393	-1.325154	-2.084981
H	0.456534	-1.247507	-3.171831
H	1.410709	-1.48929	-1.676855
H	-0.250278	-2.147827	-1.805099
C	-0.658926	-1.149079	0.740134
H	-0.604343	-0.988256	1.821134
H	-1.715741	-1.262228	0.470657
H	-0.149474	-2.093831	0.535213
F	2.771795	0.0	0.0
