17

C	-0.177774	-0.013177	-1.524982
C	0.0	0.0	0.0
F	-0.177218	1.347727	-1.923528
H	1.096338	0.0	0.0
H	-0.439123	0.904552	0.429707
N	0.965643	-0.620125	-2.170014
H	0.829989	-1.624023	-2.197719
H	1.789252	-0.435221	-1.563926
C	-1.47564	-0.581824	-2.067667
H	-1.589679	-1.636359	-1.80517
H	-2.323168	-0.02837	-1.658328
H	-1.47573	-0.480849	-3.15487
C	-0.487755	-1.265983	0.689566
H	-1.576932	-1.3986	0.657439
H	-0.180007	-1.260151	1.73939
H	-0.02225	-2.14597	0.232727
F	2.778301	0.0	0.0
