17

C	-0.180306	-0.014972	-1.517288
C	0.0	0.0	0.0
Br	-2.092259	-0.261221	-2.078092
H	1.099062	0.0	0.0
C	0.200436	1.2861	-2.067973
N	0.495086	2.334367	-2.512147
C	0.683641	-1.113268	-2.126168
H	0.309749	-2.089201	-1.809938
H	0.688825	-1.060745	-3.215761
H	1.681224	-0.942762	-1.69758
C	-0.47741	-1.242654	0.575056
N	-0.860839	-2.236098	1.07542
C	-0.559308	1.216291	0.720675
H	-0.349087	1.130631	1.78932
H	-0.059704	2.116151	0.355387
H	-1.640812	1.321026	0.582027
F	2.572656	0.0	0.0
