17

C	-0.257369	0.074221	-1.520946
C	0.0	0.0	0.0
Br	0.123579	-1.690616	-2.324055
H	1.096496	0.0	0.0
C	-1.647385	0.379325	-1.85603
N	-2.756866	0.691265	-2.094137
C	0.725002	1.075035	-2.134576
H	0.734224	0.996392	-3.222688
H	0.426885	2.09115	-1.860483
H	1.70228	0.842378	-1.689296
C	-0.614832	-1.150509	0.629575
N	-1.129942	-2.042478	1.198514
C	-0.427254	1.290481	0.709793
H	-0.273403	1.164884	1.783426
H	-1.476116	1.553298	0.537405
H	0.218359	2.108214	0.388325
F	2.597285	0.0	0.0
