17

C	-0.255509	0.075654	-1.52242
C	0.0	0.0	0.0
Br	0.127856	-1.690721	-2.323288
H	1.096512	0.0	0.0
C	-1.64587	0.377005	-1.858284
N	-2.758234	0.683632	-2.08426
C	0.728743	1.075288	-2.133249
H	1.702232	0.843662	-1.676994
H	0.749432	0.990912	-3.219635
H	0.429448	2.093083	-1.867083
C	-0.61565	-1.15161	0.624877
N	-1.127454	-2.04347	1.195939
C	-0.432051	1.287665	0.709395
H	-1.482857	1.542776	0.53995
H	-0.27191	1.163414	1.782162
H	0.206681	2.109543	0.385616
F	2.597552	0.0	0.0
