17

C	-0.18202	-0.017418	-1.517179
C	0.0	0.0	0.0
Br	-2.095432	-0.260287	-2.076068
H	1.099063	0.0	0.0
C	0.202864	1.280467	-2.07203
N	0.496639	2.329119	-2.515206
C	0.67903	-1.120733	-2.123395
H	1.677218	-0.953349	-1.694364
H	0.30181	-2.094611	-1.806177
H	0.685149	-1.070439	-3.213232
C	-0.476469	-1.24163	0.577699
N	-0.854363	-2.235952	1.080656
C	-0.558021	1.217089	0.720819
H	-1.641602	1.316859	0.594279
H	-0.066512	2.117381	0.346267
H	-0.335042	1.136961	1.787469
F	2.571005	0.0	0.0
