17

C	-0.462427	0.00823	-1.467627
C	0.0	0.0	0.0
Br	0.391382	1.521633	-2.413768
H	1.095746	0.0	0.0
C	0.018714	-1.201881	-2.137029
N	0.329777	-2.200539	-2.676376
C	-1.970087	0.138894	-1.663492
H	-2.230112	0.111394	-2.723496
H	-2.316939	1.084256	-1.243056
H	-2.46775	-0.688262	-1.1489
C	-0.515064	-1.207526	0.61825
N	-0.955748	-2.169627	1.134883
C	-0.415066	1.229092	0.80682
H	-0.010989	2.123669	0.330824
H	-1.496551	1.339536	0.941659
H	0.05299	1.148051	1.790109
F	2.522698	0.0	0.0
