17

C	-0.501122	-0.101366	-1.440421
C	0.0	0.0	0.0
F	-1.833552	-0.430912	-1.435818
H	1.092074	0.0	0.0
N	-0.410055	1.265713	-2.102858
O	0.724401	1.71507	-2.221143
O	-1.449996	1.805759	-2.466539
C	0.287216	-1.091579	-2.252135
H	1.344098	-0.818983	-2.225918
H	-0.087502	-1.112624	-3.278643
H	0.157592	-2.070574	-1.789999
N	-0.3774	-1.234287	0.685036
H	-1.29033	-1.153276	1.112498
H	0.315557	-1.423422	1.398158
C	-0.519739	1.203802	0.664254
N	-0.970717	2.112579	1.257382
Cl	3.278374	0.0	0.0
