17

C	-0.494266	-0.042446	-1.443386
C	0.0	0.0	0.0
F	-1.857015	-0.206184	-1.444514
H	1.092362	0.0	0.0
N	-0.230198	1.304987	-2.098494
O	-1.192149	1.989092	-2.428982
O	0.951334	1.589087	-2.246565
C	0.165029	-1.1191	-2.258482
H	-0.099531	-2.077261	-1.813562
H	-0.195846	-1.073537	-3.288699
H	1.246205	-0.986785	-2.220392
N	-0.428388	-1.232092	0.652035
H	0.194839	-1.418179	1.426427
H	-1.373803	-1.142638	0.999553
C	-0.493836	1.210529	0.676997
N	-0.911555	2.135034	1.270522
Cl	3.30887	0.0	0.0
