17

C	-0.50383	-0.12459	-1.439007
C	0.0	0.0	0.0
F	-1.84074	-0.43585	-1.428707
H	1.092131	0.0	0.0
N	-0.397156	1.233918	-2.119613
O	-1.43609	1.818288	-2.408822
O	0.743865	1.637454	-2.31557
C	0.271137	-1.140852	-2.230786
H	-0.102938	-1.173267	-3.257954
H	1.331396	-0.883918	-2.208001
H	0.126631	-2.110274	-1.752224
N	-0.372222	-1.225549	0.706223
H	0.341172	-1.415794	1.396875
H	-1.268836	-1.133737	1.163367
C	-0.517828	1.213556	0.644649
N	-0.973046	2.1452	1.199004
Cl	3.277723	0.0	0.0
