17

C	-0.432689	-0.154649	-1.469316
C	0.0	0.0	0.0
F	-1.727425	-0.619852	-1.523322
H	1.093217	0.0	0.0
N	-0.449463	1.205152	-2.145678
O	0.635123	1.772843	-2.198011
O	-1.516095	1.623222	-2.583272
C	0.478385	-1.064613	-2.248438
H	0.139499	-1.129939	-3.284909
H	0.444687	-2.058432	-1.800045
H	1.501488	-0.690838	-2.187451
N	-0.379611	-1.153811	0.804847
H	-1.234106	-1.578399	0.471109
H	0.378472	-1.822904	0.799785
C	-0.563241	1.22111	0.585051
N	-1.049821	2.185042	1.046875
Cl	3.289219	0.0	0.0
