17

C	-0.437059	-0.133716	-1.469118
C	0.0	0.0	0.0
F	-1.751297	-0.54182	-1.522203
H	1.093248	0.0	0.0
N	-0.397083	1.232085	-2.135154
O	0.725815	1.679226	-2.345913
O	-1.463856	1.781888	-2.390979
C	0.43038	-1.085469	-2.247812
H	0.110085	-1.113341	-3.291533
H	0.320065	-2.082082	-1.818371
H	1.472829	-0.777872	-2.165519
N	-0.383907	-1.160508	0.79224
H	-1.248732	-1.569214	0.464774
H	0.366213	-1.837433	0.771488
C	-0.555378	1.21624	0.602496
N	-1.032892	2.177071	1.079292
Cl	3.282766	0.0	0.0
