17

C	-0.598997	0.058631	-1.407228
C	0.0	0.0	0.0
F	-0.08116	1.136964	-2.069431
H	1.093073	0.0	0.0
N	-0.126568	-1.17526	-2.169704
O	-0.923286	-2.104582	-2.288263
O	1.014794	-1.138953	-2.608028
C	-2.103279	0.129184	-1.445162
H	-2.41547	1.069663	-0.987891
H	-2.533959	-0.712566	-0.907883
H	-2.449815	0.101265	-2.479023
N	-0.413603	-1.238257	0.659385
H	-1.147718	-1.081019	1.336005
H	0.39405	-1.618868	1.136683
C	-0.435909	1.200124	0.726623
N	-0.845498	2.113843	1.342091
Cl	3.268543	0.0	0.0
