17

C	-0.528844	-0.012259	-1.43312
C	0.0	0.0	0.0
F	0.026941	1.030646	-2.125148
H	1.096903	0.0	0.0
N	-0.030333	-1.26889	-2.147622
O	-0.399018	-1.388051	-3.314817
O	0.699073	-2.048495	-1.544143
C	-2.026524	0.044943	-1.564404
H	-2.472704	-0.790765	-1.028624
H	-2.296496	0.011997	-2.618273
H	-2.375121	0.983053	-1.129814
N	-0.548405	-1.151551	0.737789
H	0.195076	-1.839535	0.778414
H	-0.757603	-0.873714	1.688268
C	-0.447034	1.250051	0.616487
N	-0.85434	2.221885	1.135703
Cl	3.317151	0.0	0.0
