17

C	-0.539227	-0.002634	-1.432478
C	0.0	0.0	0.0
F	0.026284	1.035142	-2.123157
H	1.093058	0.0	0.0
N	-0.036994	-1.277915	-2.106271
O	-0.870607	-2.13101	-2.408061
O	1.166786	-1.341008	-2.303709
C	-2.03624	0.084391	-1.556967
H	-2.511016	-0.749348	-1.044811
H	-2.366911	1.031194	-1.128266
H	-2.316233	0.049344	-2.609603
N	-0.434887	-1.218312	0.6752
H	0.305835	-1.520462	1.293251
H	-1.274742	-1.070382	1.215853
C	-0.457184	1.227278	0.66526
N	-0.885164	2.158226	1.241126
Cl	3.314663	0.0	0.0
