17

C	-0.38618	-0.005663	-1.469827
C	0.0	0.0	0.0
Cl	-2.214489	0.081403	-1.592444
H	1.096184	0.0	0.0
H	-0.336977	0.948416	0.444653
C	0.17924	1.227676	-2.149654
H	1.268616	1.203673	-2.046376
H	-0.195953	2.139172	-1.677691
H	-0.089662	1.247658	-3.208927
C	0.065052	-1.282645	-2.149224
H	-0.370111	-2.146192	-1.648924
H	-0.21711	-1.281761	-3.205507
H	1.154437	-1.341247	-2.060123
N	-0.472842	-1.183222	0.711014
H	0.155535	-1.364772	1.483986
H	-1.399501	-1.017163	1.084149
Br	3.676395	0.0	0.0
