15

C	-0.494104	0.013409	-1.434631
C	0.0	0.0	0.0
F	-1.840435	0.453968	-1.450202
H	1.088256	0.0	0.0
H	0.081786	0.786892	-1.943441
N	-0.306023	-1.224936	-2.071725
H	-0.399614	-1.14136	-3.072311
H	-0.937119	-1.920712	-1.702003
N	-0.489291	-1.13719	0.822699
O	0.097337	-1.328677	1.879929
O	-1.447088	-1.795061	0.407932
N	-0.458093	1.261842	0.665556
O	-0.070712	2.291305	0.12574
O	-1.178215	1.18906	1.655635
Br	3.369188	0.0	0.0
