15

C	-0.531918	0.017917	-1.428864
C	0.0	0.0	0.0
F	0.049082	1.073542	-2.092296
H	1.088228	0.0	0.0
H	-0.172341	-0.893408	-1.920628
N	-1.953332	0.227829	-1.466373
H	-2.257293	0.210676	-2.432403
H	-2.407624	-0.531333	-0.975017
N	-0.408737	-1.234906	0.731062
O	-1.121459	-2.057814	0.146911
O	0.026427	-1.355457	1.868034
N	-0.544462	1.165932	0.754397
O	-1.512073	0.973982	1.488001
O	-0.008497	2.241557	0.52524
Br	3.364991	0.0	0.0
