15

C	-0.59494	0.005205	-1.39955
C	0.0	0.0	0.0
F	-1.943523	-0.447354	-1.277815
H	1.088081	0.0	0.0
H	-0.683196	1.031798	-1.749927
N	0.168204	-0.758796	-2.289671
H	-0.262404	-0.816293	-3.201062
H	0.404247	-1.669563	-1.922332
N	-0.45176	-1.241135	0.709562
O	-0.034998	-2.284068	0.215607
O	-1.206058	-1.153341	1.667863
N	-0.452879	1.167694	0.814136
O	0.091481	1.289858	1.904792
O	-1.307959	1.921111	0.347491
Br	3.369383	0.0	0.0
