16

C	0.0	0.0	0.0
C	-0.49226	0.110484	-1.442892
F	1.420722	0.0	0.0
H	-0.211707	-0.754643	-2.040306
H	-1.591517	0.192242	-1.314268
N	-0.497201	1.004968	0.88466
H	-0.333726	1.909514	0.45807
H	-1.518462	0.826058	0.83303
C	-0.435212	-1.359243	0.514394
H	-0.080528	-1.450281	1.54341
H	0.000863	-2.158626	-0.091484
H	-1.527461	-1.366487	0.476388
N	0.03648	1.276057	-2.189973
O	0.4392	1.080505	-3.338601
O	0.028087	2.38497	-1.653556
F	-2.881758	0.0	0.0
