16

C	0.0	0.0	0.0
C	-0.499554	-0.198177	-1.425468
F	1.413903	0.0	0.0
H	-1.586439	-0.348036	-1.314357
H	-0.248218	0.682747	-2.009171
N	-0.525739	1.280403	0.385643
H	-0.327255	1.393809	1.376399
H	-1.552818	1.087801	0.311561
C	-0.404733	-1.118192	0.945669
H	0.013667	-2.079301	0.644266
H	-1.496703	-1.132913	0.935298
H	-0.028924	-0.866129	1.943841
N	0.13912	-1.341143	-2.112897
O	0.910047	-1.094998	-3.044917
O	-0.13311	-2.48037	-1.734275
F	-2.878147	0.0	0.0
