16

C	0.0	0.0	0.0
C	-0.480968	0.05042	-1.457308
F	1.399312	0.0	0.0
H	-0.197395	-0.846618	-2.004836
H	-1.574164	0.168208	-1.355004
N	-0.504234	1.053581	0.823687
H	-1.527232	0.874064	0.766934
H	-0.33952	1.935054	0.348558
C	-0.452507	-1.329444	0.576067
H	-1.543807	-1.332255	0.5148
H	-0.12113	-1.369836	1.615786
H	-0.005768	-2.158849	0.020451
N	0.120844	1.171443	-2.209114
O	-0.113132	2.322715	-1.832014
O	0.838786	0.903485	-3.176988
F	-2.884225	0.0	0.0
