16

C	0.0	0.0	0.0
C	-0.481694	-0.041791	-1.455001
F	1.39383	0.0	0.0
H	-1.573614	-0.14824	-1.364837
H	-0.170852	0.869188	-1.967876
N	-0.538384	1.16702	0.634171
H	-1.562614	0.959852	0.582896
H	-0.363715	1.972427	0.038097
C	-0.440221	-1.221408	0.782031
H	0.003344	-2.127498	0.367268
H	-0.102695	-1.086682	1.812391
H	-1.530151	-1.250131	0.73076
N	0.103061	-1.154402	-2.238746
O	1.073204	-0.90313	-2.96149
O	-0.395403	-2.276343	-2.118355
F	-2.89311	0.0	0.0
