16

C	0.0	0.0	0.0
C	-0.493843	0.082367	-1.439494
F	1.413698	0.0	0.0
H	-1.581584	-0.074316	-1.366136
H	-0.223535	1.054358	-1.844392
N	-0.525607	1.179953	0.627004
H	-1.552428	1.007955	0.513598
H	-0.332482	1.100406	1.622213
C	-0.406794	-1.286263	0.700414
H	-0.031051	-1.242701	1.728809
H	0.00904	-2.167492	0.210655
H	-1.498632	-1.296183	0.686101
N	0.138803	-0.923208	-2.319896
O	0.998336	-0.532995	-3.11486
O	-0.223214	-2.097055	-2.223026
F	-2.879289	0.0	0.0
