16

C	0.0	0.0	0.0
C	-0.507956	-0.356792	-1.389134
F	1.414572	0.0	0.0
H	-1.61113	-0.343425	-1.265682
H	-0.15436	-1.331556	-1.731178
N	-0.503959	1.236095	0.52135
H	-0.30162	1.962807	-0.155133
H	-1.526592	1.057697	0.505633
C	-0.435369	-1.122602	0.926104
H	0.000803	-2.073921	0.607982
H	-1.526763	-1.145333	0.895553
H	-0.079848	-0.880637	1.929754
N	-0.144446	0.584504	-2.48322
O	0.407433	1.653148	-2.222475
O	-0.442246	0.23066	-3.626165
F	-2.897659	0.0	0.0
