16

C	0.0	0.0	0.0
C	-0.375464	0.192288	-1.481916
F	1.406005	0.0	0.0
H	0.492893	-0.110303	-2.074376
H	-0.603964	1.240802	-1.65125
N	-0.502296	1.128046	0.719823
H	-1.533762	0.961348	0.567442
H	-0.325345	0.955124	1.706032
C	-0.373933	-1.343628	0.607363
H	-1.461833	-1.38216	0.631701
H	0.045854	-1.360709	1.62001
H	0.04331	-2.175536	0.039467
N	-1.499441	-0.579997	-2.082239
O	-1.494023	-1.799037	-1.951779
O	-2.250671	0.03522	-2.830528
F	-2.735236	0.0	0.0
