16

C	0.0	0.0	0.0
C	-0.51352	0.0087	-1.437662
F	1.379245	0.0	0.0
H	-1.609133	0.03945	-1.343738
H	-0.132056	-0.85898	-1.974789
N	-0.510225	1.169415	0.655226
H	-0.299455	1.080874	1.64564
H	-1.536475	1.032161	0.547148
C	-0.445828	-1.306873	0.644998
H	-0.079847	-1.327306	1.67738
H	-1.539149	-1.287103	0.619396
H	-0.037558	-2.174295	0.115568
N	-0.01898	1.191982	-2.18084
O	-0.726042	2.196809	-2.222018
O	1.088102	1.097907	-2.722001
F	-2.903479	0.0	0.0
