15

C	-0.016091	-0.022324	0.009935
C	-0.522977	-0.237026	-1.429
Br	1.997185	0.078096	-0.049955
H	-1.625529	-0.238028	-1.217713
N	-0.540874	1.128864	0.662933
H	-0.289851	1.94434	0.109829
H	-1.586345	0.953206	0.541124
C	-0.320592	-1.224534	0.796746
N	-0.519818	-2.182431	1.446153
N	-0.066232	-1.486231	-2.005284
H	0.867585	-1.387222	-2.385198
H	-0.694244	-1.770381	-2.745477
C	-0.21693	0.948179	-2.24325
N	0.025988	1.856397	-2.950338
F	-2.814388	0.215645	-0.096355
