15

C	-0.010351	-0.022033	0.007094
C	-0.520255	-0.151299	-1.441006
Br	2.002873	0.082225	-0.050958
H	-1.622331	-0.165283	-1.227631
N	-0.533873	1.088417	0.728072
H	-0.283891	1.935224	0.223731
H	-1.579624	0.920245	0.597982
C	-0.312969	-1.268838	0.721868
N	-0.511066	-2.265411	1.31058
N	-0.064426	-1.363798	-2.091506
H	-0.694291	-1.604177	-2.845475
H	0.868407	-1.242009	-2.467143
C	-0.216364	1.08031	-2.184051
N	0.024568	2.028942	-2.836654
F	-2.809086	0.222135	-0.079564
