13

C	0.0	0.0	0.0
C	-0.482267	-0.094403	-1.437186
F	1.355004	0.0	0.0
H	0.411055	-0.24464	-2.057821
H	-0.390622	0.861663	0.526585
H	-1.137217	-0.958458	-1.527885
N	-0.369917	-1.193633	0.83852
O	-0.487703	-1.003052	2.045674
O	-0.365275	-2.298204	0.300064
N	-1.144609	1.166509	-1.777454
H	-1.413779	1.11733	-2.755676
H	-1.999979	1.042756	-1.201149
F	-2.574621	0.0	0.0
