13

C	0.0	0.0	0.0
C	-0.509234	0.070398	-1.440878
F	1.353816	0.0	0.0
H	-1.196751	0.916965	-1.443622
H	-0.368041	0.827742	0.594742
H	0.375263	0.284767	-2.055912
N	-0.352711	-1.211075	0.82723
O	-0.116231	-2.318674	0.355847
O	-0.703242	-1.000075	1.985883
N	-1.172542	-1.143593	-1.917879
H	-2.010708	-1.110662	-1.319407
H	-1.475476	-0.943543	-2.867072
F	-2.5641	0.0	0.0
