18

C	0.0	0.0	0.0
C	-0.416979	0.241257	-1.467405
F	1.388168	0.0	0.0
H	0.362635	0.925188	-1.826217
C	-0.485486	1.066994	0.960873
H	-1.574668	1.045741	1.036294
H	-0.161272	2.047993	0.604755
H	-0.050564	0.887947	1.946339
C	-0.417117	-1.33628	0.467862
N	-0.70035	-2.416527	0.82985
C	-1.780461	0.891959	-1.646411
H	-2.598349	0.337144	-1.178179
H	-1.991539	0.960542	-2.718239
H	-1.809492	1.906426	-1.240977
N	-0.241859	-1.014118	-2.203315
H	-0.238037	-0.804464	-3.195563
H	-1.059551	-1.596067	-2.03801
Br	-4.867866	0.0	0.0
