18

C	0.0	0.0	0.0
C	-0.51071	-0.072612	-1.439439
F	1.401054	0.0	0.0
H	-1.601178	0.007996	-1.351936
C	-0.4837	1.232715	0.729878
H	-0.171754	2.107319	0.160172
H	-1.574467	1.194276	0.791208
H	-0.050883	1.259261	1.732764
C	-0.362679	-1.224705	0.747917
N	-0.539837	-2.226281	1.334347
C	-0.147191	-1.392003	-2.116275
H	-0.623914	-2.241851	-1.623296
H	-0.485188	-1.370983	-3.155978
H	0.937664	-1.543398	-2.106229
N	-0.009051	1.106961	-2.149021
H	-0.62566	1.304906	-2.926827
H	0.912649	0.90757	-2.52182
Br	-3.946259	0.0	0.0
