18

C	0.0	0.0	0.0
C	-0.380401	-0.19355	-1.483143
F	1.408248	0.0	0.0
H	0.059071	0.681635	-1.982553
C	-0.531979	1.263688	0.62829
H	-0.072072	1.41503	1.606948
H	-1.616115	1.188202	0.746708
H	-0.297379	2.115887	-0.014388
C	-0.371594	-1.194838	0.783403
N	-0.593977	-2.169557	1.39858
C	-1.875166	-0.233661	-1.715899
H	-2.357179	-1.032945	-1.148285
H	-2.391233	0.675655	-1.416009
H	-2.060845	-0.40996	-2.777662
N	0.238125	-1.38057	-2.064503
H	-0.274144	-2.2014	-1.759059
H	1.192235	-1.468878	-1.736722
Br	-4.926269	0.0	0.0
