18

C	0.0	0.0	0.0
C	-0.416266	0.41683	-1.440906
F	1.396512	0.0	0.0
H	0.334823	-0.082747	-2.066883
C	-0.547379	0.857762	1.11606
H	-1.641516	0.868129	1.057949
H	-0.163979	1.874415	1.022274
H	-0.244589	0.455543	2.085594
C	-0.365034	-1.420684	0.205024
N	-0.547754	-2.572614	0.337223
C	-0.275338	1.9209	-1.627146
H	-1.07465	2.449084	-1.102346
H	-0.372215	2.147922	-2.689451
H	0.69248	2.28495	-1.26989
N	-1.717142	-0.006625	-1.895157
H	-2.484059	0.323243	-1.308085
H	-1.791069	-1.016256	-1.899908
Br	-4.502501	0.0	0.0
