18

C	0.0	0.0	0.0
C	-0.421075	0.022317	-1.481442
F	1.383343	0.0	0.0
H	0.27913	0.741328	-1.926488
C	-0.505814	1.183439	0.798292
H	-1.593604	1.143782	0.887957
H	-0.214141	2.109923	0.29724
H	-0.059996	1.16413	1.794945
C	-0.415328	-1.263037	0.643881
N	-0.705064	-2.261943	1.187995
C	-1.851936	0.478207	-1.717775
H	-2.59501	-0.096688	-1.157477
H	-2.08438	0.372663	-2.782257
H	-2.008321	1.524925	-1.449379
N	-0.09983	-1.288199	-2.058376
H	-0.867142	-1.922111	-1.850362
H	-0.07424	-1.194337	-3.067571
Br	-4.964789	0.0	0.0
