18

C	0.0	0.0	0.0
C	-0.383593	-0.327094	-1.459975
F	1.400827	0.0	0.0
H	0.056951	0.498172	-2.037256
C	-0.528673	1.317525	0.51183
H	-1.613449	1.25858	0.629691
H	-0.28449	2.107712	-0.202216
H	-0.072219	1.552167	1.475773
C	-0.379827	-1.124366	0.879279
N	-0.601729	-2.080688	1.523333
C	-1.878999	-0.383581	-1.688886
H	-2.368159	-1.123793	-1.0525
H	-2.389318	0.553252	-1.476795
H	-2.059967	-0.651638	-2.732099
N	0.232278	-1.562087	-1.932522
H	-0.270819	-2.351686	-1.541386
H	1.191985	-1.615293	-1.61247
Br	-4.927455	0.0	0.0
