14
Coordinates from ORCA-job run
  C   -0.56439382716466      0.19532368498958      0.45905036712963
  C   0.88072952386065     -0.28147517188989      0.59965598455194
  F   -1.14250699015235      0.13311737982532      1.72627093769041
  H   0.83954687910878     -1.33783874143886      0.87869899412363
  H   1.32915770410661      0.26894483164518      1.43781998448440
  C   -0.56016803670095      1.61019436844170      0.03886371688120
  N   -0.50937046977535      2.72861956161679     -0.31456183619538
  C   -1.38260548997244     -0.64858878112501     -0.49347273395259
  H   -0.92125192279801     -0.64108912916875     -1.47995369516556
  H   -2.40246246064208     -0.26664287764385     -0.55582253665264
  H   -1.41038670465047     -1.67287467031693     -0.11531464540754
  N   1.56916503056300     -0.14134931380651     -0.67522574193373
  H   1.90151781870162      0.80789755187786     -0.79314016099738
  H   2.37202894551565     -0.75423869300663     -0.71286863455638
