14
Coordinates from ORCA-job run
  C   -0.58781999056664      0.18510601066164      0.43342773706397
  C   0.86206414421670     -0.25229316767404      0.63855115066691
  F   -1.21603952538896      0.12155792953453      1.67627406567440
  H   1.26128274224103      0.31852934945434      1.48792661516875
  H   0.83733644285905     -1.30638225362388      0.92788317052756
  C   -0.60159579599383      1.59505222674668     -0.00307601078038
  N   -0.56385599843965      2.71098323950023     -0.36566318163821
  C   -1.34403781259038     -0.68970825204488     -0.54221693346440
  H   -0.84103388529125     -0.68187201317312     -1.50810879075566
  H   -2.36937458699028     -0.33420274594717     -0.65255428864648
  H   -1.36297598984166     -1.70992240577441     -0.15262180601722
  N   1.59852355623137     -0.10730133204935     -0.60871101504039
  H   2.41820576222644     -0.69874646874446     -0.60616831025219
  H   1.91032093732808      0.84919988313387     -0.72394240250666
