14
Coordinates from ORCA-job run
  C   -0.59786985335675      0.20537602701461      0.43531405167677
  C   0.86531026442869     -0.18215277955254      0.65543143930365
  F   -1.24462144524812      0.07992333411143      1.66616699924714
  H   1.25864463792547      0.46001078057718      1.44913870860733
  H   0.86719183793436     -1.20894156361015      1.03698888118769
  C   -0.67276069027467      1.62203472106552      0.03444503269604
  N   -0.71829134583386      2.75281201491215     -0.27696042956476
  C   -1.29913210305959     -0.67951279564945     -0.57176317464044
  H   -2.34474851915356     -0.38403248565034     -0.66771401473359
  H   -0.80734925737020     -0.59754720141600     -1.54062170152417
  H   -1.25620184090960     -1.71447023612963     -0.22374867799457
  N   1.60564279735984     -0.04259696142121     -0.58974473678461
  H   1.97812163037885     -0.92588105705612     -0.90393381399339
  H   2.36706388717914      0.61297820280453     -0.50099856348309
