14
Coordinates from ORCA-job run
  C   -0.50176830404796      0.29017500270177      0.28721920700489
  C   1.01139045524092      0.29860557767836      0.08482171812046
  F   -0.73396528205541     -0.19176815083752      1.58132737137307
  H   1.22143925175338      0.69113810036017     -0.91393656773061
  H   1.43780105782056      0.99885983296139      0.81685024841525
  C   -1.00758508986426      1.67421452846279      0.23721475876034
  N   -1.39797159063184      2.77864199093394      0.16130487153650
  C   -1.24852498575896     -0.59532832703504     -0.68748411822821
  H   -2.30582682657349     -0.62406727616251     -0.42090139918678
  H   -0.82289936884412     -1.59617233510406     -0.64260277024440
  H   -1.14898068508008     -0.20789889408422     -1.70341838915373
  N   1.51696849241594     -1.06260349326432      0.18483029034776
  H   2.47383226180360     -1.10073801352071     -0.14037716809781
  H   1.50709061382172     -1.35305854309003      1.15415194708329
