14
Coordinates from ORCA-job run
  C   -0.50511529927681      0.31802752902472      0.31285591667498
  C   1.00425649802682      0.28855786803399      0.06060076736954
  F   -0.70492829932023     -0.07396293261550      1.63773076625750
  H   1.19034870028919      0.63978155106598     -0.95868705242373
  H   1.46069970134466      1.01203894586766      0.74650513702171
  C   -0.99255869770673      1.70510942000992      0.19020127475988
  N   -1.35942895785402      2.81462881008243      0.07830343379640
  C   -1.28886716194005     -0.61806179428676     -0.58050677798569
  H   -2.33123014611230     -0.64321598163595     -0.26026289093486
  H   -1.24613746817969     -0.28417139792680     -1.61959961377510
  H   -0.85110080945569     -1.61169409694762     -0.49344641977322
  N   1.50291406880198     -1.06718202215165      0.23728318255832
  H   2.16572215968630     -1.30696593325367     -0.48491517473750
  H   1.95342571169657     -1.17388996526673      1.13393745119176
