14
Coordinates from ORCA-job run
  C   -0.50705526953909      0.15175749608208      0.26977968838627
  C   0.87717245819282     -0.45724751321938      0.05772470308189
  F   -0.74389559218391      0.23887888087005      1.63518435001303
  H   0.97396921036204     -0.72086104641763     -1.00591528863235
  H   0.88533210877062     -1.38704874741732      0.63343003587617
  C   -0.52288960036598      1.52132031138185     -0.27909157612275
  N   -0.51359617691469      2.58603848164570     -0.77320043514674
  C   -1.61327145711076     -0.68500015127967     -0.34531875284199
  H   -1.56045107671930     -1.69843706643029      0.05803497678863
  H   -2.58320689307562     -0.25697061573857     -0.09000104065108
  H   -1.51836391069765     -0.72439460685711     -1.43150810785758
  N   1.90975126271809      0.42894573090529      0.56503907841596
  H   2.72656956864904     -0.09371541577003      0.84765980234051
  H   2.19093536791437      1.09773426224502     -0.13981743364994
