14
Coordinates from ORCA-job run
  C   -0.42889256980631      0.19972137223845      0.13500914863099
  C   0.92512829976956     -0.51834687217214      0.14209353334819
  F   -0.55005152561941      0.85772238348755      1.36322846763162
  H   1.03490887402370     -1.06900976287841     -0.79665680082254
  H   0.88183857507645     -1.25241416935512      0.95327866578044
  C   -0.42848180850833      1.23422149605668     -0.91522925896476
  N   -0.39140092692650      2.02553429242635     -1.78169758685919
  C   -1.60820904426627     -0.73805369192589     -0.01727394935978
  H   -2.54313437715079     -0.18120698070503      0.05681950774182
  H   -1.57660795224712     -1.48138612813850      0.78176114666322
  H   -1.57376240537455     -1.24673624579179     -0.98243297048807
  N   2.08228353104127      0.32803500292795      0.33818018406559
  H   1.96125916100698      0.89035026690326      1.17062278183438
  H   2.21312216898132      0.95156903692663     -0.44870286920192
