14
Coordinates from ORCA-job run
  C   -0.52329820272010      0.19772546880024      0.46916470510929
  C   0.92129667724210     -0.27215133052791      0.70517148624599
  F   -1.18046548409827      0.12659214749993      1.69613693035765
  H   0.86627746376109     -1.31348442864411      1.03665542417975
  H   1.31839689418889      0.31235709803189      1.53934774707891
  C   -0.50702328035021      1.60914999242719      0.04109989438972
  N   -0.43999533728346      2.72117426057592     -0.32983297508630
  C   -1.28969965975737     -0.65278885450011     -0.52383898352245
  H   -0.84475985446512     -0.59338848986596     -1.51802490712310
  H   -2.32344877917407     -0.31047193291645     -0.58616078335430
  H   -1.28088191589030     -1.69049242145597     -0.18346566063962
  N   1.82593510798240     -0.17129778558445     -0.41852190807994
  H   1.53298153675934     -0.74599054904732     -1.19597130638088
  H   1.92668483380506      0.78506682520710     -0.73275966317472
