14
Coordinates from ORCA-job run
  C   -0.57191191604843      0.20938925979325      0.44377694756325
  C   0.86651648994057     -0.27489898253575      0.62317401630019
  F   -1.17557856303764      0.17954961208223      1.69990107812098
  H   1.30246834047753      0.28980581811120      1.45850768157948
  H   0.81253895653039     -1.32513074449360      0.92292260258729
  C   -0.54758003476456      1.61424085526546     -0.00781949845865
  N   -0.47989973519440      2.72389367986634     -0.38534195653011
  C   -1.37755921248721     -0.64915566869439     -0.50646155033544
  H   -2.39300248221017     -0.26125023107923     -0.59750317773774
  H   -0.89668143833219     -0.66634927983272     -1.48344010741924
  H   -1.42088793700665     -1.66469799144709     -0.10693414479372
  N   1.58115541001352     -0.16564959673536     -0.64042417721460
  H   1.92606934080319      0.77756196192419     -0.76956854047167
  H   2.37735278131605     -0.78830869222454     -0.65178917318999
