14
Coordinates from ORCA-job run
  C   -0.56772185156589      0.20782433700383      0.44669162485490
  C   0.87529251245534     -0.26288237214123      0.62186793053657
  F   -1.16456906594512      0.18094353566114      1.70644450148939
  H   1.31195102660704      0.31167476414391      1.45002609259320
  H   0.83148582150309     -1.31085876630759      0.93057875246597
  C   -0.56283025580624      1.60974754740852     -0.01507188144442
  N   -0.54352630151741      2.71358313763570     -0.41442232699637
  C   -1.37120298432959     -0.66357524604341     -0.49363329934511
  H   -1.40023137006369     -1.67799122073066     -0.08978399931394
  H   -2.39141931476891     -0.28684865141590     -0.57797360520383
  H   -0.89824795538305     -0.67992133745304     -1.47447197455008
  N   1.58148885615713     -0.15885536749913     -0.64693825291048
  H   1.91313261012575      0.78739425833319     -0.78852178013262
  H   2.38639827253156     -0.77023461859533     -0.65479178204317
