15

C	-0.509076	-0.050599	-1.417637
C	0.0	0.0	0.0
Br	-2.457691	-0.189467	-1.562283
H	1.098347	0.0	0.0
H	-0.101175	-0.906192	-1.9525
N	-0.053588	1.144519	-2.206955
O	-0.656479	2.202943	-2.099322
O	0.942249	0.947573	-2.900442
N	-0.440322	-1.231277	0.694126
H	-0.147173	-2.026721	0.128126
H	0.167663	-1.276592	1.511337
N	-0.426234	1.181553	0.697153
H	-1.269573	0.987852	1.22278
H	0.3185	1.464974	1.322727
H	2.787013	0.0	0.0
