15

C	-0.672761	0.061863	-1.357957
C	0.0	0.0	0.0
Br	0.059311	1.427309	-2.523411
H	1.092383	0.0	0.0
H	-1.740169	0.268682	-1.27868
N	-0.589555	-1.262107	-2.062046
O	0.514338	-1.697371	-2.349713
O	-1.665203	-1.822603	-2.280349
N	-0.361895	-1.280107	0.603631
H	-1.137447	-1.188433	1.24797
H	0.455402	-1.607881	1.109003
N	-0.372299	1.209327	0.72375
H	-1.156757	1.040988	1.341901
H	0.431188	1.482529	1.279118
H	2.784956	0.0	0.0
