15

C	-0.343303	-0.005328	-1.472929
C	0.0	0.0	0.0
Br	-2.26361	0.16311	-1.885476
H	1.106075	0.0	0.0
H	-0.021717	-0.937558	-1.930476
N	0.372754	1.064993	-2.251448
O	1.049907	0.6828	-3.203218
O	0.238222	2.231706	-1.89357
N	-0.438725	-1.202002	0.672632
H	-1.425075	-1.364572	0.496111
H	0.113792	-1.992248	0.361599
N	-0.579521	1.134679	0.705778
H	-0.148042	1.106769	1.624183
H	-0.25202	1.983752	0.256964
H	2.833339	0.0	0.0
