15

C	-0.445633	0.012153	-1.432708
C	0.0	0.0	0.0
Br	-2.40789	0.155519	-1.661957
H	1.103931	0.0	0.0
H	-0.16355	-0.909399	-1.930348
N	0.168341	1.122419	-2.232477
O	0.871715	0.778749	-3.180747
O	-0.04791	2.281614	-1.888652
N	-0.408507	-1.290105	0.550189
H	0.386085	-1.627312	1.089225
H	-1.16215	-1.109045	1.203664
N	-0.416235	1.14068	0.800109
H	0.414956	1.699845	0.967939
H	-1.082585	1.720361	0.305018
H	2.7412	0.0	0.0
