15

C	-0.662181	0.01602	-1.35962
C	0.0	0.0	0.0
Br	0.034213	1.383642	-2.558897
H	1.092829	0.0	0.0
H	-1.736793	0.189061	-1.282269
N	-0.552655	-1.311321	-2.051892
O	0.560843	-1.786473	-2.213943
O	-1.616761	-1.820463	-2.406973
N	-0.459496	-1.233364	0.643364
H	-1.031987	-0.958935	1.431904
H	0.371315	-1.69544	1.004111
N	-0.404969	1.191188	0.754767
H	-0.943948	1.834299	0.185732
H	0.456467	1.672204	1.003314
H	2.82081	0.0	0.0
