15

C	-0.412363	0.104523	-1.458482
C	0.0	0.0	0.0
Br	-0.17624	-1.532507	-2.479045
H	1.098852	0.0	0.0
H	0.168113	0.876967	-1.958088
N	-1.850991	0.50959	-1.612261
O	-2.685643	-0.102673	-0.94636
O	-2.103414	1.429314	-2.385558
N	-0.449704	-1.156286	0.741926
H	-1.289909	-1.556463	0.347799
H	0.292314	-1.84608	0.734758
N	-0.42784	1.279003	0.576385
H	0.371274	1.636541	1.092615
H	-1.159955	1.079961	1.248281
H	2.81945	0.0	0.0
