15

C	-0.557905	-0.015607	-1.395414
C	0.0	0.0	0.0
Br	-2.523909	-0.184482	-1.425293
H	1.093928	0.0	0.0
H	-0.176831	-0.865536	-1.953907
N	-0.167147	1.210144	-2.171669
O	-0.847043	2.225218	-2.101426
O	0.878632	1.083093	-2.808233
N	-0.320959	-1.292956	0.60167
H	0.458931	-1.53076	1.20793
H	-1.167022	-1.231973	1.157928
N	-0.37117	1.208396	0.701645
H	-1.268756	1.123898	1.163066
H	0.35239	1.401944	1.38564
H	2.741266	0.0	0.0
