13

C	-0.158131	-0.269792	-1.502628
C	0.0	0.0	0.0
Cl	-0.6451	1.517499	-2.273192
H	1.088956	0.0	0.0
H	-1.052861	-0.798261	-1.831736
H	-0.498676	0.895491	0.348844
N	1.012631	-0.782116	-1.969211
H	1.082563	-0.982304	-2.952601
H	1.865009	-0.495747	-1.431229
N	-0.543166	-1.141292	0.76092
O	-0.011864	-2.241006	0.614421
O	-1.524634	-0.938705	1.487365
F	2.683052	0.0	0.0
