13

C	-0.210912	-0.137383	-1.507005
C	0.0	0.0	0.0
Cl	-0.171985	1.592406	-2.279168
H	1.088701	0.0	0.0
H	-1.193438	-0.480054	-1.829696
H	-0.409602	-0.886336	0.487105
N	0.843719	-0.960423	-1.928404
H	0.939512	-1.008588	-2.930842
H	1.722321	-0.681503	-1.448352
N	-0.702331	1.154616	0.590047
O	-1.933328	1.167512	0.473041
O	-0.054502	2.013411	1.181921
F	2.669808	0.0	0.0
