13

C	-0.253703	-0.258316	-1.488021
C	0.0	0.0	0.0
Cl	-0.946087	1.332338	-2.203672
H	1.088683	0.0	0.0
H	-1.069668	-0.957406	-1.662384
H	-0.454158	0.885276	0.430826
N	0.929115	-0.650907	-2.146139
H	1.752799	-0.475571	-1.545107
H	0.879761	-1.608975	-2.453731
N	-0.429044	-1.153656	0.801578
O	-0.69591	-0.957092	1.987585
O	-0.452376	-2.267647	0.271102
F	2.620306	0.0	0.0
