13

C	-0.488029	0.008732	-1.412631
C	0.0	0.0	0.0
Cl	-2.436447	-0.216837	-1.379088
H	1.091455	0.0	0.0
H	-0.213809	-0.937353	-1.874599
H	-0.349155	-0.893519	0.512938
N	-0.105156	1.084432	-2.204006
H	-0.250661	1.965137	-1.733201
H	-0.510115	1.060486	-3.12683
N	-0.467294	1.126262	0.807353
O	-0.540533	2.248393	0.288747
O	-0.702166	0.919859	1.998363
F	2.521493	0.0	0.0
