13

C	-0.497352	0.058404	-1.427635
C	0.0	0.0	0.0
Cl	-0.209219	-1.592188	-2.218347
H	1.087282	0.0	0.0
H	0.199498	0.702871	-1.962939
H	-0.37194	0.899086	0.502623
N	-1.835794	0.515092	-1.591534
H	-2.447964	-0.072454	-1.038613
H	-2.112792	0.472099	-2.563969
N	-0.606026	-1.132925	0.743238
O	0.117883	-1.846965	1.427849
O	-1.836224	-1.287469	0.661279
F	2.598828	0.0	0.0
