18

C	-0.515042	0.010068	-1.446492
C	0.0	0.0	0.0
F	0.187294	-0.885024	-2.232549
H	1.095497	0.0	0.0
C	-1.998801	-0.306659	-1.595623
H	-2.186343	-1.321092	-1.247023
H	-2.606967	0.401923	-1.030903
H	-2.27015	-0.239568	-2.650531
C	-0.272925	1.351994	-2.022767
N	-0.170235	2.408564	-2.524021
N	-0.406771	-1.275122	0.679169
O	-0.667537	-1.228596	1.882273
O	-0.412972	-2.307595	0.010319
C	-0.466334	1.193397	0.81567
H	-1.553363	1.225659	0.933006
H	-0.122748	2.112166	0.339964
H	-0.014297	1.141562	1.803753
Cl	3.259893	0.0	0.0
