18

C	-0.430529	0.034151	-1.465352
C	0.0	0.0	0.0
F	-1.821744	0.224564	-1.53747
H	1.091912	0.0	0.0
C	0.261009	1.17565	-2.192773
H	0.018435	1.134127	-3.255908
H	-0.084551	2.127748	-1.790504
H	1.340701	1.087146	-2.048456
C	-0.164576	-1.21646	-2.204111
N	-0.018907	-2.129462	-2.928327
N	-0.484549	-1.263825	0.639451
O	-1.358754	-1.186994	1.50645
O	0.022488	-2.312777	0.249733
C	-0.48496	1.204798	0.782831
H	0.024749	2.097485	0.418136
H	-1.564992	1.332585	0.716113
H	-0.208894	1.078379	1.829664
Cl	3.285651	0.0	0.0
