18

C	-0.415447	-0.058452	-1.475041
C	0.0	0.0	0.0
F	0.046642	1.12418	-2.049897
H	1.091388	0.0	0.0
C	0.218402	-1.220175	-2.212178
H	-0.202494	-2.170337	-1.881956
H	1.290293	-1.206998	-2.002279
H	0.036813	-1.099168	-3.281928
C	-1.884276	-0.044003	-1.6428
N	-3.044534	-0.037223	-1.824369
N	-0.466661	-1.265857	0.648056
O	-1.62283	-1.288903	1.08274
O	0.315103	-2.213763	0.692774
C	-0.545565	1.202165	0.736893
H	-1.636019	1.216138	0.750258
H	-0.165457	2.101923	0.253155
H	-0.175392	1.19115	1.763774
Cl	3.37495	0.0	0.0
