18

C	-0.453969	0.010524	-1.47486
C	0.0	0.0	0.0
F	-0.372621	1.339316	-1.902243
H	1.091754	0.0	0.0
C	0.420773	-0.81078	-2.399799
H	1.460189	-0.523361	-2.220613
H	0.132306	-0.59968	-3.43268
H	0.314496	-1.873148	-2.192079
C	-1.881513	-0.366907	-1.58395
N	-3.007953	-0.68733	-1.680925
N	-0.423268	-1.310154	0.602929
O	0.060927	-2.332813	0.119884
O	-1.228744	-1.294313	1.534306
C	-0.545467	1.160374	0.799739
H	-1.637736	1.185717	0.798894
H	-0.154438	2.085126	0.376489
H	-0.198712	1.080069	1.830048
Cl	3.32758	0.0	0.0
