18

C	-0.508955	0.011111	-1.447183
C	0.0	0.0	0.0
F	0.130461	-0.969281	-2.187006
H	1.091437	0.0	0.0
C	-2.006114	-0.233157	-1.58177
H	-2.273653	-0.211357	-2.639425
H	-2.252065	-1.217056	-1.177259
H	-2.581451	0.527726	-1.052334
C	-0.172597	1.313698	-2.058065
N	0.030087	2.354111	-2.563485
N	-0.487776	-1.26882	0.62234
O	-1.419566	-1.198099	1.429993
O	0.031287	-2.316842	0.252547
C	-0.458801	1.199466	0.809376
H	-0.00167	2.098413	0.392183
H	-0.094604	1.089472	1.831123
H	-1.543253	1.312311	0.841888
Cl	3.292268	0.0	0.0
