15
Coordinates from ORCA-job run
  C   -0.51060409824325      0.14882760129435     -0.33575455779425
  C   0.81402021259374     -0.51680409956773     -0.70185878057049
  Cl  -1.52416739168143     -0.10246011809577     -1.88043479002183
  H   0.68646820290561     -1.59111979309236     -0.82287556057575
  H   1.23370934430097     -0.07327353010952     -1.60312682297552
  C   -1.26685815859553     -0.53856341679271      0.78315070357175
  H   -2.23999221968632     -0.06073242243000      0.91461891195633
  H   -1.43240642403355     -1.58998465135975      0.55001320875974
  H   -0.69793030874877     -0.45932665452609      1.70933575106037
  N   -0.28941272920948      1.50751522331039     -0.03137470556221
  H   -1.14330567015457      1.98989031926018      0.21492756858652
  H   0.19129985465596      2.00914725521801     -0.76701647312254
  N   1.81332551734683     -0.29881033500606      0.38346416273369
  O   1.71822891347908     -1.01256119697356      1.38006336921790
  O   2.64562495507071      0.58725581887062      0.20786801473629
