15
Coordinates from ORCA-job run
  C   -0.45241113775638      0.02951661688005     -0.27133455800311
  C   0.81964347241015     -0.68053401499326      0.18936555508781
  Cl  -0.91565645478957     -0.59710427543088     -1.90032183239138
  H   0.98927283885830     -0.47665716757010      1.24760118153914
  H   0.74968654608313     -1.75025541669277      0.00297386427925
  C   -1.58690274171405     -0.33736652041513      0.68045443905609
  H   -1.36636711185239      0.05580052978148      1.67718594272418
  H   -1.72992931196345     -1.41828980419749      0.74298470172135
  H   -2.51874036015678      0.10881077876017      0.32779056066998
  N   -0.19172497450073      1.43500526478238     -0.41337278464727
  H   0.28734361598262      1.80949264428616      0.39664561650360
  H   -1.04881182293204      1.94678845450043     -0.57898154373050
  N   2.02341247245333     -0.17451807822892     -0.52376243458628
  O   2.60889333961922      0.77359201492330     -0.00192398899846
  O   2.33229163025864     -0.72528102638542     -1.57530471922440
