15
Coordinates from ORCA-job run
  C   -0.52578458604217      0.16837490773965     -0.48073821175526
  C   0.90453286865366     -0.28112417313113     -0.78275778364889
  Cl  -1.44542273026370     -0.20037609536053     -1.99913138693124
  H   1.37631766593207      0.43108029374886     -1.46010887161485
  H   0.92253228411329     -1.29014770349689     -1.18525933646809
  C   -1.15384372339885     -0.65510284222144      0.63589801939341
  H   -1.08855977915996     -1.72670352153829      0.43802626415378
  H   -0.65080494750689     -0.43583691246302      1.58159697072728
  H   -2.20718511090673     -0.38711948802738      0.73773760653169
  N   -0.55324566718228      1.59220469958537     -0.29235080855588
  H   0.17082968635674      1.86673759919820      0.36151399210184
  H   -1.45643394983666      1.88945485218693      0.05617373403902
  N   1.70919332567325     -0.31664858860718      0.47296240899468
  O   1.95110489757300      0.76336379581194      1.01503378350639
  O   2.04776976599522     -1.41715682342508      0.90040361952612
