15
Coordinates from ORCA-job run
  C   -0.42583967754488      0.19283799388212     -0.38254909817856
  C   1.10073079238374      0.10048701211287     -0.38714203707607
  Cl  -1.06491792959677     -0.85151402331211     -1.69267712572617
  H   1.50455199522006      0.84799662702937      0.29726429497531
  H   1.47037274766807      0.25071336266491     -1.39813665003720
  C   -1.06602968448975     -0.24550534473498      0.92527498265051
  H   -2.14228533797643     -0.07248937496686      0.86802840535149
  H   -0.89403923154017     -1.29974809876494      1.13947608681926
  H   -0.65350243414718      0.34127180090957      1.75086564144893
  N   -0.71027491177868      1.56985921716302     -0.76277198237417
  H   -0.59057909819982      2.16537702247104      0.05119392421035
  H   -1.67574863371999      1.64604326664492     -1.06198279684875
  N   1.59665973450190     -1.21599966370124      0.09269581097971
  O   1.87382990910431     -2.06176373256274     -0.75421207145142
  O   1.67607176011559     -1.36656606483498      1.31267261525677
