15
Coordinates from ORCA-job run
  C   -0.38816854364912      0.25295283405520     -0.38600713791268
  C   1.13206401135156      0.18252602912123     -0.23698695678789
  Cl  -0.84757115950217     -0.54681010667345     -1.92397384517554
  H   1.60326660236745      0.51743856159814     -1.15732198501341
  H   1.43586417986337      0.79920181225888      0.61021488838134
  C   -1.15125285951096     -0.42149087968146      0.74317739359491
  H   -0.97010058127888     -1.49494716924980      0.78410466440250
  H   -2.21999980302841     -0.25353185946703      0.59798374893045
  H   -0.84840275248142      0.01138653501205      1.70074934514853
  N   -0.67451242397403      1.67236567362691     -0.54498034843945
  H   -1.60096732873749      1.78911546071234     -0.93919779483022
  H   -0.67010688409335      2.11153159889618      0.37074593890608
  N   1.61749357370227     -1.19271437132128      0.05271289219947
  O   1.56386120641859     -1.56328885088998      1.22615934762588
  O   2.01853276255259     -1.86473526799794     -0.89438015102996
