15
Coordinates from ORCA-job run
  C   -0.45372292840767      0.19913701594579     -0.23397916212073
  C   1.04756101693004     -0.01959011546830     -0.41423212316530
  Cl  -1.30279388333656     -1.15703516298457     -1.14718736598821
  H   1.58048888590086      0.71498589083641      0.19038347254468
  H   1.31960209781829      0.06784224564993     -1.46493607470940
  C   -0.93490511218557      0.14350979955089      1.20209150799593
  H   -0.41545595172960      0.90770693123922      1.78420849568992
  H   -2.00855588309944      0.34236919793482      1.22911095190306
  H   -0.75137075232258     -0.83052751679836      1.64710540982212
  N   -0.73055694018701      1.48087446677002     -0.79108678558507
  H   -1.69469834613872      1.74427580949327     -0.62932661788597
  H   -0.55551675586368      1.50001733174081     -1.78872499399896
  N   1.51206768759250     -1.36313572608583      0.02527689232405
  O   1.88301878104029     -2.14685303111162     -0.84426468971795
  O   1.50283808398886     -1.58357713671250      1.23556108289183
