17
Coordinates from ORCA-job run
  C   -0.52377572936104      0.22420000548799     -0.31242634577144
  C   0.95150189389254      0.45715895065375      0.06058254200874
  H   -0.69012777079794      0.80839853734117     -1.22917797086519
  H   1.06453930355862      1.51971063986003      0.33147891562462
  C   -1.44397597825087      0.76522995165160      0.77756399716612
  H   -2.48974057659568      0.67088436342975      0.47538442223247
  H   -1.31395211905341      0.20474317616550      1.70768387731456
  H   -1.24885533070214      1.82131486581451      0.98573952303011
  C   -0.80336478337318     -1.24476779796835     -0.60900782834791
  H   -0.11267137180248     -1.63324802747365     -1.35732429888182
  H   -1.82596392517353     -1.36859926758301     -0.97491202642441
  H   -0.69678468905081     -1.84566931099074      0.29864707391385
  N   1.82999160284715      0.04637369818373     -1.03597825894286
  H   1.64485524876224      0.64131405152284     -1.83619145816043
  H   2.80032995353767      0.17773365505578     -0.77403434875970
  C   1.29678034140574     -0.31740982335661      1.26124523516726
  N   1.56221393015711     -0.92536766779428      2.22972694969602
