17
Coordinates from ORCA-job run
  C   -0.54032090722237     -0.07342544387010      0.45519891517949
  C   0.93859844570453      0.35740966068826      0.38846620280610
  H   -0.78622407921687     -0.15930071164638      1.52142199446529
  H   1.04975550415266      1.26565181816022      1.00357919770823
  C   -0.76928933676159     -1.42208483861662     -0.21826961901722
  H   -1.82975195598112     -1.68513986163665     -0.18652179433104
  H   -0.21129621679457     -2.21826331840177      0.27974828165227
  H   -0.45051022673642     -1.38128552187052     -1.26079087131990
  C   -1.42285567888435      1.01160942123540     -0.15830685538025
  H   -1.28220123352431      1.06109666352346     -1.24116482291931
  H   -2.47740754333062      0.79064660973558      0.02239537085938
  H   -1.21260444956264      1.99739276265771      0.26924755029636
  N   1.36309898635319      0.55433053670262     -1.00115856032682
  H   0.99445792309503      1.43717562962600     -1.33408123555205
  H   2.37344210789731      0.61197248083776     -1.05134407378260
  C   1.79168111844019     -0.66660489164462      1.00458855678568
  N   2.47142754237197     -1.48118099548036      1.50699176287639
