17
Coordinates from ORCA-job run
  C   -0.56076213410590      0.26019799910095     -0.33352650485016
  C   0.90312172135632      0.58613376314885      0.00231892197866
  H   -0.77446461648891      0.84443121734518     -1.23614411171648
  H   0.97045631084846      1.66428639731172      0.18568946433331
  C   -1.48597814435360      0.71099860479543      0.79308408876486
  H   -1.31035080556379      0.13130189198068      1.70357399258104
  H   -1.34198053973234      1.76902496500322      1.03108374092044
  H   -2.53119418704396      0.57318255008939      0.50594103584687
  C   -0.75413377509010     -1.21953000149424     -0.65066391303013
  H   -0.47622599534974     -1.84483551506352      0.20359881963565
  H   -1.80318393900654     -1.42096394975147     -0.88148515457030
  H   -0.16830512603858     -1.52801567734354     -1.51949675459281
  N   1.78532081893167      0.28291800748765     -1.12176185486523
  H   1.90437308543082     -0.71988222747423     -1.20505027650520
  H   2.70402943024526      0.67586175502452     -0.95155303058758
  C   1.30245701934934     -0.09336170071252      1.25499117058429
  N   1.63782087661160     -0.67174807944807      2.22140036607278
