17
Coordinates from ORCA-job run
  C   -0.41053879250612     -0.24562310579785     -0.30376445981587
  C   0.88509518177689      0.32563139563214      0.29629292997955
  H   -0.14313907495384     -0.70193732092355     -1.26751104461501
  H   0.62617270474427      0.83494931937829      1.23277080253546
  C   -1.40889826126799      0.88162933818347     -0.55031269574776
  H   -1.71293793233353      1.33182665169037      0.40052440101624
  H   -0.97811505326645      1.66367148315935     -1.17400721340666
  H   -2.30703538540837      0.49327197369670     -1.03735071959789
  C   -1.00778584233596     -1.32365844884443      0.59650212377062
  H   -1.24159709158206     -0.91218461031915      1.58391025497602
  H   -0.33174753596539     -2.17028995843138      0.73191059559534
  H   -1.93859439285426     -1.70114446437748      0.16659772834983
  N   1.47877461540864      1.31922712683097     -0.59521279694625
  H   2.27119554638567      1.76207387526967     -0.14455339969072
  H   1.82668449347424      0.85626655589228     -1.42806517358196
  C   1.82217230028398     -0.76748680653861      0.63440652207591
  N   2.57129452040029     -1.64522300450079      0.85686214510312
