17
Coordinates from ORCA-job run
  C   -0.47918828485285      0.27236615366228     -0.30028548517971
  C   0.98151768535302      0.54581795835398      0.12515224326025
  H   -0.64030910915081      0.89015853408926     -1.19526806446978
  H   1.05623093195040      1.60637347595391      0.39606091647540
  C   -1.45036150906752      0.72831702815759      0.78545018586608
  H   -1.34235859078173      0.11716605809377      1.68577620877861
  H   -2.48351122115905      0.63777839860977      0.44095083560562
  H   -1.27997659885328      1.77291090002470      1.06224340433014
  C   -0.70704643018792     -1.18996068851911     -0.66744650092675
  H   -0.05247088043272     -1.51738808681983     -1.47869093096972
  H   -1.73657797052356     -1.34155353263141     -1.00074580431776
  H   -0.53654419943478     -1.83850628882884      0.19673461448057
  N   2.02124286368351      0.28893881467258     -0.86761400017942
  H   2.04207892839727     -0.69365235986011     -1.11113556909083
  H   1.81863437521777      0.81732315448078     -1.70849150821130
  C   1.29327069675662     -0.22438687394822      1.33919328015852
  N   1.49636931308564     -0.87170264549110      2.29711617439007
