12

C	-0.36755	-0.094331	-1.449318
C	0.0	0.0	0.0
Br	-2.291628	-0.167259	-1.837705
H	1.095852	0.0	0.0
H	0.076178	-0.958963	-1.937504
H	-0.35164	0.938026	0.432104
N	0.161646	1.104572	-2.192362
O	0.666798	0.88484	-3.288879
O	0.025794	2.202729	-1.666646
C	-0.497997	-1.140851	0.739245
N	-0.869152	-2.073968	1.350748
H	2.656935	0.0	0.0
