12

C	-0.602141	0.045012	-1.378571
C	0.0	0.0	0.0
Br	0.187543	1.483332	-2.439524
H	1.091171	0.0	0.0
H	-1.675278	0.222686	-1.410948
H	-0.283057	0.92902	0.508497
N	-0.410375	-1.24572	-2.135046
O	0.536094	-1.958837	-1.828548
O	-1.23301	-1.468284	-3.024347
C	-0.53925	-1.12267	0.748878
N	-0.97096	-2.031179	1.358413
H	2.679948	0.0	0.0
