12

C	-0.451033	-0.038902	-1.433379
C	0.0	0.0	0.0
Br	0.123185	-1.669568	-2.309714
H	1.092594	0.0	0.0
H	-0.063508	0.79463	-2.015756
H	-0.355848	-0.882635	0.535717
N	-1.95217	0.029253	-1.564673
O	-2.619676	-0.756674	-0.900564
O	-2.399584	0.890128	-2.32345
C	-0.494581	1.20571	0.643643
N	-0.893218	2.184484	1.159108
H	2.683807	0.0	0.0
