12

C	-0.401218	-0.097188	-1.4371
C	0.0	0.0	0.0
Br	-2.339633	-0.053201	-1.769589
H	1.098165	0.0	0.0
H	-0.030886	-0.997927	-1.923563
H	-0.338184	0.939943	0.436998
N	0.179637	1.054693	-2.215615
O	0.617552	0.787838	-3.331505
O	0.147191	2.16336	-1.695702
C	-0.480865	-1.135679	0.758987
N	-0.822137	-2.075887	1.374421
H	2.649251	0.0	0.0
