12

C	-0.426067	-0.018125	-1.442901
C	0.0	0.0	0.0
Br	0.085911	-1.676014	-2.304668
H	1.092445	0.0	0.0
H	0.020846	0.793903	-2.013623
H	-0.368142	-0.884861	0.522946
N	-1.916839	0.130582	-1.605878
O	-2.640131	-0.645501	-0.990309
O	-2.300391	1.046673	-2.333842
C	-0.486263	1.206504	0.648063
N	-0.85562	2.19399	1.168551
H	2.679963	0.0	0.0
