15

C	0.0	0.0	0.0
C	-0.558466	-0.162285	-1.40736
Br	1.94499	0.0	0.0
H	-1.657377	-0.107592	-1.30174
H	-0.224366	0.654479	-2.04701
N	-0.372878	1.403735	0.489564
O	-0.476665	1.56014	1.698827
O	-0.475127	2.282322	-0.359297
C	-0.510309	-1.040403	0.963463
H	-0.204788	-2.02811	0.614866
H	-1.602985	-0.970686	0.975816
H	-0.111617	-0.866	1.960389
C	-0.172788	-1.440024	-1.989935
N	0.148247	-2.464732	-2.465063
Br	-3.838842	0.0	0.0
