15

C	0.0	0.0	0.0
C	-0.55973	-0.279123	-1.388373
Br	1.948116	0.0	0.0
H	-1.659086	-0.21499	-1.287403
H	-0.226134	0.483081	-2.092715
N	-0.369494	1.440771	0.371043
O	-0.467797	2.246414	-0.547289
O	-0.475079	1.696433	1.562674
C	-0.50832	-0.955184	1.049206
H	-0.196721	-1.967804	0.788265
H	-0.111395	-0.694341	2.027854
H	-1.60148	-0.891035	1.055014
C	-0.172942	-1.600844	-1.862349
N	0.145607	-2.66366	-2.245839
Br	-3.833505	0.0	0.0
