15

C	0.0	0.0	0.0
C	-0.562626	0.124885	-1.409243
Br	1.945088	0.0	0.0
H	-1.661818	0.155848	-1.290182
H	-0.230058	1.054139	-1.871965
N	-0.373162	1.273494	0.767456
O	-0.486491	2.305439	0.115521
O	-0.468234	1.179204	1.983533
C	-0.507505	-1.216615	0.733823
H	-1.600294	-1.151716	0.761951
H	-0.105207	-1.251769	1.744029
H	-0.202881	-2.111625	0.188049
C	-0.18079	-1.009301	-2.238507
N	0.124388	-1.91264	-2.92316
Br	-3.834075	0.0	0.0
