15

C	0.0	0.0	0.0
C	-0.260957	0.413949	-1.466549
Br	1.944658	0.0	0.0
H	0.270918	1.352551	-1.629061
H	0.253035	-0.342389	-2.066649
N	-0.409462	1.10934	0.958187
O	-0.516315	0.800233	2.137837
O	-0.536443	2.234263	0.49009
C	-0.575929	-1.319027	0.42505
H	-0.261512	-2.090851	-0.280242
H	-1.669522	-1.213456	0.406363
H	-0.244826	-1.578993	1.428981
C	-1.575993	0.589793	-2.092541
N	-2.350013	0.809103	-2.950938
Br	-3.873196	0.0	0.0
