17
Coordinates from ORCA-job run
  C   -0.37091094544917      0.42708546432973     -0.11660878108981
  C   0.90024126701321      0.05063768077409     -0.88233913733658
  H   -0.07034478089460      1.03083746167357      0.75151689168689
  H   1.36962924086949      0.97228019698099     -1.24673974838623
  H   0.61445220783575     -0.52149739308938     -1.77484542812815
  C   -1.11918602628768     -0.80230827522656      0.39394728979415
  H   -0.53065455049381     -1.37407466828267      1.11434140845378
  H   -2.05191910316877     -0.51329231413252      0.88632005963079
  H   -1.37348831356802     -1.46728030770005     -0.43861067368530
  C   -1.28465653810839      1.28044815600966     -0.99390165615001
  H   -2.17573064804001      1.60117118153906     -0.44694754018075
  H   -1.61623284985861      0.71126868669096     -1.86851986963155
  H   -0.76923313164757      2.17592849957871     -1.35247940962866
  C   1.91903520328831     -0.74171951119590     -0.06706393092351
  H   1.54791469503825     -1.73487403716632      0.19313132018973
  H   2.84785599954389     -0.87645085540940     -0.62702460482766
  H   2.16422827392774     -0.22015996537398      0.86282381021288
