16

C	-0.421849	-0.012006	-1.449015
C	0.0	0.0	0.0
F	-0.071301	-1.174121	-2.073484
H	1.095876	0.0	0.0
H	-0.011837	0.841682	-1.986705
N	-1.922902	0.101919	-1.578586
O	-2.585361	-0.931119	-1.471858
O	-2.390443	1.23042	-1.729342
C	-0.486932	-1.207162	0.781467
H	-0.248337	-2.135862	0.260028
H	0.03153	-1.217409	1.743743
H	-1.568738	-1.180773	0.957594
N	-0.380879	1.290568	0.573072
H	0.421192	1.639908	1.086185
H	-1.158	1.192687	1.215186
H	2.841979	0.0	0.0
