16

C	-0.572284	0.002769	-1.396902
C	0.0	0.0	0.0
F	-0.164022	1.105132	-2.090788
H	1.100887	0.0	0.0
H	-1.665725	-0.016758	-1.391154
N	-0.161593	-1.207619	-2.200912
O	-0.809867	-2.230609	-1.971465
O	0.743236	-1.097426	-3.014376
C	-0.487082	-1.177161	0.822985
H	-0.071005	-1.082261	1.83067
H	-0.131456	-2.123097	0.415856
H	-1.580037	-1.203427	0.891964
N	-0.507133	1.259135	0.593339
H	-0.27864	1.212993	1.581866
H	0.08969	1.996334	0.226725
H	2.937641	0.0	0.0
