16

C	-0.351395	0.006861	-1.475637
C	0.0	0.0	0.0
F	0.150419	-1.078481	-2.124114
H	1.096135	0.0	0.0
H	-0.013599	0.91926	-1.971423
N	-1.849727	-0.037847	-1.660515
O	-2.446265	1.031671	-1.489773
O	-2.388362	-1.118006	-1.885594
C	-0.519954	-1.243895	0.696905
H	-0.047932	-1.291842	1.679754
H	-1.60704	-1.21674	0.836132
H	-0.257441	-2.146214	0.140429
N	-0.398105	1.215607	0.69858
H	-1.255305	1.606777	0.327483
H	0.348654	1.893902	0.596947
H	2.840646	0.0	0.0
