16

C	-0.493236	-0.102447	-1.423258
C	0.0	0.0	0.0
F	-1.776103	-0.60073	-1.51775
H	1.093452	0.0	0.0
H	0.163944	-0.722692	-2.037742
N	-0.507948	1.256254	-2.070174
O	-1.5853	1.821094	-2.213961
O	0.5898	1.69481	-2.389135
C	-0.404102	-1.251512	0.770183
H	0.120013	-1.244145	1.729233
H	-1.484469	-1.296651	0.943488
H	-0.101555	-2.159262	0.238603
N	-0.429431	1.249077	0.619249
H	-1.203523	1.101993	1.253488
H	0.359255	1.60969	1.145207
H	2.867355	0.0	0.0
