13

C	-0.313037	0.32703	-1.467024
C	0.0	0.0	0.0
Br	-0.029008	-1.458103	-2.487901
H	1.102991	0.0	0.0
H	-0.382159	-0.977792	0.290075
C	-1.719851	0.619015	-1.746942
N	-2.849071	0.856998	-1.970139
N	0.531907	1.354882	-1.887407
H	0.454842	1.574646	-2.871146
H	1.498941	1.182459	-1.604045
C	-0.510679	1.038243	0.887164
N	-0.942736	1.847321	1.621328
Br	3.435398	0.0	0.0
