13

C	-0.56124	0.021501	-1.422641
C	0.0	0.0	0.0
Br	0.094879	1.63865	-2.316429
H	1.093155	0.0	0.0
H	-0.344686	0.908688	0.501244
C	-0.077337	-1.122044	-2.214356
N	0.172984	-2.066064	-2.869817
N	-2.008314	0.100021	-1.391467
H	-2.373853	0.069909	-2.33719
H	-2.364246	-0.707259	-0.886114
C	-0.524084	-1.165512	0.705735
N	-1.007152	-2.095805	1.236571
Br	3.454688	0.0	0.0
