13

C	-0.478834	0.031041	-1.445756
C	0.0	0.0	0.0
Br	-2.583131	0.286949	-1.355334
H	1.09518	0.0	0.0
H	-0.348969	0.88893	0.527376
C	-0.076194	1.252647	-2.137929
N	0.226056	2.227057	-2.721616
N	-0.111039	-1.099207	-2.156233
H	-0.415286	-1.117891	-3.118021
H	-0.283288	-1.968121	-1.669015
C	-0.485878	-1.200331	0.667824
N	-0.869503	-2.194124	1.162404
Br	3.425268	0.0	0.0
