13

C	-0.386084	0.127839	-1.477865
C	0.0	0.0	0.0
Br	-0.13086	-1.694208	-2.360435
H	1.090625	0.0	0.0
H	-0.304263	0.935655	0.482876
C	-1.807168	0.415977	-1.689285
N	-2.938642	0.685835	-1.855537
N	0.412637	1.145175	-2.033752
H	1.394268	1.004284	-1.794891
H	0.28616	1.241964	-3.032954
C	-0.603806	-1.113853	0.704907
N	-1.122627	-1.976254	1.309291
Br	3.427437	0.0	0.0
