14
Coordinates from ORCA-job run
  C   -0.33013581892058     -0.83881596866429      0.19746641303884
  C   0.66247065333829      0.15063004355400     -0.43630922896473
  Br  0.20842700104337     -1.27787046079196      2.01029043164366
  H   0.37396115924032      0.21968484741186     -1.49772092788847
  H   -0.28195048924125     -1.77658780053304     -0.36075627314417
  C   -1.73538036041128     -0.27109014807301      0.19309427956979
  H   -2.44443681047176     -0.99337073571429      0.59808236385646
  H   -1.77044685765383      0.63123142097522      0.80259592117279
  H   -2.03618680173512     -0.02632116332814     -0.83128445394109
  C   2.02381496718968     -0.39409755520264     -0.43379362094393
  N   3.11601711670041     -0.81801079246544     -0.49547802776709
  N   0.61479306087553      1.45095753438584      0.22971970993133
  H   1.53811793095496      1.84480065848061      0.34011760770530
  H   0.06193524909126      2.09886011996527     -0.31502419426869
