14
Coordinates from ORCA-job run
  C   -0.67880954204720     -0.05638806063568     -0.31443805620022
  C   0.84194794783958      0.14163230107777     -0.13528838209864
  Br  -0.99121842132058     -0.72575172280358     -2.12767826195014
  H   1.31816055311991     -0.83984177691209     -0.24611804261302
  H   -1.16925060962142      0.92051614261851     -0.28405325146026
  C   -1.29018935684168     -1.01297175202227      0.69209474999664
  H   -0.80382913944877     -1.98970120515186      0.63941866576653
  H   -2.35409614204037     -1.15038859124503      0.49691874723508
  H   -1.17313300277779     -0.61570960956535      1.70327864570826
  C   1.07486573718946      0.59536473725474      1.24583181956554
  N   1.21373485367634      0.97565196852461      2.34777680719662
  N   1.50907284233367      1.06107318038749     -1.03903555721039
  H   1.07888487002636      1.97746434035553     -0.98981297928078
  H   1.42385940991249      0.72105004811721     -1.98889490465522
