14
Coordinates from ORCA-job run
  C   -0.51405448973965     -0.59513231852214     -0.60787673328761
  C   0.81103522492841      0.16462404117278     -0.47597187294590
  Br  -0.12595899024169     -2.48802615577488     -0.89206941900001
  H   1.41472705356327     -0.06063564884048     -1.35962522257097
  H   -0.98408302099137     -0.24614874659660     -1.52829587210947
  C   -1.43891679063758     -0.41976069630679      0.57967357014370
  H   -0.96955815666111     -0.77484151798148      1.49958677193927
  H   -1.70056906864673      0.63642698600038      0.68869864068496
  H   -2.36332232089593     -0.97821098600331      0.42895842655148
  C   1.56467433819139     -0.28527623858729      0.71177585610729
  N   2.14972005674425     -0.56174538582117      1.69239735968961
  N   0.53348732855684      1.59843435424496     -0.47383502432859
  H   1.37314333146174      2.11143839922478     -0.71414911706330
  H   0.25067550436817      1.90085391379124      0.45073263618956
