15

C	-0.390586	0.013111	-1.477941
C	0.0	0.0	0.0
Cl	-2.17766	0.089029	-1.672665
H	1.093632	0.0	0.0
H	-0.09442	-0.96769	-1.856239
C	0.288295	1.098999	-2.288268
H	0.115493	0.915573	-3.351004
H	-0.097534	2.083844	-2.030538
H	1.359063	1.071224	-2.071986
C	-0.510571	-1.178663	0.683199
N	-0.873803	-2.165252	1.206631
N	-0.467862	1.23781	0.70314
O	-1.357979	1.133846	1.546553
O	0.073269	2.287257	0.364978
Cl	3.205307	0.0	0.0
