15

C	-0.50799	0.009822	-1.443578
C	0.0	0.0	0.0
Cl	-0.088518	1.581621	-2.188249
H	1.091969	0.0	0.0
H	-1.598644	-0.04153	-1.446288
C	0.136722	-1.121113	-2.223517
H	1.223818	-1.045048	-2.143865
H	-0.183679	-2.084159	-1.816028
H	-0.159084	-1.071557	-3.272926
C	-0.499397	-1.195594	0.67467
N	-0.900136	-2.175833	1.183674
N	-0.550417	1.19465	0.733863
O	-1.778779	1.29233	0.751431
O	0.241833	1.973852	1.24326
Cl	3.258682	0.0	0.0
