15

C	-0.494312	0.012382	-1.449102
C	0.0	0.0	0.0
Cl	0.025635	-1.517845	-2.214214
H	1.092204	0.0	0.0
H	0.044735	0.807949	-1.962405
C	-1.997139	0.165556	-1.585549
H	-2.514407	-0.648712	-1.072226
H	-2.281872	0.143377	-2.639205
H	-2.316667	1.122069	-1.164393
C	-0.548128	-1.105113	0.770353
N	-0.981568	-2.023997	1.359545
N	-0.370534	1.300512	0.661681
O	-0.284905	2.308681	-0.038088
O	-0.673668	1.282971	1.851913
Cl	3.160868	0.0	0.0
