15

C	-0.508602	-0.071397	-1.438836
C	0.0	0.0	0.0
Cl	0.015805	1.410225	-2.297132
H	1.091932	0.0	0.0
H	-1.600216	-0.046387	-1.439593
C	0.044319	-1.302442	-2.133883
H	1.135182	-1.304665	-2.064411
H	-0.34716	-2.206602	-1.659237
H	-0.254927	-1.302952	-3.183811
C	-0.515857	-1.132808	0.759841
N	-0.931272	-2.064634	1.342601
N	-0.530405	1.249859	0.660626
O	-1.749415	1.418256	0.599397
O	0.271842	1.997392	1.201466
Cl	3.245286	0.0	0.0
