15

C	-0.417601	0.000522	-1.469259
C	0.0	0.0	0.0
Cl	-2.212704	0.014121	-1.626411
H	1.093638	0.0	0.0
H	-0.096153	-0.96819	-1.857475
C	0.198969	1.116498	-2.28664
H	1.276825	1.124017	-2.105301
H	-0.212595	2.084652	-2.005871
H	-0.001055	0.94123	-3.345809
C	-0.498496	-1.172803	0.705088
N	-0.848502	-2.155585	1.24387
N	-0.463741	1.243415	0.698977
O	0.109133	2.282635	0.380781
O	-1.380328	1.150452	1.515438
Cl	3.19892	0.0	0.0
