15

C	-0.49456	-0.072656	-1.44776
C	0.0	0.0	0.0
Cl	-0.095464	1.465291	-2.270358
H	1.091985	0.0	0.0
H	-1.583611	-0.144281	-1.459013
C	0.179351	-1.230165	-2.160165
H	-0.107923	-1.241942	-3.212866
H	-0.123648	-2.176949	-1.704702
H	1.263123	-1.127084	-2.075325
C	-0.501919	-1.157429	0.733598
N	-0.907096	-2.10971	1.289555
N	-0.557902	1.228853	0.66419
O	-1.786468	1.317553	0.680081
O	0.229025	2.047467	1.11783
Cl	3.254449	0.0	0.0
