16

C	0.0	0.0	0.0
C	-0.493883	0.169587	-1.431865
F	1.413902	0.0	0.0
H	-1.581404	0.312537	-1.331966
H	-0.225044	-0.717864	-1.999292
C	-0.40649	1.144715	0.913784
H	-1.498314	1.156202	0.903182
H	0.007515	2.097989	0.583275
H	-0.028549	0.924073	1.918306
N	-0.52512	-1.271486	0.411786
H	-0.332384	-1.366336	1.405801
H	-1.551947	-1.08255	0.330125
N	0.140498	1.311657	-2.124343
O	-0.218823	2.45162	-1.824145
O	0.998957	1.063865	-2.975728
F	-2.878772	0.0	0.0
