16

C	0.0	0.0	0.0
C	-0.478548	0.131529	-1.4506
F	1.393821	0.0	0.0
H	-0.195186	-0.760584	-2.009557
H	-1.56839	0.257484	-1.356272
C	-0.439382	1.166139	0.862379
H	-1.529863	1.189784	0.821983
H	-0.090018	0.96722	1.878189
H	-0.005851	2.099081	0.501409
N	-0.536784	-1.205789	0.558041
H	-0.358481	-1.9724	-0.085969
H	-1.561504	-0.998137	0.519155
N	0.138939	1.26175	-2.181972
O	1.040328	1.003111	-2.98591
O	-0.264882	2.401685	-1.945112
F	-2.889951	0.0	0.0
