16

C	0.0	0.0	0.0
C	-0.497364	0.355777	-1.400098
F	1.386917	0.0	0.0
H	-1.586486	0.455961	-1.294615
H	-0.189774	-0.429489	-2.087182
C	-0.417487	1.034359	1.037126
H	0.005115	2.018969	0.826669
H	-1.509189	1.055333	1.0188
H	-0.052126	0.698438	2.013452
N	-0.540825	-1.306666	0.248911
H	-1.567087	-1.097376	0.198874
H	-0.339414	-1.534207	1.219673
N	0.105985	1.610414	-1.896791
O	-0.429407	2.676692	-1.58723
O	1.124174	1.527183	-2.589376
F	-2.892569	0.0	0.0
