16

C	0.0	0.0	0.0
C	-0.494029	0.126363	-1.436204
F	1.413944	0.0	0.0
H	-0.222863	-0.776462	-1.97766
H	-1.581816	0.27002	-1.340202
C	-0.405882	1.171668	0.879189
H	0.009732	2.114255	0.521301
H	-0.028767	0.980251	1.890029
H	-1.497632	1.184768	0.868173
N	-0.526215	-1.258276	0.449953
H	-0.33166	-1.322945	1.446084
H	-1.553041	-1.069513	0.364359
N	0.1375	1.249448	-2.161802
O	-0.224925	2.396811	-1.89481
O	0.996387	0.978892	-3.006173
F	-2.879243	0.0	0.0
