16

C	0.0	0.0	0.0
C	-0.433226	-0.540756	-1.374815
F	1.39833	0.0	0.0
H	0.467415	-0.628757	-1.991303
H	-0.896155	-1.514617	-1.251381
C	-0.379751	1.437748	0.322124
H	0.050882	2.146338	-0.386864
H	-1.468951	1.476504	0.320617
H	0.018537	1.651414	1.321227
N	-0.489004	-0.949687	0.963046
H	-0.290202	-0.56732	1.884399
H	-1.520324	-0.815803	0.800427
N	-1.375529	0.235607	-2.227259
O	-1.20606	1.445045	-2.356199
O	-2.177362	-0.422924	-2.883163
F	-2.728819	0.0	0.0
