16

C	0.0	0.0	0.0
C	-0.49685	0.402082	-1.390032
F	1.393762	0.0	0.0
H	-1.594225	0.264486	-1.313444
H	-0.237259	1.431544	-1.635145
C	-0.451198	1.085807	0.960247
H	-0.116027	0.799787	1.959268
H	-1.543029	1.108378	0.907947
H	-0.006597	2.04799	0.689236
N	-0.499226	-1.257086	0.474927
H	-0.323204	-1.950079	-0.244338
H	-1.521884	-1.078191	0.476781
N	0.070914	-0.402763	-2.496222
O	0.140162	-1.628585	-2.371252
O	0.432794	0.197456	-3.513712
F	-2.892542	0.0	0.0
