15

C	0.0	0.0	0.0
C	-0.297072	-0.081183	-1.507829
Cl	1.782297	0.0	0.0
H	0.445974	-0.750996	-1.945411
H	-0.359286	0.942785	0.406599
C	-0.523058	-1.202804	0.753522
H	-1.61662	-1.178155	0.718583
H	-0.192827	-1.158578	1.792938
H	-0.149688	-2.129252	0.308493
N	0.023157	1.251916	-2.168155
O	-0.224226	2.277222	-1.547025
O	0.50651	1.186833	-3.295433
C	-1.568598	-0.550186	-2.070787
N	-2.263321	-1.064062	-2.871098
Br	-3.789231	0.0	0.0
