15

C	0.0	0.0	0.0
C	-0.354007	0.282469	-1.492134
Cl	1.783821	0.0	0.0
H	0.489062	-0.071868	-2.086419
H	-0.353727	0.816872	0.629009
C	-0.534495	-1.335499	0.462146
H	-1.62798	-1.282109	0.463227
H	-0.173263	-1.548657	1.470512
H	-0.195107	-2.134226	-0.202912
N	-0.353456	1.773324	-1.742728
O	0.738498	2.255726	-2.04801
O	-1.400613	2.389445	-1.601294
C	-1.526705	-0.341675	-2.108368
N	-2.145175	-0.934708	-2.915408
Br	-3.816269	0.0	0.0
