15

C	0.0	0.0	0.0
C	-0.44777	-0.47287	-1.400506
Cl	1.783704	0.0	0.0
H	0.417038	-0.426623	-2.070531
H	-0.309031	1.040603	0.088604
C	-0.520284	-0.824615	1.155528
H	-1.612643	-0.773421	1.142525
H	-0.193765	-1.863341	1.071388
H	-0.14357	-0.411465	2.093728
N	-1.397242	0.483905	-2.118239
O	-1.273294	1.669591	-1.853947
O	-2.05789	-0.001631	-3.021454
C	-0.940593	-1.842903	-1.451843
N	-1.209899	-2.981668	-1.54467
Br	-3.757599	0.0	0.0
