16

C	0.0	0.0	0.0
C	-0.480877	-0.067327	-1.428905
Cl	1.841531	0.0	0.0
H	-1.547859	-0.326634	-1.330684
H	0.049083	-0.863379	-1.951528
N	-0.61946	1.000134	0.715313
H	-0.425488	0.889133	1.705704
H	-1.668728	0.789258	0.539666
N	-0.225999	-1.419123	0.66924
O	-0.327748	-1.425308	1.891747
O	-0.242363	-2.412314	-0.047428
C	-0.346168	1.27318	-2.136211
H	0.675489	1.659213	-2.085499
H	-1.013157	2.003236	-1.677488
H	-0.622078	1.16649	-3.190046
H	-2.984592	0.0	0.0
