16

C	0.0	0.0	0.0
C	-0.211698	-0.02974	-1.539493
Cl	1.837298	0.0	0.0
H	0.353881	-0.890327	-1.899498
H	0.284228	0.870168	-1.912647
N	-0.350139	1.272812	0.641966
H	-0.792319	0.971056	1.51181
H	0.511621	1.726879	0.910626
N	-0.850775	-1.042206	0.619456
O	-0.8714	-2.147339	-0.011404
O	-0.928784	-1.004113	1.899152
C	-1.61302	-0.116049	-2.131952
H	-2.110544	-1.016479	-1.775843
H	-2.21361	0.767424	-1.905689
H	-1.517253	-0.193093	-3.226708
H	-1.868228	0.0	0.0
