16

C	0.0	0.0	0.0
C	-0.515162	-0.202439	-1.413241
Cl	1.812635	0.0	0.0
H	-0.414778	0.788715	-1.865523
H	-1.59679	-0.365905	-1.262462
N	-0.582477	1.133347	0.556645
H	-0.380793	1.165411	1.55089
H	-1.622571	0.947883	0.431738
N	-0.279713	-1.265219	0.898425
O	-0.403144	-2.361926	0.367897
O	-0.317779	-1.060658	2.107342
C	0.125507	-1.244802	-2.318518
H	1.196702	-1.073125	-2.44727
H	-0.021317	-2.252702	-1.938354
H	-0.34184	-1.17903	-3.305998
H	-3.035133	0.0	0.0
