18

C	0.0	0.0	0.0
C	-0.442214	0.000502	-1.493667
Br	1.955817	0.0	0.0
H	0.404229	-0.370609	-2.082932
C	-0.383537	1.240943	0.824322
H	0.013716	2.147756	0.366699
H	-1.475844	1.221188	0.861851
H	0.056511	1.137259	1.819345
C	-0.388923	-1.177113	0.7803
N	-0.495927	-2.039112	1.574779
C	-0.856531	1.364658	-1.988934
H	-1.745515	1.651396	-1.431625
H	-1.087197	1.314072	-3.051516
H	-0.040048	2.078254	-1.845188
N	-1.490526	-1.032975	-1.83569
O	-1.279396	-2.16999	-1.427749
O	-2.335834	-0.73387	-2.669657
F	-2.529503	0.0	0.0
