18

C	0.0	0.0	0.0
C	-0.602586	0.078758	-1.412525
Br	1.964557	0.0	0.0
H	-1.684943	0.27218	-1.137123
C	-0.458033	1.121226	0.935288
H	-0.088346	2.082243	0.582745
H	-1.553328	1.061433	0.895132
H	-0.077696	0.928729	1.941294
C	-0.383366	-1.286667	0.588526
N	-0.576922	-2.332689	1.088867
C	-0.463034	-1.190204	-2.222101
H	-1.087736	-1.952033	-1.754255
H	0.570531	-1.539476	-2.282409
H	-0.827677	-1.0251	-3.23692
N	-0.026385	1.242774	-2.142567
O	0.689064	1.031084	-3.126042
O	-0.306195	2.371183	-1.733196
F	-2.80786	0.0	0.0
