18

C	0.0	0.0	0.0
C	-0.301593	-0.140514	-1.54055
Br	1.966485	0.0	0.0
H	-0.007465	0.81799	-1.974823
C	-0.680808	1.235032	0.541222
H	-0.417369	1.389083	1.589608
H	-0.392005	2.113883	-0.040994
H	-1.76804	1.004763	0.441484
C	-0.404483	-1.180017	0.764673
N	-0.68049	-2.095865	1.447527
C	-1.687659	-0.551728	-1.986966
H	-1.822838	-1.618292	-1.79047
H	-2.48378	-0.064213	-1.374755
H	-1.758053	-0.36709	-3.064046
N	0.625704	-1.123934	-2.213533
O	1.220594	-0.732252	-3.218672
O	0.667122	-2.268186	-1.772215
F	-3.258526	0.0	0.0
