18

C	0.0	0.0	0.0
C	-0.263126	0.049188	-1.546144
Br	1.955643	0.0	0.0
H	0.282058	0.931292	-1.888462
C	-0.599909	1.221883	0.663917
H	-0.279662	2.128608	0.142481
H	-1.697629	1.029202	0.574024
H	-0.284567	1.273942	1.708152
C	-0.441549	-1.215284	0.679076
N	-0.678382	-2.161603	1.334479
C	-1.662608	0.06302	-2.131149
H	-2.210665	0.937023	-1.797207
H	-1.53532	0.062905	-3.221445
H	-2.255192	-0.769722	-1.770139
N	0.44254	-1.080694	-2.24771
O	1.099585	-0.789443	-3.24746
O	0.2598	-2.221777	-1.833587
F	-2.979037	0.0	0.0
