15

C	-0.5917	-0.118024	-1.387934
C	0.0	0.0	0.0
Cl	-2.320323	0.224244	-1.445555
H	1.089232	0.0	0.0
H	-0.428838	-1.129902	-1.74458
N	0.149737	0.770231	-2.374432
O	-0.236106	1.918662	-2.536551
O	1.088401	0.215257	-2.932035
N	-0.383537	-1.18251	0.835823
O	-0.972262	-2.118131	0.294729
O	-0.012443	-1.142431	2.001217
N	-0.470298	1.246869	0.678681
O	0.068068	2.271959	0.275115
O	-1.359433	1.168091	1.519615
Cl	3.109572	0.0	0.0
