15

C	-0.630981	0.010385	-1.372981
C	0.0	0.0	0.0
Cl	-0.104953	1.443567	-2.254524
H	1.08616	0.0	0.0
H	-1.716768	0.01048	-1.319687
N	-0.254253	-1.215186	-2.168555
O	0.678146	-1.8977	-1.770501
O	-0.940599	-1.409468	-3.166317
N	-0.518105	-1.1484	0.804812
O	-1.307629	-1.923695	0.265544
O	-0.123872	-1.20606	1.962734
N	-0.513541	1.212122	0.731473
O	-1.741247	1.285148	0.832634
O	0.299064	2.017869	1.159615
Cl	3.180132	0.0	0.0
