15

C	-0.559273	-0.174658	-1.394657
C	0.0	0.0	0.0
Cl	-2.307808	0.029872	-1.500739
H	1.088868	0.0	0.0
H	-0.305207	-1.170901	-1.742364
N	0.121722	0.773784	-2.363307
O	1.020085	0.26957	-3.02629
O	-0.275318	1.930281	-2.411077
N	-0.375117	-1.164495	0.864944
O	-0.863827	-2.156429	0.325729
O	-0.086736	-1.054887	2.049118
N	-0.494992	1.252344	0.647825
O	0.136556	2.266588	0.371856
O	-1.497332	1.182683	1.353619
Cl	3.110852	0.0	0.0
