15

C	-0.464047	0.059329	-1.435527
C	0.0	0.0	0.0
Cl	0.278663	-1.200893	-2.389107
H	1.088865	0.0	0.0
H	-0.15395	1.025948	-1.83345
N	-1.984829	0.045464	-1.570495
O	-2.501436	-0.575021	-2.484008
O	-2.563598	0.751648	-0.75173
N	-0.48708	-1.203785	0.722386
O	0.085701	-1.473413	1.77073
O	-1.417182	-1.835865	0.21763
N	-0.413354	1.232987	0.751821
O	-0.963395	1.110116	1.836435
O	-0.118732	2.284533	0.197242
Cl	3.122922	0.0	0.0
