15

C	-0.504721	-0.081372	-1.423158
C	0.0	0.0	0.0
Cl	0.426212	-1.156552	-2.444287
H	1.088497	0.0	0.0
H	-0.43884	0.912355	-1.860216
N	-1.989045	-0.422141	-1.498399
O	-2.452408	-0.624571	-2.61291
O	-2.618645	-0.400415	-0.446732
N	-0.45546	-1.159247	0.84024
O	-0.413692	-2.240215	0.264181
O	-0.79151	-0.970558	1.998196
N	-0.407591	1.292154	0.638805
O	0.085469	1.531539	1.731804
O	-1.167253	2.035643	0.014281
Cl	3.116226	0.0	0.0
