15

C	-0.606837	0.081505	-1.379884
C	0.0	0.0	0.0
Cl	-0.004651	1.521893	-2.196409
H	1.098962	0.0	0.0
H	-1.691612	0.119683	-1.355766
N	-0.248406	-1.129889	-2.207686
O	0.630693	-1.872673	-1.794839
O	-0.893064	-1.254897	-3.243879
N	-0.53071	-1.189785	0.74027
O	-0.064878	-1.380672	1.856141
O	-1.411677	-1.855752	0.194994
N	-0.505316	1.16704	0.805775
O	0.280292	1.719069	1.562614
O	-1.698544	1.44664	0.663347
Cl	3.17735	0.0	0.0
