15

C	-0.365588	0.117468	-1.471986
C	0.0	0.0	0.0
Cl	0.440095	-1.094531	-2.436001
H	1.105874	0.0	0.0
H	-0.038718	1.102758	-1.80086
N	-1.878429	0.080148	-1.709615
O	-2.548629	0.648397	-0.852501
O	-2.317674	-0.468049	-2.718628
N	-0.579956	-1.213301	0.622878
O	-1.659715	-1.11383	1.210119
O	0.058144	-2.2479	0.46305
N	-0.313617	1.235331	0.771354
O	-0.447194	1.127708	1.982488
O	-0.265136	2.296963	0.149252
Cl	3.002951	0.0	0.0
