13

C	-0.55552	0.069138	-1.380235
C	0.0	0.0	0.0
F	-1.920106	0.241453	-1.405315
H	1.089521	0.0	0.0
H	-0.086988	0.907095	-1.901664
H	-0.31814	0.896204	0.534626
N	-0.239814	-1.132319	-2.252553
O	-1.170591	-1.80941	-2.673653
O	0.947971	-1.27926	-2.508493
N	-0.508705	-1.137535	0.768281
O	-0.736748	-0.963812	1.967363
O	-0.622204	-2.222125	0.191021
F	2.498615	0.0	0.0
