14
Coordinates from ORCA-job run
  C   0.95170166470501     -0.07201080424402     -0.30543502720846
  C   -0.57013103592153     -0.20105647009288     -0.33610031811810
  F   1.52861318757668     -0.99960008075198      0.48949088543594
  H   -0.96643080237132      0.38659776487050     -1.16155099292333
  H   1.34636635041156     -0.17944798601156     -1.31911572924052
  N   1.36450902932705      1.30794220176183      0.14314567131609
  O   2.24746236253893      1.41515900530889      0.97574509472751
  O   0.76450170093886      2.20832626444977     -0.43849430694289
  N   -1.16438751680552      0.44010819493457      0.90389455062828
  O   -2.25810903470612      0.97320338554846      0.77251618128213
  O   -0.52603226337843      0.31269935401699      1.94655699444354
  N   -1.02143644498380     -1.54808154928689     -0.39365656483940
  H   -0.38606395936493     -2.20304871108885      0.03601469688650
  H   -1.31056323796645     -1.84079056941483     -1.31201113544730
