14
Coordinates from ORCA-job run
  C   0.58578253096012      0.86501519255806     -0.07361500405249
  C   -0.46149276466168     -0.21344069970749     -0.27375508813829
  F   0.65430773999916      1.68470432353367     -1.15352539672097
  H   -0.45511565667189     -0.51981900769001     -1.32747590360872
  H   0.44366955878561      1.43835419446166      0.83941568010906
  N   1.92840869452996      0.19180598886677      0.03368654516889
  O   2.16735633913554     -0.67087884956576     -0.81055579264376
  O   2.68440071462623      0.58396807084493      0.91529132395867
  N   -1.83167132724206      0.38664276329017     -0.04815315921605
  O   -2.75318092782671     -0.41653781760701      0.05056603896804
  O   -1.93081126530842      1.60796615408841     -0.01769897624010
  N   -0.27961184582217     -1.26186151436813      0.69787017034216
  H   0.40537218390018     -1.92240135030958      0.35229340468687
  H   -1.15741397440386     -1.75351744839568      0.81665615738667
