14
Coordinates from ORCA-job run
  C   0.95249708268612     -0.09889418085761     -0.10527532891168
  C   -0.55006293275607     -0.23572344511525     -0.35397939418017
  F   1.29550679081165     -0.71084404816984      1.05095086240893
  H   -0.81434821316982      0.35021913816306     -1.23370187861012
  H   1.51808308373216     -0.52548421175110     -0.93538945913487
  N   1.34644360441051      1.35712907665409     -0.04536104482975
  O   1.67672081445953      1.82519806410476      1.03260837755128
  O   1.27327446028705      1.92992110651045     -1.12701839491226
  N   -1.23864075574177      0.43567596795693      0.81730011825720
  O   -1.55329154424446     -0.27744769368603      1.76067865783860
  O   -1.37705785376900      1.65329667496159      0.73155119451422
  N   -1.02154364127942     -1.57269032011325     -0.46368739737743
  H   -0.86400027739379     -1.95585434557739     -1.38420094097891
  H   -0.64358061803268     -2.17450178308041      0.25452462836494
