14
Coordinates from ORCA-job run
  C   0.74808293840053      0.47909350754583     -0.72937734130348
  C   -0.48292045053802     -0.37003424960209     -0.43268696744643
  F   1.48369168484425     -0.10855916539088     -1.69599270192663
  H   -0.89536466881480     -0.65365213253351     -1.40392431139074
  H   0.49337978166134      1.49763677898081     -1.02072666311354
  N   1.58331900273285      0.58603801541746      0.52145072656956
  O   2.77925272844936      0.36155645170927      0.45260930462419
  O   0.94162713850191      0.92337093999814      1.51467663963905
  N   -1.56981421717936      0.54742372074812      0.16502625696027
  O   -2.12384996912672      0.17163300554233      1.18845835756917
  O   -1.81861524791971      1.56694066938712     -0.47019813574202
  N   -0.18316371455156     -1.51244374879188      0.33536068877886
  H   -0.04689236289287     -1.27807491739931      1.31034979953668
  H   -0.90873264356721     -2.21092887561141      0.26597434724505
