14
Coordinates from ORCA-job run
  C   0.68588164656154      0.43628300755811     -0.73154121300078
  C   -0.60513264865182     -0.33342481099588     -0.42011532210590
  F   1.40118108101581     -0.29573036912834     -1.62002957464702
  H   -1.05736439011374     -0.55453292866594     -1.38987310067675
  H   0.51263502134609      1.44073613994309     -1.11662222999807
  N   1.47990980271464      0.57108750743937      0.53686169061883
  O   2.50017338620121     -0.08914754089744      0.66491556427590
  O   0.96520606818330      1.32105895463404      1.36179286259614
  N   -1.56262399586372      0.62199455636387      0.25323912298582
  O   -1.91600216460784      1.57235171560152     -0.43825278829803
  O   -1.89053442776782      0.39128598004703      1.40803721318393
  N   -0.47889030988683     -1.52595448290653      0.34232824317576
  H   -0.14206234892512     -1.35555710172284      1.28058201716427
  H   0.10662327979429     -2.20045062727005     -0.13132248527410
