14
Coordinates from ORCA-job run
  C   0.69747350887209      0.42862990216424     -0.76730575188834
  C   -0.55310058848191     -0.32776517758344     -0.34727622179021
  F   1.39501816579270     -0.35202694234973     -1.63201687751741
  H   -1.08696031369386     -0.59769590694129     -1.27039835042873
  H   0.48136217819307      1.39589583298869     -1.21685703126931
  N   1.53678073216962      0.67944682795479      0.45936510775031
  O   1.01124169178753      1.43926096911443      1.26332962903512
  O   2.61835435207229      0.12277621285004      0.54872652088602
  N   -1.50997544592106      0.61827040086393      0.34360931768507
  O   -1.75194110088945      1.65499822899934     -0.26329502223569
  O   -2.01462820577435      0.25103065562701      1.39525903312407
  N   -0.19213747598688     -1.39441494180019      0.53138149047504
  H   0.37804150241308     -2.07132678270816      0.03990038732349
  H   -1.00952900055287     -1.84707927917966      0.91657776885057
