14
Coordinates from ORCA-job run
  C   0.71005454617467      0.39761457387481     -0.77132619848797
  C   -0.55763701936882     -0.32501828888958     -0.34329247637107
  F   1.39913183830458     -0.41564543711191     -1.61241675365426
  H   -1.09004725771267     -0.60661803161405     -1.26375832629733
  H   0.51525860965886      1.35798170248384     -1.24458013165764
  N   1.54511485693322      0.66062877637256      0.45585495041323
  O   2.61181776080613      0.08017291976455      0.56993869009733
  O   1.03168772062399      1.45386379338014      1.23499432240391
  N   -1.50162530825068      0.65525949825664      0.31769146371991
  O   -1.71860054578716      1.68221929830129     -0.31483106693992
  O   -2.02217282526593      0.32192001769729      1.37278092000368
  N   -0.22347694767384     -1.37661260061662      0.56344453214858
  H   0.35259130638351     -2.06639994730540      0.09714471883653
  H   -1.05209673482583     -1.81736627459355      0.93835535578507
