14
Coordinates from ORCA-job run
  C   0.63901940216784      0.64120710032297     -0.70822326999437
  C   -0.46656808846035     -0.37528810753566     -0.44590201702282
  F   1.36837934774605      0.25453887851225     -1.77569954983335
  H   -0.90959843779772     -0.59737939772312     -1.41967327161099
  H   0.25295742433921      1.64807970566712     -0.86433232500193
  N   1.54002259612342      0.70878114810799      0.49887874331942
  O   0.93347143275866      0.85648677506096      1.55826480028274
  O   2.74605664593315      0.63701745738103      0.33887203210253
  N   -1.60626572114542      0.33633515538977      0.31290091614448
  O   -2.00989348012245      1.38201378910459     -0.18546528059788
  O   -2.04402725496333     -0.21160486304912      1.31469069855064
  N   0.00960002906318     -1.55109347774200      0.16649891998666
  H   -0.63566008328626     -2.31939114543773      0.05491198187740
  H   0.18450618764401     -1.41070301805902      1.15327762179746
