14
Coordinates from ORCA-job run
  C   0.95606705378823     -0.09721563956198      0.06682909217286
  C   -0.48723097807607     -0.29731818714015     -0.39711886825773
  F   1.10161428834805     -0.51584796655751      1.34456730248148
  H   -0.60079856116911      0.14051017700815     -1.38832773440924
  H   1.64572971542404     -0.63778142942577     -0.58362896101320
  N   1.34671973788629      1.35708941359974     -0.03860367700424
  O   1.50241651902833      1.99273677528090      0.99184204647445
  O   1.45408260432342      1.75337594332175     -1.19396765196035
  N   -1.35133904044425      0.53539128652193      0.52859748615327
  O   -1.82047797141861     -0.02830201711179      1.50823500841449
  O   -1.46403539493631      1.72250817272820      0.23348427378817
  N   -0.94545453699530     -1.64307452029870     -0.37186619075807
  H   -0.69501860502683     -2.11925598958523      0.48333800832398
  H   -0.64327483073186     -2.16181601877953     -1.18338013440582
