14
Coordinates from ORCA-job run
  C   0.72157792580702      0.36996358242430     -0.71192819063392
  C   -0.60840328850582     -0.34954875615890     -0.43859260293594
  F   1.52584284002426     -0.48424887349847     -1.39167245520179
  H   -1.10033525119151     -0.47924837119330     -1.40400726347689
  H   0.60161956799327      1.30350082652530     -1.25999453068413
  N   1.37857293494459      0.71734939194361      0.59428577545477
  O   1.99982659397186     -0.17577472735053      1.16124263613229
  O   1.18607362325826      1.86093688959877      0.99698021797388
  N   -1.45910342076940      0.64572883278489      0.31874977249469
  O   -1.95573463444176      1.54405453670449     -0.35535653910036
  O   -1.53200417809687      0.50818799669527      1.53318082578365
  N   -0.55374826846679     -1.58549079143312      0.25298067148175
  H   0.04354479137236     -1.55121538409114      1.06824606629104
  H   -0.24772923589943     -2.32519515295117     -0.36311438357902
