14
Coordinates from ORCA-job run
  C   0.68895349509669      0.40706747840582     -0.78579591802042
  C   -0.56059632339077     -0.33150671215921     -0.33213142499966
  F   1.37007558217296     -0.39631942733641     -1.64250351680948
  H   -1.10950843455918     -0.61810755428199     -1.24125357966795
  H   0.47193279026024      1.36555305974732     -1.25321895946460
  N   1.54641438464113      0.67880803184168      0.42397893372440
  O   1.03980154006838      1.46501956648875      1.21461420081492
  O   2.62181546032687      0.11061402634730      0.51535088122033
  N   -1.50204485714344      0.63658171797554      0.35056287630189
  O   -1.74630655200032      1.66059660686663     -0.27681285295255
  O   -1.99404650115301      0.29676492758093      1.41712227549101
  N   -0.19461995862471     -1.38014762839204      0.56569538701759
  H   -1.00967372139994     -1.83167045957378      0.95718696820120
  H   0.37980309570510     -2.06225363351057      0.08620472914333
