14
Coordinates from ORCA-job run
  C   1.00661394148621      0.03937923013711     -0.17294186779906
  C   -0.46314595748282     -0.28908994194960     -0.36834953800976
  F   1.44979383699331     -0.51016718959346      0.98342340452266
  H   -0.86585513042682      0.32860341790836     -1.17141353874551
  H   1.58626785284742     -0.34341524862223     -1.01324218836187
  N   1.24757082626572      1.53044693545057     -0.14992542622478
  O   0.91759994113122      2.09649173203061     -1.18523898918153
  O   1.76306642869920      2.01998354393366      0.84049949100961
  N   -1.20077085320114      0.18687943083936      0.90028960019654
  O   -1.16325979831158      1.39347561928078      1.11595319296991
  O   -1.76176598654826     -0.66251916282704      1.58128059326439
  N   -0.60986889278183     -1.66791001075478     -0.63936336486408
  H   -0.33848649358424     -2.22462710431428      0.16126938343096
  H   -1.56375971508638     -1.89753125151908     -0.88124075220745
