14
Coordinates from ORCA-job run
  C   0.95858912064142     -0.08190020247585      0.04470780261427
  C   -0.49234997071471     -0.31029436058968     -0.38031926090119
  F   1.14166248045161     -0.47792682542297      1.32482458516919
  H   -0.63702440505425      0.11189116703008     -1.37427880142556
  H   1.64010467821103     -0.62273376172537     -0.61409832621080
  N   1.32527180018258      1.37605907676088     -0.09298427680756
  O   1.39664122784696      1.75593468800075     -1.25658481427417
  O   1.49857971247460      2.02966435175400      0.92330565206181
  N   -1.34601116774349      0.52193481666839      0.55527765028061
  O   -1.48147343374994      1.70375484766246      0.24875779872530
  O   -1.78479861054402     -0.03587955099262      1.55219245569012
  N   -0.92931260208987     -1.66242609427725     -0.32568812092523
  H   -0.65256200167812     -2.12184918198592      0.53063459840243
  H   -0.63531682823382     -2.18822897040689     -1.13574694239919
