14
Coordinates from ORCA-job run
  C   0.92947550182484      0.00472938948563     -0.37103495154753
  C   -0.58129875729696     -0.21037688140916     -0.30920653318513
  F   1.60966433563201     -0.93608458651716      0.31994972061402
  H   -1.06524282383316      0.40918854936236     -1.06136352953848
  H   1.25698748786019     -0.01599225359486     -1.41378995476541
  N   1.29855517103501      1.37538039058617      0.14012267044997
  O   0.60781905281808      2.27463047148125     -0.33217014101649
  O   2.23409138468312      1.48030446102545      0.91361759878619
  N   -1.12135708772818      0.30583479121339      1.01067240136642
  O   -0.39840065453674      0.16297086663392      1.99449365011365
  O   -2.25611324591339      0.76352890182060      0.99300098211947
  N   -0.96550963175073     -1.57450791022870     -0.43594344657804
  H   -1.27765351401036     -1.82047924057648     -1.36087595020388
  H   -0.27001721878376     -2.21712694928245     -0.08747251661478
