14
Coordinates from ORCA-job run
  C   0.68669368332690      0.37461716939046     -0.74341519852966
  C   -0.61892681265540     -0.36501159468956     -0.41111930550993
  F   1.47994908670691     -0.47305696931573     -1.44365940277279
  H   -1.14623985549415     -0.51218545137383     -1.35511190400307
  H   0.52836378518646      1.29901064506525     -1.29724786541060
  N   1.38652714519665      0.74925991491852      0.53250985112435
  O   2.04323956869677     -0.12707624283466      1.08582472459521
  O   1.19094422408769      1.89432782424478      0.92921236373289
  N   -1.45611700593665      0.62306132779558      0.37007417753379
  O   -1.99511566101206      1.50600662068247     -0.29172132136847
  O   -1.47745590901408      0.49699938467191      1.58781240143081
  N   -0.51498782879902     -1.59275613158604      0.28939340633077
  H   -0.22217493739231     -2.33339366442485     -0.33196756568099
  H   0.11530051710229     -1.53980283254430      1.07841563852772
