14
Coordinates from ORCA-job run
  C   0.55858011725687      0.79498590996783      0.11829126235294
  C   -0.51985901843605     -0.19121940122303     -0.30987412971006
  F   0.45548524827020      1.93680163172447     -0.60131387663663
  H   -0.50149219110426     -0.28520016760122     -1.39606162659259
  H   0.54006673322542      1.01242841374031      1.18546302124552
  N   1.87803646467209      0.14209827789517     -0.18051775181346
  O   2.42734913253189     -0.41297041113608      0.76791943806562
  O   2.25559520372729      0.16630398408256     -1.34573388854811
  N   -1.83644919723617      0.47278303507392      0.02623128872976
  O   -1.99044917893413      0.75978106705154      1.21080361405307
  O   -2.64121479214672      0.63969295167263     -0.88143685613429
  N   -0.48701532830356     -1.46332689144255      0.32369987424060
  H   -0.17543184011532     -1.42746083328737      1.28387541927571
  H   0.03679864659255     -2.14669756651820     -0.20034578852806
