14
Coordinates from ORCA-job run
  C   1.02013267982132     -0.01076881292231      0.04819560036535
  C   -0.39140781538642     -0.35260130517983     -0.39497433970705
  F   1.17486833379337     -0.31258584570386      1.35997424143666
  H   -0.57789036511498      0.08977236542408     -1.37389945715360
  H   1.74065742913563     -0.56923822629299     -0.54985820203999
  N   1.34033820652103      1.44830050437127     -0.17704118735574
  O   1.67139398040524      2.12451974022934      0.78175360631999
  O   1.26507723314337      1.79136309906801     -1.35080815387914
  N   -1.35304331161612      0.38633784805381      0.55913857853267
  O   -2.10847206195590     -0.29538303021431      1.24077292049580
  O   -1.27967262795456      1.61026764958272      0.54597712822531
  N   -0.55795549570456     -1.75543098321028     -0.41149790079682
  H   -1.45321512788068     -2.01670521887101     -0.80056008289987
  H   -0.48981105720674     -2.13884778433467      0.52282724845643
