14
Coordinates from ORCA-job run
  C   0.74150772624979      0.44135395395263     -0.75923303667368
  C   -0.49457524571365     -0.38016014392136     -0.41013291905976
  F   1.45359985079782     -0.19188444365632     -1.71457992353168
  H   -0.92586516473195     -0.69588496323790     -1.36312204133524
  H   0.49408998485642      1.45120265252591     -1.08511750018832
  N   1.59887194234838      0.58532130494251      0.47274963017458
  O   2.79059874589327      0.34312696082462      0.39309205316554
  O   0.97794121730382      0.96868805482689      1.46242704739309
  N   -1.56042292533124      0.57315746799370      0.16872180206054
  O   -2.10226890620332      0.24357740980364      1.21435032445733
  O   -1.80717685635709      1.57073166256320     -0.50108077971030
  N   -0.19590484797143     -1.49591137187293      0.39651024244579
  H   -0.03934229370199     -1.22621161636104      1.35920352760218
  H   -0.93105322743883     -2.18710692838355      0.36621157319992
