14
Coordinates from ORCA-job run
  C   0.59072469363211      0.79002104942221     -0.17618400905534
  C   -0.42803263012021     -0.33126825532276     -0.19934816740903
  F   0.36686628276992      1.63672522646022     -1.21106931758694
  H   -0.41312880615869     -0.81057341781310     -1.17801883959438
  H   0.60551217521176      1.34034428062046      0.76423475804739
  N   1.94588662299384      0.16418824670318     -0.34774368182679
  O   2.69060919542792      0.19703910513563      0.62563704335110
  O   2.17157297967252     -0.33695029468826     -1.44283840032457
  N   -1.78931410150697      0.35144969677385     -0.09923804654775
  O   -2.00946151533189      0.93529922200894      0.96083169958952
  O   -2.55345323448004      0.25008102480702     -1.05258507416510
  N   -0.16454116870556     -1.25049310019495      0.84306824486235
  H   -0.70494293276728     -2.09937437177577      0.75521993487037
  H   -0.30729756063745     -0.83748841213665      1.75603385578917
