14
Coordinates from ORCA-job run
  C   1.02109666322831      0.00882262483890      0.04027751427756
  C   -0.38619496618620     -0.35997067978685     -0.39539721242688
  F   1.19083908753621     -0.29744841639526      1.34912675439090
  H   -0.58734339488264      0.08064999330428     -1.37214581630367
  H   1.74962218874765     -0.53012139820156     -0.56583080852936
  N   1.30700051367140      1.47601255997431     -0.17768095409119
  O   1.22493647567056      1.82232940721230     -1.35007582297748
  O   1.61782310525176      2.15642887954407      0.78499661015370
  N   -1.35557649741044      0.35812795438091      0.56623142436546
  O   -1.32010012706017      1.58364932742919      0.54007677237580
  O   -2.07794466550225     -0.33962791698973      1.26720650259870
  N   -0.52404746731309     -1.76599310770693     -0.41203556671017
  H   -0.44477435971281     -2.14767886893127      0.52214363295622
  H   -1.41533655603827     -2.04518035867233     -0.79789303007960
