14
Coordinates from ORCA-job run
  C   0.69952012344341      0.41428745417690     -0.76994049640020
  C   -0.55894129066365     -0.32529507968983     -0.34380843723297
  F   1.39019618432312     -0.37986413872111     -1.62766645154834
  H   -1.09687685315325     -0.59608658748926     -1.26428555109996
  H   0.49243331070844      1.37973453047640     -1.22729805815564
  N   1.54113653052690      0.66698820423588      0.45537077249915
  O   1.02993137920558      1.45014957992268      1.24607868205690
  O   2.60937774213302      0.08704172244320      0.55775098582601
  N   -1.50554647370598      0.63846381386500      0.33905601226678
  O   -2.01055819060132      0.28891651301059      1.39625476380729
  O   -1.73918303167993      1.66997568901891     -0.28016109341757
  N   -0.20969506624849     -1.38695174277878      0.54432902737361
  H   0.38760880125762     -2.05357624138777      0.07106670180813
  H   -1.03040316554547     -1.85478371708280      0.90325314221679
