14
Coordinates from ORCA-job run
  C   0.61635070988531      0.76055288432435      0.01073472459367
  C   -0.53855450401941     -0.18949555392335     -0.27744197595376
  F   0.57951165952834      1.80766781273768     -0.84613186337857
  H   -0.54945506245286     -0.41846651027213     -1.34352283712527
  H   0.63538737652360      1.11037602167594      1.04211094662473
  N   1.87954700937113     -0.01949179050160     -0.21822472214097
  O   2.23841227898940     -0.16318785161075     -1.38066045991188
  O   2.40220528959319     -0.49670938445254      0.78601663312574
  N   -1.79694884120178      0.60594724650984     -0.01179877074213
  O   -1.90552528966597      1.04816508850502      1.12925226440317
  O   -2.60643671483727      0.71759398953108     -0.92370807733525
  N   -0.58443436549606     -1.37229590048868      0.50996994652730
  H   -0.11861319248488     -2.15084476907021      0.07064088156959
  H   -0.25244635373276     -1.23981128296466      1.45476330974361
