14
Coordinates from ORCA-job run
  C   0.75321567954544      0.45718060623741     -0.73809551334992
  C   -0.48868635402459     -0.37069519362168     -0.42598071329782
  F   1.47954144038413     -0.15555855645779     -1.69603305273058
  H   -0.90580849612265     -0.66469489213151     -1.39211877059503
  H   0.51149762033398      1.47416085064634     -1.04546697060385
  N   1.59167095467635      0.57288439208361      0.50987830060550
  O   0.95612812879802      0.93597084812728      1.49796041793618
  O   2.78405956915635      0.32990262227960      0.44358366254967
  N   -1.56255259610672      0.57088022976585      0.15728074214631
  O   -1.79907553301566      1.58233558022938     -0.49531882904123
  O   -2.11982933352758      0.22010868881228      1.18773731144034
  N   -0.20310845983312     -1.50399217365274      0.36069355582242
  H   -0.06153888270647     -1.25512826895499      1.33133288990347
  H   -0.93851373755750     -2.19335473336306      0.30454696921459
