14
Coordinates from ORCA-job run
  C   0.58758124319910      0.75722948345736     -0.42245874857827
  C   -0.46877103353401     -0.29833221732663     -0.15749078327592
  F   0.63438963541001      1.08065292160912     -1.73989184150653
  H   -0.48928389460628     -0.99636414975600     -1.00401957798687
  H   0.46925241735722      1.64715833281754      0.19125944509601
  N   1.92919038200101      0.16379628089321     -0.08332174556304
  O   2.14460369902095     -0.96556230524544     -0.52184002110883
  O   2.70718776776957      0.86268307871045      0.55604311118639
  N   -1.83059180716679      0.36046203100698     -0.16008963705180
  O   -1.92414072846364      1.49329956710396     -0.61873414143592
  O   -2.75244709815228     -0.32331226471150      0.27198933304997
  N   -0.26733771997661     -0.87940899352993      1.14560218912278
  H   -1.14477088033167     -1.26957551715326      1.46850283951792
  H   0.40413801747339     -1.63372624787588      1.07444957853416
