14
Coordinates from ORCA-job run
  C   0.69694713432578      0.39696158242718     -0.77663301502822
  C   -0.56649379225752     -0.32386053683643     -0.33498721717300
  F   1.37725443519171     -0.41387641608100     -1.62692131077812
  H   -1.11383400617580     -0.59889711735727     -1.24859388240192
  H   0.49612287167674      1.35833109284441     -1.24488917272870
  N   1.54698401023813      0.65792632826652      0.44164206248839
  O   2.59924905068661      0.05120456288251      0.55704315798535
  O   1.05604764621443      1.46936307206829      1.21640594154670
  N   -1.49903653709583      0.66166570882386      0.34011926254062
  O   -1.73394890149175      1.68054485042002     -0.29952728474811
  O   -2.00430088092347      0.33152883110752      1.40307483510582
  N   -0.22505049036457     -1.37636874480409      0.56489404753027
  H   -1.04417480700153     -1.87089680071955      0.88955158564691
  H   0.41323426697709     -2.02362641304193      0.11882099001397
