14
Coordinates from ORCA-job run
  C   0.74881714707435      0.42913378381760     -0.75944374635235
  C   -0.49923355033588     -0.37380137195749     -0.40991533396985
  F   1.45300957618801     -0.21642589962191     -1.71230429530610
  H   -0.93387198539668     -0.68690954770348     -1.36224672351478
  H   0.51640977547521      1.44172296932454     -1.08773119189811
  N   1.60634269653014      0.56302187457286      0.47371139806424
  O   2.79363361675459      0.29890833151669      0.39785785811473
  O   0.99007720866431      0.96127043886672      1.46044894388116
  N   -1.55267848795288      0.59625236955063      0.16423712417828
  O   -2.10103104817232      0.27753906894265      1.20980369139493
  O   -1.78461438783681      1.59478594051362     -0.50946148007108
  N   -0.21752566162407     -1.49087474364159      0.40083779920114
  H   -0.05884088451639     -1.22106304914426      1.36312683008682
  H   -0.96149401485153     -2.17256016503659      0.37107912619100
