18

C	0.0	0.0	0.0
C	-0.548359	-0.007985	-1.440133
Cl	1.773787	0.0	0.0
H	-1.633597	0.11656	-1.336765
N	-0.340544	1.370794	0.702449
O	-0.335849	1.327324	1.925923
O	-0.539123	2.367577	0.022688
N	-0.524779	-1.078429	0.713147
H	-0.275428	-1.000695	1.691522
H	-1.549938	-1.039507	0.613669
N	-0.357944	-1.413448	-1.957833
O	0.758391	-1.710857	-2.38737
O	-1.330005	-2.161431	-1.949788
C	0.060637	0.936208	-2.457212
H	1.133928	0.777245	-2.549661
H	-0.401509	0.738258	-3.42761
H	-0.141062	1.965805	-2.177523
Cl	-3.547635	0.0	0.0
