16
Coordinates from ORCA-job run
  C   -0.80980520365671     -0.14257134391953     -0.24742046392507
  C   0.66861379142580     -0.49598392051498     -0.17501568452503
  H   -1.29111957573702     -0.98662097144527     -0.75113718904629
  H   1.06173380090102     -0.75351448905220     -1.15965332121719
  C   -1.01584856174366      1.13790990743519     -1.06552981914262
  H   -0.53159184752919      1.05114308844875     -2.04080855441986
  H   -0.60708316884522      2.00373391197543     -0.54290696295226
  H   -2.08163159549173      1.30728707378444     -1.22114073057415
  C   -1.42482828057578     -0.03156622024692      1.07753343661449
  N   -1.98182211755954      0.06842390898601      2.10610363078792
  N   0.92965167369673     -1.69079795245655      0.70997150832546
  O   0.09551246644542     -2.58450894425265      0.63096373217531
  O   1.96579760936959     -1.69414668678827      1.35923519901408
  N   1.48323682295661      0.65100822541296      0.32479067888753
  O   2.35312726294429      1.07000383119537     -0.43486853456362
  O   1.18705692339939      1.09020058143823      1.42988307456132
