16
Coordinates from ORCA-job run
  C   -0.77369008394601      0.08743911202129      0.16353879981250
  C   0.74482476121166      0.08863351193670      0.18774544133836
  H   -1.10613393247071     -0.86292012567233      0.59065857510945
  H   1.19562084923304      1.03708555284275     -0.10040045031578
  C   -1.30689087108973      0.25095197740457     -1.26499857266585
  H   -1.04063699148841     -0.61457327709330     -1.87345829482788
  H   -2.39416044635888      0.32739863422343     -1.24119274066461
  H   -0.90760461465403      1.15161361813010     -1.73509392604437
  C   -1.23969280945928      1.17513204605656      1.02503522071666
  N   -1.61208261567106      2.07695407828697      1.67826967537236
  N   1.25061186291387     -0.95365588222170     -0.76372150965160
  O   0.98413531859567     -2.11600499456360     -0.47445138581000
  O   1.83808477451845     -0.54989626052953     -1.76117159235368
  N   1.30804088836123     -0.27341166055425      1.53801080653763
  O   2.50926550193894     -0.05801286027998      1.66395700307333
  O   0.55130840836524     -0.76573346998766      2.36627295037348
