16
Coordinates from ORCA-job run
  C   -0.90033129896951     -0.11379877831962      0.01039938807235
  C   0.44566078665342     -0.55912760815698      0.58283700538733
  H   -1.40412812648728     -1.02589869472484     -0.32629045512099
  H   0.37379907223608     -0.96590964088512      1.59123522549959
  C   -0.78335998924402      0.85711430385584     -1.17023737533908
  H   -1.77629821585648      1.03801606627759     -1.58357139284238
  H   -0.15123586861894      0.43323838473419     -1.94883734043732
  H   -0.37023124468767      1.81424386548939     -0.84856076786442
  C   -1.70468151281414      0.46920283935443      1.08706845236742
  N   -2.37049776891980      0.94544756255938      1.92891684672785
  N   1.38553104741043      0.61201877520547      0.65466823207050
  O   2.15521677391434      0.77961438357306     -0.28295411481452
  O   1.23035855289625      1.33420882314772      1.63239219453208
  N   1.11869224095446     -1.61451478030421     -0.25078709688898
  O   0.61688302675469     -1.92034206803834     -1.32715078406257
  O   2.13362252477819     -2.08451343376798      0.24987198271315
