16
Coordinates from ORCA-job run
  C   -0.74058588774293      0.00221468067909     -0.29204914798388
  C   0.55118647098800     -0.31632596406915      0.44035260550741
  H   -0.68400833449440     -0.47391390982674     -1.27507888403938
  H   0.56371301346625      0.00023418014506      1.48216349197624
  C   -0.93750331808812      1.51589624750420     -0.43812786317948
  H   -0.16992336129553      1.93923888575273     -1.08785866172230
  H   -0.89635655091214      2.01549815641000      0.53172135315021
  H   -1.91042583902342      1.71528917373025     -0.88804103119387
  C   -1.84419765955007     -0.60179778232105      0.45606876254523
  N   -2.73192465967626     -1.04575918305758      1.08341895304197
  N   1.68817651990798      0.37494339726729     -0.25018783293425
  O   2.23574151154400      1.28329804677660      0.36471071107192
  O   1.93086272701877     -0.00545731707371     -1.39136538530692
  N   0.88627650990125     -1.78531390009182      0.42332098112147
  O   1.78425470608958     -2.11226721625656      1.19279489068859
  O   0.27371415186705     -2.50877749556861     -0.35284294274297
