16

C	-0.52835	0.023295	-1.420416
C	0.0	0.0	0.0
F	0.050148	-1.049455	-2.095234
H	1.087648	0.0	0.0
H	-1.609179	-0.156929	-1.422743
C	-0.146844	1.287539	-2.156621
H	0.927359	1.449428	-2.052904
H	-0.676505	2.15847	-1.770403
H	-0.401208	1.158717	-3.211524
N	-0.468605	-1.163539	0.760277
O	-0.048412	-1.243455	1.916333
O	-1.172241	-2.01338	0.200187
N	-0.440919	1.206444	0.726396
O	-1.46821	1.145747	1.416018
O	0.239938	2.221183	0.561803
H	2.521114	0.0	0.0
