16

C	-0.538061	-0.004358	-1.424293
C	0.0	0.0	0.0
F	0.126918	0.954065	-2.174582
H	1.08884	0.0	0.0
H	-0.279646	-0.974775	-1.847762
C	-2.020954	0.26815	-1.523933
H	-2.343295	0.197509	-2.565899
H	-2.235413	1.276353	-1.166904
H	-2.575825	-0.45352	-0.927716
N	-0.364591	-1.201158	0.724227
O	-0.910946	-2.136406	0.105708
O	0.051091	-1.281301	1.887228
N	-0.4493	1.193872	0.726077
O	0.012634	2.253769	0.297108
O	-1.265922	1.100876	1.649229
H	2.42877	0.0	0.0
