16

C	-0.536992	0.02544	-1.424182
C	0.0	0.0	0.0
F	0.186151	0.940386	-2.18002
H	1.088863	0.0	0.0
H	-0.343436	-0.962132	-1.845749
C	-2.00244	0.392281	-1.52352
H	-2.604885	-0.278627	-0.909903
H	-2.333099	0.324077	-2.562958
H	-2.143747	1.422068	-1.186345
N	-0.390333	-1.198631	0.71392
O	0.036275	-1.304557	1.870387
O	-0.988012	-2.105238	0.098742
N	-0.429478	1.196149	0.736938
O	-1.23647	1.110276	1.667134
O	0.044199	2.252556	0.310876
H	2.430535	0.0	0.0
