12
Coordinates from ORCA-job run
  C   -0.36497057809390      0.40216615072833     -0.18100359170710
  C   0.96245689007319     -0.17929265614041      0.29416004009624
  F   -0.19990246786963      0.80219066013524     -1.50314560324875
  H   0.86386609642671     -0.54401363502619      1.32082416559432
  H   -0.60480301232109      1.30214036354239      0.39313025045096
  H   1.22331036421207     -1.03128838483757     -0.34052910273128
  C   -1.49117665279279     -0.60317488555934     -0.11493983429278
  H   -1.24591149999842     -1.48283985041945     -0.71365167238007
  H   -1.67614248340869     -0.91510299590129      0.91524489380856
  H   -2.40579209381482     -0.16118217586978     -0.51239756043019
  C   2.04189482385956      0.80490258728116      0.23846929513703
  N   2.89817061372781      1.60549482206691      0.20383871970306
