12
Coordinates from ORCA-job run
  C   -0.42517300360072      0.60566922240943     -0.29684950106776
  C   0.92197020826994      0.60468062732651      0.42167397309087
  F   -0.17515035541897      0.71720577868848     -1.66138758851952
  H   1.48164541974066      1.49814048343772      0.13299865673261
  H   -0.96959869378063      1.50853501591104     -0.00107124975614
  H   0.76396851538549      0.64510156456879      1.50363549008749
  C   -1.25430209033715     -0.63235844132972     -0.05251465590232
  H   -1.47525345170614     -0.74597031567292      1.01144945909288
  H   -2.19648334373372     -0.55924845914573     -0.59723531931193
  H   -0.72063685839678     -1.51869660044841     -0.39940432300488
  C   1.71564355050351     -0.57993948099514      0.09807111666439
  N   2.33337010307450     -1.54311939475005     -0.15936605810568
