12
Coordinates from ORCA-job run
  C   -0.28665495683556      0.11806580327957     -0.48081497474341
  C   0.92073582961971      0.00871095273986      0.44462210202460
  F   -0.10056570595735     -0.78493889856489     -1.52267974479048
  H   0.79290209255937      0.67148340610348      1.30545481549723
  H   -0.32330263736144      1.11487736153171     -0.93037502399112
  H   0.98755561216188     -1.01707747711752      0.81862315308545
  C   -1.58347161331250     -0.21121119057578      0.22155212524265
  H   -2.40888693712631     -0.17595732904756     -0.49063011635086
  H   -1.78595059539994      0.50318229458874      1.02253770104951
  H   -1.53774364838237     -1.21648414606241      0.64565927704828
  C   2.16671223421628      0.34933186464047     -0.23970802857214
  N   3.15867032581823      0.63901735848433     -0.79424128549971
