12
Coordinates from ORCA-job run
  C   -0.43470275306999      0.60680372605129     -0.18690013967687
  C   1.08009153889718      0.40932638021159     -0.14534462821934
  F   -0.70004576820368      1.32021235961776     -1.35477005364756
  H   1.57192193919417      1.38302825597391     -0.21411696965272
  H   -0.74753481888497      1.23954902883421      0.64906421667928
  H   1.38752713866487     -0.18057761872361     -1.01368334045262
  C   -1.21393768099486     -0.68551327879189     -0.21397144005877
  H   -1.04514018242597     -1.26135446773798      0.69776704889367
  H   -0.91061117260306     -1.28606051260402     -1.07422109394819
  H   -2.28041965773655     -0.47322492910381     -0.29968679569084
  C   1.49727692401387     -0.26529529291619      1.08021712687346
  N   1.79757449314899     -0.80689365081125      2.07664606890050
