17
Coordinates from ORCA-job run
  C   0.76936700298624     -0.12714103413398      0.50608512206508
  C   -0.72808139248263      0.07526392749695      0.23081417315592
  Cl  1.07371304785591     -1.36504833235149      1.70109079472559
  H   -1.14104962105203      0.39407019183195      1.19813803663813
  N   1.42870548986567      1.15329443939201      1.03204693804602
  O   2.63479151964417      1.09917483780934      1.20961312060879
  O   0.69295818811748      2.10810940629175      1.25851579708636
  N   1.48805730239393     -0.44778031693730     -0.80159045901509
  O   1.99031290998485      0.49585444163750     -1.39185409544794
  O   1.42359670296935     -1.61156640999089     -1.17172009058809
  C   -1.41738676238311     -1.21167479664616     -0.20685163520565
  H   -2.49273506159651     -1.02211427395532     -0.25083770614513
  H   -1.07490057370433     -1.50969044642785     -1.19825955714451
  H   -1.24784874759036     -2.03399961917194      0.48473762679199
  N   -0.85990826030696      1.06217762811152     -0.82248496604835
  H   -1.73067873597290      0.93958980338204     -1.31988746469421
  H   -0.80891300872877      2.00248055366188     -0.45755563482890
