17
Coordinates from ORCA-job run
  C   0.74079872853023     -0.20872726605880      0.54892592533885
  C   -0.72388006902761      0.11565768314549      0.23820396180925
  Cl  0.89606921125986     -1.38481497450964      1.82970079014397
  H   -1.13264435501407      0.34630327563726      1.22681417898548
  N   1.41230333174676      1.10000878640026      0.99046405377492
  O   2.29076396953084      1.54864456927771      0.27210196149098
  O   0.96212399195344      1.58108550756750      2.01584546414773
  N   1.53766527036761     -0.67278450172601     -0.66826945589610
  O   1.07631866795714     -0.35522277178477     -1.76012715287361
  O   2.57987366325635     -1.27422909473281     -0.46437184129036
  C   -1.48490729905281     -1.07253354365068     -0.34637958484471
  H   -2.54484905211981     -0.81389809770442     -0.39417888661225
  H   -1.38550228460938     -1.97181452394709      0.26421616012054
  H   -1.14266402586271     -1.29120873738990     -1.35821248569622
  N   -0.76667084616792      1.34600063124895     -0.53097318584635
  H   -0.69115401973766      1.15932465267251     -1.52131521789022
  H   -1.62364488301029      1.84820840555444     -0.34544468486190
