17
Coordinates from ORCA-job run
  C   0.84072533439234      0.04869769205855     -0.14355301071284
  C   -0.65809505589696      0.05137969307032      0.15123904405230
  Cl  1.20791049705199      0.13433556686662     -1.83962145450442
  H   -0.72798048148232     -0.12586267211460      1.22663317274752
  N   1.57450727392878     -1.15017670172707      0.46326537351459
  O   2.78133381232100     -1.18444298898746      0.26872949817563
  O   0.91015135573998     -1.94214338316633      1.12054985896675
  N   1.45973698621847      1.23763090262989      0.61248923165576
  O   1.96273998752986      2.14765739199655     -0.01442788095292
  O   1.35216311743128      1.12733448298211      1.82750023684426
  C   -1.42403333427411     -1.03160218492823     -0.59928310019842
  H   -2.46142065406549     -1.02104795146922     -0.25711929607909
  H   -1.42065789174842     -0.83503652185532     -1.67316348841025
  H   -1.01654953576007     -2.02645344300485     -0.42005991303772
  N   -1.10713176913763      1.41259171049541     -0.10406844418355
  H   -1.91839514289860      1.62700309604767      0.45958962741405
  H   -1.35500449935008      1.53313531110594     -1.07869945529162
