17
Coordinates from ORCA-job run
  C   0.82792787715138      0.21331967697565     -0.13994778582849
  C   -0.67563698518898      0.06549493255031      0.13074544983962
  Cl  1.21120156346618      0.75714549779289     -1.73573357373018
  H   -0.73983800048065     -0.23049339904374      1.18490898932434
  N   1.49172402001429     -1.13299311538035      0.16550162272841
  O   1.46751027271843     -1.42590839074757      1.35695052650694
  O   1.91055235510896     -1.81220268637806     -0.75619809364540
  N   1.49038592831653      1.15500965787466      0.87268126013710
  O   0.76683758643215      1.68146534064568      1.70938404272516
  O   2.70193411227255      1.27461605456766      0.76886711168567
  C   -1.26011908509621     -1.03958568730429     -0.73828828389099
  H   -0.77016015599095     -2.00048931639482     -0.57853431956821
  H   -2.31531122193410     -1.16309592867432     -0.48361897872861
  H   -1.18496108896667     -0.77732109201247     -1.79479538648670
  N   -1.32141300202959      1.33025103968334     -0.15140415110277
  H   -2.26584126909104      1.18537292357462     -0.47889666376550
  H   -1.33579290670229      1.91841449227081      0.66937823379960
