14
Coordinates from ORCA-job run
  C   0.66000580273994      0.09485468015838     -0.44105327191599
  C   -0.61364266339534     -0.57310380271704      0.12145735094013
  Cl  1.14329274311279     -0.83052493321187     -1.93801066461970
  H   -0.33106612212149     -1.61567292386871      0.34719603363688
  C   0.38490936067926      1.47414788258918     -0.84506594196097
  N   0.20686690101677      2.58439944207184     -1.18388112858561
  N   1.66001660824625      0.07617807295847      0.57664911020881
  H   2.44365628091743      0.67228645912736      0.33956578206406
  H   1.99835111126931     -0.86970538288713      0.71697427764775
  C   -1.67768090046950     -0.61662864752254     -0.88571283959129
  N   -2.55795789932376     -0.68544858885772     -1.65881850334537
  N   -1.05361126892305      0.21800827095220      1.25364898169368
  H   -1.92399636972399     -0.13759713833866      1.62781431095864
  H   -0.33814358402461      0.20780660954626      1.96923650286898
