14
Coordinates from ORCA-job run
  C   0.76039505090817     -0.01403955116429     -0.37562957676067
  C   -0.66474089686969     -0.59119269266653     -0.19817169506812
  Cl  1.90276971852467     -1.34883329101558     -0.65459087961350
  H   -0.92905070868472     -1.12397147716922     -1.11681284392579
  C   0.79135108211835      0.84671067881416     -1.57206067538607
  N   0.80583703574466      1.57719089127364     -2.49330502692193
  N   1.13276126581331      0.66647206696429      0.84669006313279
  H   0.63470947569124      1.54986991110915      0.91217442192511
  H   2.12754731534761      0.85977030227739      0.84995994118153
  C   -1.58050883200518      0.56248302169249     -0.04501050428359
  N   -2.30080933894912      1.47119784584148      0.14828313063989
  N   -0.67883754608205     -1.51467100141918      0.90999835463484
  H   -1.60311882182783     -1.90755173345580      1.03275483214478
  H   -0.39830479972946     -1.03343497108199      1.75572045830073
