14
Coordinates from ORCA-job run
  C   0.57790341053214      0.30866118440936     -0.40297451031048
  C   -0.54899430437193     -0.32246311600288      0.43778401224443
  Cl  -0.06403092616941      0.72834680359455     -2.01825532665984
  H   -0.09904986659669     -0.56498080978752      1.40886336951111
  C   1.00839312891552      1.55979772003955      0.24636985150044
  N   1.46473751151162      2.50637943052448      0.77310048532866
  N   1.63209735114116     -0.65733970700126     -0.58237518341791
  H   2.10120769220617     -0.82216220894603      0.30289798723236
  H   2.31613927413003     -0.31472487084320     -1.24741087210212
  C   -0.98218053125994     -1.58730177276444     -0.18564745629774
  N   -1.43089136977066     -2.56472896317799     -0.65789823767834
  N   -1.60223012310331      0.64194521565446      0.66615832953064
  H   -2.20039493766735      0.34123483142649      1.42478121348326
  H   -2.17070630949736      0.74833626287443     -0.16539366236447
