14
Coordinates from ORCA-job run
  C   0.63019468622348      0.31304213608052     -0.46706084354820
  C   -0.52997623896856     -0.15905255451134      0.45304643588438
  Cl  0.02505633141024      0.27510945595040     -2.15792110869540
  H   -0.14574858403791     -0.06505426789180      1.47569064061897
  C   0.95157932216222      1.69848727287080     -0.10574570783488
  N   1.25402665126870      2.78053263492452      0.23519383867878
  N   1.82685267714215     -0.47562197579165     -0.40939753389546
  H   1.63395681585497     -1.44960658332151     -0.61362877468341
  H   2.28343121580128     -0.38404793247303      0.49037834730195
  C   -0.76906984277413     -1.59515104508908      0.20210593017586
  N   -0.98339051638232     -2.73185093599862     -0.00472045985968
  N   -1.68136221414681      0.70095131650938      0.32756379231973
  H   -2.31394452478018      0.57522849407431      1.10666061489373
  H   -2.18060577877311      0.51603398466711     -0.53316517135638
