14
Coordinates from ORCA-job run
  C   0.72586091957226     -0.05871975723628     -0.53023591830767
  C   -0.52821673068012     -0.64372706639114      0.15531901744813
  Cl  1.07026864608741     -1.00548985755255     -2.00534897098681
  H   -0.25622280113571     -1.67113102248073      0.41493846528842
  C   0.44028987469313      1.32905740334877     -0.94162390609649
  N   0.22275029542456      2.45968655775215     -1.18144109607462
  N   1.81791987206134     -0.19468933236788      0.38787136460705
  H   1.53557901086311      0.21643680234376      1.27231547380794
  H   2.64883960393292      0.26542268486501      0.03581243377819
  C   -1.67685663794198     -0.66672523170127     -0.76465236775143
  N   -2.64074390843594     -0.64930589709678     -1.43586597945187
  N   -0.76663338292627      0.10794908907476      1.37893721027317
  H   -1.30539583413675     -0.44483603816531      2.03369037145367
  H   -1.28643892737797      0.95607166560749      1.18028390201231
