14
Coordinates from ORCA-job run
  C   0.75970734543475      0.11557734389712     -0.34970804495098
  C   -0.64685450256665     -0.49015699978115     -0.11815497895137
  Cl  1.90771633773855     -1.35470370216398     -0.36883543102973
  H   -0.81049395111038     -1.24595470691665     -0.89686697134280
  C   0.86302262115419      0.69870614359527     -1.68732649508960
  N   0.92326773192106      1.16508509306909     -2.76385794061857
  N   1.03496412316364      1.05488433345817      0.64754663178557
  H   1.95864138063955      1.45947477080882      0.58457646447754
  H   0.84226608806713      0.66335141904209      1.56226047958336
  C   -1.65415528283796      0.56243180952682     -0.28360232758356
  N   -2.49967774741097      1.36663839896153     -0.41185873197504
  N   -0.70087430802086     -1.01050081509560      1.24285909255608
  H   -1.65515705184205     -1.03666845609613      1.57774794954737
  H   -0.32237278433000     -1.94916463230541      1.26422030359175
