14
Coordinates from ORCA-job run
  C   0.80274634379761      0.14035195825667     -0.39615808179261
  C   -0.56502063386180     -0.56143853586731     -0.13251105569404
  Cl  1.98533043615627     -1.21927292328473     -0.65911987952397
  H   -0.78582668440597     -1.21776423656484     -0.98506603061375
  C   0.73112126134574      0.89700899110507     -1.64655079873505
  N   0.63122936682794      1.50921033063475     -2.64417409345231
  N   1.24045903227368      0.96397167017196      0.67299297615758
  H   0.92829771439741      1.92044330017197      0.57447245853728
  H   0.93951615133850      0.56069672365602      1.55372569935098
  C   -1.59620910917187      0.47822725132183     -0.06186558841424
  N   -2.41858540007936      1.31342801105332      0.00787509324992
  N   -0.48396136083692     -1.23948259521551      1.15368272754821
  H   -1.40954244454118     -1.42190503618456      1.52004414266063
  H   -0.00055467324005     -2.12247490925463      1.04365243072138
