14
Coordinates from ORCA-job run
  C   0.65750789298309      0.23629080922855     -0.47417068400217
  C   -0.56262757344607     -0.08312169992030      0.43346934278325
  Cl  0.21027872942608     -0.21178930525409     -2.15514419100005
  H   -0.27488710902235      0.25735828933825      1.43535838027992
  C   0.89456259790760      1.68296545092171     -0.41263138140228
  N   1.12484421652048      2.82900200302046     -0.30174019692609
  N   1.87224165091441     -0.45114229200638     -0.14309438355072
  H   2.24189063611171     -0.13512820212469      0.74564340348461
  H   1.73474356182998     -1.45533769899835     -0.13555549704112
  C   -0.72579440804182     -1.55013695729242      0.49746126962417
  N   -0.88105098752115     -2.71424464647757      0.53898045278665
  N   -1.72881054584597      0.66156261437229      0.02504874209573
  H   -2.42645761489760      0.67173936297432      0.75766542409155
  H   -2.13744104691837      0.26398227221823     -0.81129068122344
