14
Coordinates from ORCA-job run
  C   0.64489356373580      0.23800660084772     -0.20372726923817
  C   -0.69423902706486     -0.29296497910727      0.40048596906383
  Cl  0.35989700013981      0.53757295945688     -1.99605878602659
  H   -0.48513861295820     -0.41063675099875      1.46996386051448
  C   0.91662746759294      1.54763410865385      0.39303861879853
  N   1.08892116636281      2.58925476854155      0.90826483922807
  N   1.70026731443403     -0.65840817016581      0.07511710092537
  H   2.59941976563528     -0.29915255588335     -0.21967418600973
  H   1.53860076103526     -1.56549065497000     -0.34815239056513
  C   -0.93044116746118     -1.63370402580180     -0.15151841762382
  N   -1.06896277063752     -2.70789718083424     -0.60428373788959
  N   -1.86289122424567      0.52980834492101      0.24802221231117
  H   -2.04935048686393      0.72740053596411     -0.72673560413155
  H   -1.75860374970457      1.39957699937608      0.75525779064312
