14
Coordinates from ORCA-job run
  C   0.60251918250199      0.22037839448730     -0.32754704540413
  C   -0.67629986239794     -0.36779525629255      0.34002975771810
  Cl  0.22479494561938      0.69942361762861     -2.00561894732048
  H   -0.36581951672120     -0.68551253530065      1.34478228508560
  C   0.96011032940025      1.44639773034511      0.41158405263218
  N   1.25593850834215      2.37235752471694      1.07359092778395
  N   1.62950234658888     -0.78281641948353     -0.36400133871163
  H   2.44414124074181     -0.45280259559345     -0.86833457487261
  H   1.90648208225760     -1.03952430431272      0.57781749449753
  C   -1.08150071349934     -1.57195122207169     -0.39602368231956
  N   -1.42831399442373     -2.54088191187707     -0.95957276866040
  N   -1.79762195897305      0.52496366070605      0.48734979223855
  H   -1.57011426984210      1.30121826812170      1.09598309532534
  H   -2.10381831959471      0.87654504892596     -0.41103904799243
