14
Coordinates from ORCA-job run
  C   0.54811714160929      0.27464395815139     -0.37851193332748
  C   -0.61218458571688     -0.42759861604056      0.38843029813287
  Cl  -0.06548339620623      0.90054352505428     -1.93368444843155
  H   -0.15921413813304     -0.82938889139037      1.30508338517261
  C   0.97047564628386      1.43518833478265      0.42908810033027
  N   1.33199584330419      2.30246673030197      1.13655272644598
  N   1.58678074176496     -0.67887097797749     -0.65240117695906
  H   1.99596482300088     -1.01337996756916      0.21392391862801
  H   2.31646614059607     -0.26902999203071     -1.22379058601754
  C   -1.08167131165973     -1.56751490410991     -0.40918745270666
  N   -1.49875445087663     -2.46950188245583     -1.03285154542962
  N   -1.72716412869632      0.39936037157520      0.77357653602926
  H   -2.16497214338176      0.82089766796054     -0.03542668784683
  H   -1.44035618188866      1.12318464374800      1.42019886597974
