14
Coordinates from ORCA-job run
  C   0.68707591426615      0.02902386667597     -0.53599423360847
  C   -0.56671549381197     -0.65813957811550      0.10289404635503
  Cl  1.10701113050944     -0.90316855284027     -2.00715873943967
  H   -0.26470435476668     -1.69373143021361      0.30234859702247
  C   0.32491279261003      1.40099605961084     -0.90515485363353
  N   -0.01729230353983      2.50289936066604     -1.12661207269895
  N   1.84455917899186      0.06894436605271      0.31232832819077
  H   1.73367779889704      0.72584797633165      1.07371799494007
  H   2.08351517949875     -0.85369459793493      0.65593947689845
  C   -1.67800592066475     -0.68366169063283     -0.85468763037019
  N   -2.57789832090014     -0.67010216125316     -1.60835941467098
  N   -1.02107719449048     -0.06091061863515      1.33580671158646
  H   -1.34426091748838      0.88912634726612      1.20142145002262
  H   -0.31079748911106     -0.09342934697790      2.05351033940594
