14
Coordinates from ORCA-job run
  C   0.72615598958954     -0.05056379643891     -0.53133214553140
  C   -0.52207224470376     -0.64853132896705      0.15376726745666
  Cl  1.07715487045466     -0.98949840338933     -2.00992588325080
  H   -0.24019865308920     -1.67394423093982      0.41034030982711
  C   0.42771370769041      1.33597640371049     -0.93787169230717
  N   0.19707564698910      2.46504695994748     -1.17245149532919
  N   1.82011032109280     -0.18018361989503      0.38523379266530
  H   2.64677872950325      0.28837895702107      0.03425100403624
  H   1.53506218240467      0.22475525794406      1.27163813757977
  C   -1.67177834472605     -0.67995298992938     -0.76442882722507
  N   -2.63845906021677     -0.67114342267456     -1.43187022852590
  N   -0.76583224663564      0.09802576621168      1.37949692130750
  H   -1.30107329137010     -0.46017840571718      2.03239283863995
  H   -1.29163760698293      0.94281285311648      1.18276000065700
