14
Coordinates from ORCA-job run
  C   0.72019101669631      0.04858012406171     -0.54665722365610
  C   -0.68058935711044     -0.43174764795050     -0.05726185665429
  Cl  1.53379421836515     -1.45060600636753     -1.18593072219866
  H   -1.19031755266653     -0.92180656500111     -0.89774955223425
  C   0.55697054016865      0.96400528016881     -1.67636993931268
  N   0.38971017627463      1.71006043707287     -2.56835219606500
  N   1.51400493244577      0.63430492484698      0.47303113429386
  H   1.38844061947753      1.63564449906595      0.53122906027889
  H   1.31528216372906      0.17942198695204      1.35778623857254
  C   -1.45028281827777      0.75370952588470      0.33180640224134
  N   -2.05839547683536      1.70453215713397      0.65560260013982
  N   -0.48446260771623     -1.27682131224302      1.11262472064988
  H   -0.21485106377827     -2.20772319846617      0.81880675716329
  H   -1.33849479077251     -1.34355420515871      1.65143457678136
