14
Coordinates from ORCA-job run
  C   0.56715931495555      0.35442925398978     -0.38545986832967
  C   -0.53774012034659     -0.36311651596472      0.41448718817616
  Cl  -0.06709926025628      0.78230206016701     -2.00145909058646
  H   -0.09374996396670     -0.60559998764048      1.38831877845412
  C   0.91304133995712      1.60852697112992      0.30704085093131
  N   1.30085387036984      2.55719138581087      0.88276193570768
  N   1.67738053419289     -0.54528653407528     -0.56929977505248
  H   2.13507195503988     -0.71389161664182      0.32115485314170
  H   2.35594180640379     -0.14534567393151     -1.20732650984618
  C   -0.88432895083831     -1.63395404762269     -0.24927583815846
  N   -1.26722970235084     -2.63262001466632     -0.73482978016869
  N   -1.64955106374606      0.53254705331235      0.64530170184194
  H   -2.24416544405980      0.17709468019927      1.38276531521470
  H   -2.20658431535448      0.62872298593362     -0.19517976132568
