14
Coordinates from ORCA-job run
  C   0.51147305900031      0.39707552839537     -0.42002540346134
  C   -0.47839325437705     -0.40870802623457      0.44400926375528
  Cl  -0.33432148315012      0.98389065276057     -1.88184740724087
  H   0.09239997061825     -0.74694052918883      1.31809698061369
  C   0.95501338319253      1.57585246616879      0.34544821073243
  N   1.42206260549941      2.46364215759405      0.95808068917285
  N   1.58153279894143     -0.46904036499039     -0.84506442854503
  H   2.16872206370358      0.00053838034714     -1.52488734232076
  H   2.15554033869478     -0.72396169678164     -0.04735711002652
  C   -0.91857202298906     -1.60734268438194     -0.29473539457096
  N   -1.36866669288324     -2.55391253056218     -0.82492778052336
  N   -1.54343401052690      0.44861634989870      0.91509714352424
  H   -2.20896031716093      0.62655608633148      0.17257691514281
  H   -2.03439643856302      0.01373421064346      1.68553566374755
