14
Coordinates from ORCA-job run
  C   0.66012540342359      0.23136020774304     -0.36014535662373
  C   -0.64355420033754     -0.22072288534618      0.38933112145191
  Cl  0.29946508529715      0.25507180131669     -2.11668917108367
  H   -0.37997441850315     -0.19771648690186      1.45497703581723
  C   0.94333897977218      1.60210730030527      0.08120913896496
  N   1.11227308715387      2.68297361613070      0.50946744099372
  N   1.81767533902988     -0.58906614275911     -0.15010616579465
  H   1.62885568003521     -1.54978033064727     -0.41454273405049
  H   2.12650349660313     -0.54525652423672      0.81427220531441
  C   -0.89345101003333     -1.62424485288101      0.03501463058997
  N   -1.04951823474559     -2.74856555667478     -0.26433338424941
  N   -1.83295699395164      0.56933601755460      0.20839719384394
  H   -1.70572082845526      1.50109008796573      0.58373114539115
  H   -2.08206138528850      0.63241374843090     -0.77058310056532
