14
Coordinates from ORCA-job run
  C   0.65057628149339      0.08982321547929     -0.45752644496547
  C   -0.61032072642897     -0.57235716698328      0.13924190509438
  Cl  1.09572492483639     -0.84483491983886     -1.96067319667727
  H   -0.32330867087346     -1.61361366573395      0.36545211879821
  C   0.36819705585783      1.46750138373206     -0.86269510508042
  N   0.18368004730997      2.57503852123925     -1.20648581997762
  N   1.67459973943403      0.07478339178250      0.53595869850527
  H   2.45314583979733      0.66820779081424      0.27687498531498
  H   2.01442435158812     -0.87098042488311      0.67328878546286
  C   -1.69837580643647     -0.61991404301253     -0.84194677536160
  N   -2.60515016810227     -0.67575442320791     -1.58499063284733
  N   -1.02264245910990      0.22667558468435      1.27599607044408
  H   -1.88699139436910     -0.12194048672928      1.66997153670135
  H   -0.29255901499688      0.21736524265724      1.97653387458858
