14
Coordinates from ORCA-job run
  C   0.64633060415415     -0.06439415040452     -0.47153356537598
  C   -0.65017845724203     -0.68625486319959      0.11715466545908
  Cl  1.14628162601825     -1.02942521727873     -1.88277262462410
  H   -0.39642583389228     -1.73502271344033      0.30227142830065
  C   0.38173800529409      1.31527372955791     -0.91115501124388
  N   0.17168888791440      2.44530651896198     -1.16052184748993
  N   1.68403406251109     -0.15568898542967      0.53844793371237
  H   2.59511849170818     -0.07236067168032      0.10166281696881
  H   1.58692301703855      0.61409960600985      1.19200580702648
  C   -1.73054412121609     -0.62683057584528     -0.87528259431238
  N   -2.59767095857970     -0.54831552745324     -1.66238999434387
  N   -1.09389078095583     -0.09547957012627      1.35533620178561
  H   -0.42459471460693     -0.24963245173315      2.09628434363842
  H   -1.31980982814584      0.88672487206135      1.26149244049873
