14
Coordinates from ORCA-job run
  C   0.68056697499794      0.10059526725892     -0.48927918730480
  C   -0.67245703963518     -0.46919637029874      0.00497492046197
  Cl  1.75716052570911     -1.40166600005364     -0.74708313561755
  H   -1.00790111687522     -1.20583804203511     -0.73611413188009
  C   0.54004876785265      0.70064631831817     -1.81592267235288
  N   0.40377325122706      1.17679348946368     -2.88133870951412
  N   1.17275324330644      1.01508679306036      0.44503107197717
  H   2.07822706067004      1.39570273831023      0.20878482676631
  H   1.14706460132063      0.61605868173959      1.37587257273924
  C   -1.65866285096026      0.61463078480425      0.05203901115645
  N   -2.48504947426145      1.44676721774631      0.10272971678250
  N   -0.47679198564330     -1.01206130359805      1.34390596949754
  H   -0.13063104134687     -1.96101689580835      1.27923732132711
  H   -1.34810091636159     -1.01750267890761      1.85816242596113
