14
Coordinates from ORCA-job run
  C   0.65566164086676      0.12425270653516     -0.44237758858866
  C   -0.60266436722306     -0.58851062315806      0.09921339153028
  Cl  1.13654157491215     -0.72059559019033     -1.98700577718500
  H   -0.30269010648717     -1.63621267333699      0.27252441678853
  C   0.35554114392260      1.51707213285294     -0.77679735322897
  N   0.15310981458293      2.63772381867627     -1.06312230585104
  N   1.66590204860725      0.07118143951956      0.56363927346159
  H   2.43911492268988      0.68855778217161      0.34824560010119
  H   2.01828571014683     -0.87552163677702      0.65521173303631
  C   -1.67609968658458     -0.59773822837606     -0.89907063665738
  N   -2.57151310463557     -0.62259832238765     -1.65742195259927
  N   -1.04311077495897      0.14074399243314      1.27189056027428
  H   -1.90675160980622     -0.24315522812730      1.63381000836819
  H   -0.32232720603281      0.10380043016473      1.98126063054995
