14
Coordinates from ORCA-job run
  C   0.60926412315039      0.33146784147547     -0.34562053764911
  C   -0.56875976237355     -0.18683982441883      0.50614639101797
  Cl  0.17406724457483      0.04393280210766     -2.11145456153124
  H   -0.30703809785644      0.07548332121250      1.53646057651495
  C   0.72003356971519      1.78168429417251     -0.17471550622634
  N   0.86096092291499      2.93667480121346     -0.01701428438623
  N   1.81413201483614     -0.29522399828132      0.05332679871573
  H   1.78901485253168     -1.29366417063906     -0.12142410537987
  H   2.62007963643739      0.10899719989564     -0.40669123120543
  C   -0.60384255485744     -1.66100896423076      0.41703889365066
  N   -0.65607441757735     -2.83220648405813      0.33709461431445
  N   -1.79511948906303      0.48802506536731      0.15626491676524
  H   -2.48668114926406      0.36895317307586      0.88474480765792
  H   -2.17103689316876      0.13372494310771     -0.71415677225872
