14
Coordinates from ORCA-job run
  C   0.64285984143519      0.14164032481303     -0.42110364177902
  C   -0.69593322086260     -0.59713198785115     -0.10665641290638
  Cl  1.88396683970449     -1.20192179396306     -0.69933472387912
  H   -0.86717343737072     -1.29847737343174     -0.92938296979516
  C   0.54192239310919      0.86321073512985     -1.68847620564427
  N   0.44148099390306      1.43052494523739     -2.71267278002150
  N   0.98507309749070      1.02247674455833      0.62530336405449
  H   1.15282175217090      0.52071939055614      1.48764276045728
  H   1.78711645315699      1.59836286406529      0.40433979231908
  C   -1.77771049604255      0.39556505382483     -0.11463260438483
  N   -2.64268043449496      1.18881225375225     -0.11306588568359
  N   -0.73126342434914     -1.32900276256981      1.13464866577241
  H   0.01199990037385     -2.01216563867973      1.18990353109216
  H   -0.73248025822441     -0.72161275544162      1.94248711039842
