14
Coordinates from ORCA-job run
  C   0.72341506570104     -0.05099246122361     -0.43997517740432
  C   -0.71719289918284     -0.53888113468290     -0.15496745309318
  Cl  1.74427897880529     -1.44845733806086     -0.85161884515796
  H   -1.09366056054993     -1.02448851372716     -1.06065689121918
  C   0.71217782822934      0.84338260994132     -1.61157980528762
  N   0.70015578793146      1.59630269362726     -2.51451113730928
  N   1.24360162153693      0.56405890005433      0.76320406720460
  H   0.81674567051779      1.47713514719574      0.89340882007201
  H   2.24639469305858      0.68862034327761      0.68618582245214
  C   -1.53916279610316      0.66491721768067      0.10537820565389
  N   -2.18752346802151      1.60611752625356      0.38118062308060
  N   -0.70014739402767     -1.49343707207650      0.92675454464635
  H   -1.63600583483313     -1.82528001110110      1.12171446629905
  H   -0.31407669306220     -1.05799790715837      1.75548276006291
