14
Coordinates from ORCA-job run
  C   0.57387500774270      0.32233877667151     -0.57090918585201
  C   -0.48192775219430     -0.23092093513903      0.44052857594513
  Cl  -0.03402008620447      0.04366007817461     -2.22296162903921
  H   -0.03302595583425     -0.07402969522526      1.43331005907088
  C   0.66076283584870      1.76664028179023     -0.32130291411996
  N   0.71976893210856      2.90257505830333     -0.02871542440064
  N   1.88525390146913     -0.25717554574735     -0.46854842121688
  H   2.29592840562348     -0.07614613101788      0.44018473043400
  H   1.85040344365601     -1.25473738672050     -0.64618881462566
  C   -0.58838351198179     -1.67958900902492      0.24944943953832
  N   -0.66572082345329     -2.84149760418277      0.09834823376811
  N   -1.75532914286857      0.44129568892109      0.29564683154386
  H   -1.88891040769622      1.13354143482353      1.01855102938733
  H   -2.53767484621569     -0.19595501162659      0.28460748956673
