14
Coordinates from ORCA-job run
  C   0.55646394576449      0.39505842442542     -0.49750807067108
  C   -0.46640313663020     -0.23471332480838      0.48810354822566
  Cl  -0.22603699336680      0.46355643197982     -2.11317239189186
  H   0.02099052651621     -0.20681975132188      1.47012500965650
  C   0.83281401091805      1.76264114492198     -0.04332017085665
  N   1.10729852411118      2.82929524946961      0.36362104358721
  N   1.79702486870752     -0.31118077800833     -0.63805783263671
  H   2.34227380823556     -0.26776036353516      0.21441494475637
  H   1.64162859392308     -1.27410962724211     -0.91318878902585
  C   -0.64886210169264     -1.65590512876440      0.12760629962392
  N   -0.82395045232374     -2.78121609251002     -0.16195433717583
  N   -1.67283368557897      0.55267425597309      0.56524729692088
  H   -2.20695308321653      0.31668667533850      1.39107471649848
  H   -2.25245482536721      0.40979288408188     -0.25199126701105
