14
Coordinates from ORCA-job run
  C   0.69969776438568      0.15958577714370     -0.44358154472885
  C   -0.66317929818645     -0.47703525967573     -0.07505024968015
  Cl  1.81422754495185     -1.29241102842490     -0.80611329452347
  H   -0.95025187536843     -1.13850464025710     -0.90228843448362
  C   0.60815809942103      0.89532466969333     -1.70463273526674
  N   0.51248800307343      1.48449834772799     -2.71644098816215
  N   1.13327994229550      0.97763500124566      0.60294602715337
  H   2.04171943662133      1.39200045927557      0.44803111818741
  H   1.07668458730889      0.48086185237649      1.48452934776971
  C   -1.67073033825138      0.58249550247319      0.03478608226030
  N   -2.51380484930645      1.39433601455315      0.12579905604341
  N   -0.51900837659421     -1.15225612466401      1.20933038393084
  H   -1.41305735220206     -1.22215193502441      1.67769847358922
  H   -0.15422328814873     -2.08537863644296      1.06398675791072
