14
Coordinates from ORCA-job run
  C   0.49209989402836      0.37773325722748     -0.45914444875351
  C   -0.45862709009187     -0.38596599376630      0.48351387823596
  Cl  -0.39034992833927      0.80932114650281     -1.95292112900752
  H   0.13359955485200     -0.62906369655081      1.37482619562196
  C   0.90182138949707      1.63149292136291      0.19839207613682
  N   1.34419868743178      2.58301121023793      0.72810551022426
  N   1.58762727435533     -0.48365231299393     -0.82487065601450
  H   2.17950955062325     -0.64974296018538     -0.01685120145827
  H   2.14981851876796     -0.05340852371195     -1.55035039068190
  C   -0.86373576106833     -1.65745589607277     -0.14536260453471
  N   -1.28568331139799     -2.66038141585045     -0.58778480059531
  N   -1.54842300492168      0.47049319887676      0.89569631291339
  H   -2.01454589664511      0.08605436407960      1.70725950379294
  H   -2.22830987709150      0.56156470084410      0.15049175412039
