14
Coordinates from ORCA-job run
  C   0.62099684178899      0.28751724208577     -0.53706866059107
  C   -0.51711141665596     -0.21909931174892      0.40598246624215
  Cl  0.22238734001559     -0.18092626054166     -2.20939615222587
  H   -0.17894781958511      0.04127415108470      1.42180970951078
  C   0.61748461580692      1.75228337746249     -0.43430709725646
  N   0.57423278087903      2.91594438310102     -0.28113581375307
  N   1.93673269042647     -0.20974055941543     -0.23220148845724
  H   2.21604067488590      0.06330829216482      0.70370487117228
  H   1.95587645828496     -1.22091841491328     -0.31168282720101
  C   -0.55916481559573     -1.68097252981271      0.33469678341832
  N   -0.56890030938008     -2.85443106142063      0.29690249683814
  N   -1.79069027440101      0.37801567317192      0.06041434692283
  H   -2.55924946962536     -0.26962286126543      0.15747516850843
  H   -1.96868729684459      1.19736788004734      0.62480619687177
