14
Coordinates from ORCA-job run
  C   0.72865213461115      0.05931193869457     -0.58912436720716
  C   -0.46364944057288     -0.59549861787633      0.16503842894354
  Cl  1.04971554672388     -0.90498889705604     -2.05351618475984
  H   -0.13040046774564     -1.60386925812815      0.43154498810977
  C   0.32390705733943      1.41758253889623     -0.97780587818191
  N   -0.04898939760875      2.50568105452012     -1.21642071132755
  N   1.93364794510386      0.13125181886509      0.19394177931305
  H   2.32039393951717     -0.80001141072700      0.30299628728010
  H   1.68326477034878      0.49473148108565      1.10939296967111
  C   -1.65535334558716     -0.70732181388919     -0.69157006889645
  N   -2.64575113329934     -0.76263662361890     -1.32153313810033
  N   -0.68092193627839      0.16524365431730      1.38582206776500
  H   -1.17833189259128     -0.39326186539351      2.06806713222852
  H   -1.23718377996083      0.99178600031016      1.19416669516214
