14
Coordinates from ORCA-job run
  C   0.67064915134420      0.19290529039242     -0.34957384124601
  C   -0.62915172522451     -0.65414789834894     -0.17661302496528
  Cl  2.04105023781055     -1.04321461247551     -0.47745897605169
  H   -0.64951248911634     -1.36935288117553     -1.00492271445361
  C   0.65196934545376      0.90502554572599     -1.62609038199288
  N   0.62572762468229      1.46956326407999     -2.65640579631973
  N   0.82193482807726      1.09911028294762      0.72014861252170
  H   1.59074051598911      1.74189964113551      0.58145626161748
  H   0.93879794812542      0.61284096259435      1.59966099440104
  C   -1.78167746028518      0.24475145414040     -0.31528815327202
  N   -2.70419516030803      0.96276795771041     -0.41877095214479
  N   -0.74125990039181     -1.38366389466968      1.06152021643281
  H   0.04387880970518     -2.00433939013940      1.20483027796900
  H   -0.87895172586190     -0.77614572191764      1.85750747750399
