14
Coordinates from ORCA-job run
  C   0.54941143225832      0.31216034710696     -0.34649489818260
  C   -0.60675619447930     -0.46813706288073      0.34773397058074
  Cl  -0.02798338649427      0.95783694100537     -1.90727338723890
  H   -0.17392184213903     -0.87698759065757      1.27095562289795
  C   0.88060004017041      1.46439722319899      0.51373594395067
  N   1.16685176770623      2.32336012175295      1.26445493609358
  N   1.64373418597186     -0.58214878020288     -0.60363230760780
  H   2.37491711485877     -0.12072896284094     -1.13228222627537
  H   2.03376908535556     -0.92210963080136      0.26933359753222
  C   -0.98607999091740     -1.60345470865307     -0.50283654633569
  N   -1.33196995994889     -2.50520869413295     -1.16899562236608
  N   -1.77570405053611      0.29272020499586      0.70832001418280
  H   -1.55251256093682      1.00451396232163      1.39261129229994
  H   -2.19535564086935      0.72378662978774     -0.10563038953145
