14
Coordinates from ORCA-job run
  C   0.72992058939798      0.07087818459349     -0.58597298495028
  C   -0.46275850542218     -0.59937956799506      0.15434711774469
  Cl  1.05732829472894     -0.86808252506773     -2.06535996795657
  H   -0.12764820252693     -1.61117911887985      0.40464798669478
  C   0.32202448487411      1.43420759352284     -0.95315050599596
  N   -0.05594327620917      2.52440170660163     -1.17421654508887
  N   1.93266424055637      0.13290618139829      0.20153515364493
  H   2.32266389693759     -0.79888787750430      0.29432957881378
  H   1.67855800231237      0.47875378519394      1.12285828941251
  C   -1.65170757175989     -0.69850184425993     -0.70743363752445
  N   -2.63850169862381     -0.74211576378543     -1.34381155184859
  N   -0.68432133103107      0.14027189002937      1.38719049328758
  H   -1.24233474101565      0.96849086779302      1.20855882908591
  H   -1.18094418221865     -0.43076351164028      2.05947774468055
