14
Coordinates from ORCA-job run
  C   0.72944916159027      0.08629387404173     -0.58534201985191
  C   -0.45560947681508     -0.60588941499243      0.14716849862330
  Cl  1.06603070378797     -0.83119369468178     -2.07611082996900
  H   -0.10845195260754     -1.61662175689482      0.38500226493323
  C   0.30711267675008      1.44947282338179     -0.93610311438523
  N   -0.08221042399005      2.53744637128307     -1.14790793714554
  N   1.93195471783093      0.15133737312110      0.20233026610128
  H   2.32869358833709     -0.77840064741201      0.28767506617348
  H   1.67544475413198      0.48737900909896      1.12661171713362
  C   -1.64393242023275     -0.70921240800110     -0.71497802075475
  N   -2.63211394032877     -0.75999211970502     -1.34878103491805
  N   -0.68527193951623      0.11652515384687      1.38854500198121
  H   -1.17670903897998     -0.46737166225270      2.05372259857075
  H   -1.25138640995795      0.94122709916633      1.21916754350761
