14
Coordinates from ORCA-job run
  C   0.70842654573513      0.08907311099441     -0.47614178836592
  C   -0.65574660509862     -0.59760529136795     -0.09686311282118
  Cl  1.88684981246834     -1.24623614992801     -0.72258178061231
  H   -0.93898844815595     -1.24236987905187     -0.93575229533635
  C   0.53920766224722      0.79036620886473     -1.75191175577190
  N   0.34667833585536      1.34503956278112     -2.76971977527851
  N   1.24904165601647      0.99250409129327      0.49527036977373
  H   0.67830500838200      1.82624949067378      0.57800069640701
  H   1.35659958534399      0.54105211620840      1.39486638823811
  C   -1.64654900740536      0.47850239152315      0.02948443062250
  N   -2.38201230976086      1.38426460674039      0.16178990602544
  N   -0.66136725993101     -1.38751613818383      1.10889994230991
  H   0.00689550873730     -2.14469514922589      1.05350101765009
  H   -0.48734048443401     -0.82762897132169      1.93315775715937
