14
Coordinates from ORCA-job run
  C   0.71323559474352     -0.04447005206866     -0.54942602106001
  C   -0.52046693264268     -0.64936789355445      0.15542387021347
  Cl  1.02621229031853     -0.96027878085501     -2.05072724385234
  H   -0.23610572955836     -1.67945509471363      0.38962968786739
  C   0.41009766690884      1.34957062408720     -0.92579569791983
  N   0.17704557791465      2.48332141209754     -1.13404242092484
  N   1.82819643842041     -0.19225749721766      0.33888322698917
  H   1.56610781637925      0.20100225530866      1.23756654126386
  H   2.64826933642948      0.27805889816192     -0.02494055663729
  C   -1.69145688847420     -0.66325990241401     -0.73599431204889
  N   -2.67276811414948     -0.64122489599695     -1.38141336700606
  N   -0.73285551929877      0.07860893858298      1.39799459987736
  H   -1.25430649416611     -0.48826697831637      2.05469238767760
  H   -1.26020504282510      0.92801896689844      1.22714930556041
