14
Coordinates from ORCA-job run
  C   0.48917475502285      0.35602664810065     -0.39044496747233
  C   -0.54065463626954     -0.51526206139831      0.38875140596082
  Cl  -0.31027428391318      1.08929219361544     -1.80808284980546
  H   0.02383157348779     -0.97272312538655      1.21272845853144
  C   0.90110385641256      1.45611217085314      0.50242661254427
  N   1.26569773052836      2.27281681620664      1.26631242273695
  N   1.56377491267471     -0.47550939276680     -0.85670253189926
  H   2.07805753321455     -0.86041553908631     -0.07114057233444
  H   2.20316652444269      0.04953600988493     -1.44199013114016
  C   -1.00035609734518     -1.59920488279760     -0.48880002509605
  N   -1.41326653823668     -2.46007203019258     -1.17054673739155
  N   -1.67130257002960      0.17291934179885      0.95771078716847
  H   -1.37828321235472      0.84144053520481      1.65907669041504
  H   -2.20866954763462      0.64504331596370      0.24170143778225
