14
Coordinates from ORCA-job run
  C   0.74373777373541      0.09190046394034     -0.56554682549306
  C   -0.46325253612817     -0.60544075630023      0.12459961026993
  Cl  1.11153262356652     -0.80020569057505     -2.06432962046377
  H   -0.12897869475653     -1.62280758887384      0.35260119361847
  C   0.33873228961552      1.46417562949266     -0.90127227982144
  N   -0.03823979309893      2.55886218191985     -1.10054338576581
  N   1.92660122172476      0.13453049677504      0.25283134523041
  H   2.31853516644506     -0.79809586627224      0.32677036691223
  H   1.64850498563682      0.45108425503599      1.17774938852716
  C   -1.63052677201272     -0.68458864577629     -0.76837469694331
  N   -2.60234515421068     -0.71542066447121     -1.42816932836612
  N   -0.71875853260106      0.09562415367970      1.37328189026489
  H   -1.27490480360877      0.92738317275312      1.20554931201602
  H   -1.23063777430725     -0.49700114132785      2.01485303001439
