16

C	-0.42118	-0.08828	-1.436183
C	0.0	0.0	0.0
F	-1.769668	-0.285509	-1.612298
H	1.099451	0.0	0.0
N	-0.08808	1.228072	-2.15164
O	-0.992842	2.049297	-2.226258
O	1.061688	1.347997	-2.547534
C	0.282185	-1.162345	-2.152453
N	0.723591	-2.069227	-2.753699
C	-0.353868	-1.281662	0.759167
H	0.009069	-1.17815	1.783017
H	-1.425384	-1.497421	0.776574
H	0.186798	-2.11775	0.310653
C	-0.560128	1.169918	0.641991
N	-1.005164	2.092559	1.221147
F	2.481369	0.0	0.0
