16

C	-0.338174	-0.072418	-1.464015
C	0.0	0.0	0.0
F	0.281707	-1.130985	-2.043354
H	1.10787	0.0	0.0
N	-1.850007	-0.325315	-1.655225
O	-2.203601	-1.482276	-1.846379
O	-2.578698	0.650254	-1.508965
C	-0.019497	1.148633	-2.214655
N	0.236723	2.101567	-2.85184
C	-0.424398	-1.254819	0.757387
H	-1.508566	-1.35825	0.873151
H	-0.029726	-2.130094	0.239868
H	0.037492	-1.218279	1.745187
C	-0.499992	1.213021	0.605197
N	-0.874542	2.183192	1.155921
F	2.473547	0.0	0.0
