15

C	-0.28184	-0.030769	-1.501898
C	0.0	0.0	0.0
F	0.198699	1.157194	-2.06537
H	1.095809	0.0	0.0
N	0.416508	-1.163533	-1.979992
H	1.382577	-1.087269	-1.645253
H	0.394423	-1.195612	-2.991876
C	-1.715725	-0.10098	-1.863193
N	-2.845858	-0.196958	-2.167467
C	-0.462581	-1.189951	0.675362
N	-0.812492	-2.167791	1.227829
N	-0.490605	1.188165	0.710012
O	-1.077279	2.069444	0.07593
O	-0.219516	1.235381	1.911733
H	2.482821	0.0	0.0
