15

C	-0.407906	0.00162	-1.470698
C	0.0	0.0	0.0
F	0.00343	-1.258083	-1.956419
H	1.091996	0.0	0.0
N	-1.803896	0.189415	-1.636269
H	-2.305857	-0.507576	-1.09728
H	-2.058929	0.118473	-2.614541
C	0.309558	0.9877	-2.306336
N	0.762105	1.704521	-3.118769
C	-0.524564	-1.165977	0.667637
N	-0.929922	-2.143985	1.182809
N	-0.358578	1.218043	0.688641
O	-0.587484	1.158861	1.906082
O	-0.231407	2.267882	0.041421
H	2.366855	0.0	0.0
