15

C	-0.27078	0.022776	-1.518736
C	0.0	0.0	0.0
F	-0.053377	1.319835	-2.002002
H	1.092783	0.0	0.0
N	0.60422	-0.933341	-2.057483
H	0.607816	-0.915222	-3.069115
H	1.54341	-0.775389	-1.665086
C	-1.681307	-0.273186	-1.872691
N	-2.794329	-0.502654	-2.169397
C	-0.502289	-1.221023	0.590635
N	-0.837879	-2.239241	1.072776
N	-0.497811	1.18619	0.721244
O	-1.405156	1.038174	1.547402
O	0.071648	2.249278	0.477481
H	2.543657	0.0	0.0
