15

C	-0.288409	-0.020046	-1.507682
C	0.0	0.0	0.0
F	0.154406	1.171888	-2.032388
H	1.093058	0.0	0.0
N	0.463086	-1.070306	-2.131265
H	0.035241	-1.971766	-1.961392
H	1.396982	-1.050354	-1.710366
C	-1.72702	-0.165434	-1.82523
N	-2.861135	-0.368584	-2.049224
C	-0.427518	-1.227187	0.629196
N	-0.737062	-2.261833	1.097029
N	-0.523352	1.145485	0.75365
O	-1.189481	1.999033	0.158387
O	-0.215498	1.182551	1.946866
H	2.481906	0.0	0.0
