15

C	-0.44961	0.024902	-1.45819
C	0.0	0.0	0.0
F	-1.879348	0.03499	-1.477414
H	1.091823	0.0	0.0
N	0.099183	1.074613	-2.210754
H	0.004562	1.946156	-1.705621
H	-0.318102	1.108632	-3.130476
C	-0.087653	-1.258874	-2.103052
N	0.171446	-2.249215	-2.678549
C	-0.458703	-1.201937	0.661458
N	-0.76727	-2.220864	1.161022
N	-0.359429	1.161863	0.766113
O	-0.290128	2.277583	0.206754
O	-0.519893	1.020515	1.990172
H	2.332044	0.0	0.0
