13

C	-0.516879	0.032694	-1.451735
C	0.0	0.0	0.0
Cl	0.074318	-1.410057	-2.337782
H	1.093726	0.0	0.0
H	-0.349461	-0.940188	0.43873
C	-1.984609	-0.00041	-1.449023
N	-3.156939	-0.057927	-1.394834
C	-0.075702	1.243105	-2.149054
N	0.243072	2.210084	-2.734668
N	-0.509382	1.182676	0.674631
H	-1.14608	0.94877	1.42178
H	0.266242	1.709817	1.05334
Br	3.525745	0.0	0.0
