13

C	-0.517838	-0.025523	-1.451461
C	0.0	0.0	0.0
Cl	0.069851	1.423042	-2.330346
H	1.093589	0.0	0.0
H	-0.349108	0.938237	0.443383
C	-0.075276	-1.231376	-2.155901
N	0.245324	-2.19406	-2.747622
C	-1.985768	0.00514	-1.44706
N	-3.158229	0.061246	-1.391884
N	-0.508823	-1.185795	0.66942
H	0.267011	-1.713678	1.046327
H	-1.146604	-0.955679	1.416829
Br	3.526666	0.0	0.0
