13

C	-0.4891	0.017461	-1.45615
C	0.0	0.0	0.0
Cl	-2.302026	-0.089117	-1.474266
H	1.094111	0.0	0.0
H	-0.347437	-0.942803	0.436543
C	-0.123392	1.264412	-2.129726
N	0.144032	2.260401	-2.692604
C	0.013289	-1.134286	-2.20945
N	0.407556	-2.065414	-2.808189
N	-0.481953	1.185832	0.6819
H	0.298408	1.636106	1.142624
H	-1.189609	0.966124	1.366926
Br	3.504662	0.0	0.0
