13

C	-0.487698	0.001944	-1.455007
C	0.0	0.0	0.0
Cl	-2.302304	0.097155	-1.466039
H	1.093723	0.0	0.0
H	-0.344018	0.939929	0.448188
C	0.003047	1.171272	-2.189205
N	0.392032	2.109113	-2.781519
C	-0.118143	-1.230712	-2.152591
N	0.15402	-2.225121	-2.715052
N	-0.475709	-1.196707	0.663829
H	0.284368	-1.599957	1.19473
H	-1.251539	-1.005498	1.281325
Br	3.504578	0.0	0.0
