13

C	-0.493246	0.053887	-1.453739
C	0.0	0.0	0.0
Cl	-2.307505	-0.051139	-1.469369
H	1.093696	0.0	0.0
H	-0.346668	-0.953442	0.413678
C	-0.130522	1.316833	-2.09781
N	0.139428	2.333857	-2.619377
C	0.002807	-1.07983	-2.236403
N	0.390123	-1.993539	-2.864942
N	-0.478797	1.169031	0.712592
H	0.301272	1.599746	1.190119
H	-1.190651	0.934153	1.387355
Br	3.495522	0.0	0.0
