13

C	-0.505053	-0.047415	-1.456756
C	0.0	0.0	0.0
Cl	0.176423	1.321103	-2.387589
H	1.097205	0.0	0.0
H	-0.348405	-0.920222	0.482393
C	-0.125982	-1.303927	-2.109648
N	0.122663	-2.337614	-2.609416
C	-1.968942	0.064173	-1.480854
N	-3.142862	0.10861	-1.482168
N	-0.52077	1.19663	0.640832
H	0.257149	1.786743	0.905863
H	-1.042102	0.964616	1.473745
Br	3.527375	0.0	0.0
