13

C	-0.403271	0.049419	-1.471748
C	0.0	0.0	0.0
Br	-2.333656	0.215578	-1.72377
H	1.095269	0.0	0.0
H	0.051315	0.898899	-1.976899
H	-0.323695	0.957032	0.424416
N	0.040996	-1.159009	-2.242319
O	-0.406704	-2.251237	-1.90769
O	0.844707	-0.9593	-3.146617
N	-0.492597	-1.095386	0.804298
H	-1.449328	-1.31853	0.564744
H	0.069903	-1.915544	0.629296
Br	3.572414	0.0	0.0
