17

C	-0.527812	0.031831	-1.433875
C	0.0	0.0	0.0
Br	0.081097	-1.636978	-2.31016
H	1.097662	0.0	0.0
H	-0.354408	-0.912367	0.489879
C	-2.046349	0.024283	-1.486993
H	-2.401855	0.036053	-2.520446
H	-2.411578	0.909294	-0.960867
H	-2.446032	-0.86703	-0.995291
C	0.074811	1.201803	-2.19344
H	1.164548	1.175087	-2.126153
H	-0.227484	1.188245	-3.243993
H	-0.287379	2.127686	-1.736428
N	-0.505117	1.191023	0.718169
H	-0.737236	0.926016	1.666998
H	0.263959	1.846464	0.792548
Br	3.735679	0.0	0.0
