17

C	-0.510272	-0.01991	-1.433623
C	0.0	0.0	0.0
Br	-0.052337	1.71869	-2.285479
H	1.100316	0.0	0.0
H	-0.323564	-0.955357	0.437683
C	0.2216	-1.098795	-2.213533
H	-0.070632	-1.091622	-3.266785
H	-0.037387	-2.074517	-1.786586
H	1.3014	-0.963242	-2.126994
C	-2.021132	-0.155062	-1.505683
H	-2.305689	-1.121281	-1.07206
H	-2.373043	-0.119236	-2.53955
H	-2.497952	0.634949	-0.926374
N	-0.597174	1.079289	0.798031
H	-0.144249	1.94037	0.507625
H	-0.302747	0.931829	1.757842
Br	3.739262	0.0	0.0
