13

C	0.0	0.0	0.0
C	-0.56828	-0.330321	-1.400866
Br	1.952859	0.0	0.0
H	-1.688676	-0.285676	-1.199727
C	-0.418192	1.33489	0.433766
N	-0.634011	2.420213	0.830625
C	-0.393973	-1.026305	0.970341
N	-0.581123	-1.843648	1.795088
C	-0.181691	-1.66775	-1.829623
N	0.108734	-2.750243	-2.183615
C	-0.190004	0.674238	-2.385089
N	0.096742	1.482403	-3.188924
Cl	-3.254511	0.0	0.0
