13

C	0.0	0.0	0.0
C	-0.405958	-0.076925	-1.535314
Br	1.95896	0.0	0.0
H	0.533497	-0.205177	-2.08592
C	-0.420887	1.225845	0.671294
N	-0.478937	2.248432	1.2531
C	-0.387586	-1.199223	0.743102
N	-0.472972	-2.206676	1.346611
C	-0.963954	1.187389	-2.014265
N	-1.221356	2.226114	-2.50087
C	-1.220528	-1.236016	-1.908135
N	-1.650837	-2.210115	-2.408093
Cl	-2.854148	0.0	0.0
