13

C	0.0	0.0	0.0
C	-0.553396	-0.057814	-1.445327
Br	1.953701	0.0	0.0
H	-1.67215	-0.050238	-1.24937
C	-0.410062	1.239737	0.663228
N	-0.579428	2.269286	1.205862
C	-0.406571	-1.183576	0.759483
N	-0.605136	-2.165332	1.375387
C	-0.161251	-1.287556	-2.119953
N	0.130123	-2.277103	-2.682859
C	-0.162909	1.117467	-2.212654
N	0.13009	2.06287	-2.846607
Cl	-3.229857	0.0	0.0
