14
Coordinates from ORCA-job run
  C   -0.59635428358833      0.61134453463881     -0.14661877636967
  C   0.69895616473205     -0.18518430818371     -0.32135164974644
  F   -0.84678892805210      1.26096344561848     -1.35103544090225
  H   0.50330815443575     -0.96583267510834     -1.06386128393576
  H   -0.43956402331746      1.38981263433116      0.60930731483119
  C   -1.77499470072489     -0.26282751320053      0.20064794362213
  H   -1.58727532277651     -0.79913198936669      1.12980646041714
  H   -1.94607462218271     -0.98688533784328     -0.59932131818673
  H   -2.67112740888347      0.35033115821651      0.30810293472980
  N   1.05214913773950     -0.82671804958942      0.93907555326602
  H   1.78098723331079     -1.51297880620641      0.78766927843122
  H   1.41929155934887     -0.13608300005019      1.58416862215754
  C   1.76079521349604      0.68948483970923     -0.85944940042693
  N   2.64569182646249      1.37370506703437     -1.21714023788733
