14
Coordinates from ORCA-job run
  C   -0.59953824965649      0.57931787869289     -0.23291294211391
  C   0.71854383067323     -0.19747637301551     -0.26609510153624
  F   -0.79841747673485      1.11022511519150     -1.50344994055918
  H   0.57889834759498     -1.04985559843766     -0.93899613588279
  H   -0.49936196660483      1.42711711879553      0.45506695687209
  C   -1.77785114533573     -0.28812789309563      0.13260241086015
  H   -1.62815696371054     -0.73463877868035      1.11470102012480
  H   -1.89331916603640     -1.08432463424175     -0.60646664229942
  H   -2.68992351462120      0.31073358794723      0.13952656336390
  N   1.01848876829115     -0.70753154552399      1.06629099991947
  H   1.33450435110879      0.05105305324046      1.66023031525918
  H   1.77025311083187     -1.38413175489874      1.01851960237485
  C   1.78904550724827      0.64919307579669     -0.83100493713158
  N   2.67783456695175      1.31844674822932     -1.20701216925132
