12

C	0.0	0.0	0.0
C	-0.448579	0.331421	-1.430617
Cl	1.775461	0.0	0.0
H	0.446728	0.510425	-2.038636
H	-0.360618	-0.975874	0.304951
H	-0.360492	0.758478	0.683642
N	-1.142466	1.672675	-1.558639
O	-0.844607	2.52539	-0.733854
O	-1.802276	1.845634	-2.572371
C	-1.176825	-0.731949	-2.112621
N	-1.498933	-1.643945	-2.779471
Cl	-3.036156	0.0	0.0
