12

C	0.0	0.0	0.0
C	-0.300483	0.317878	-1.473166
Cl	1.772416	0.0	0.0
H	0.419364	-0.23582	-2.078962
H	-0.392758	0.759569	0.66344
H	-0.378247	-0.98098	0.265815
N	0.077269	1.765908	-1.755775
O	0.508623	1.998427	-2.880844
O	-0.089723	2.59031	-0.866084
C	-1.589794	0.092176	-2.142371
N	-2.229536	-0.068004	-3.120737
Cl	-3.098243	0.0	0.0
