12

C	0.0	0.0	0.0
C	-0.567274	0.204184	-1.384656
Cl	1.771415	0.0	0.0
H	-1.676627	0.1717	-1.225094
H	-0.359766	-0.948617	0.387322
H	-0.358487	0.807146	0.635162
N	-0.236028	-0.943226	-2.295498
O	-0.123182	-0.705536	-3.495205
O	-0.167505	-2.053498	-1.779674
C	-0.16265	1.45684	-2.002421
N	0.148953	2.498549	-2.445932
Cl	-3.366778	0.0	0.0
