12

C	-0.197685	-0.034227	-1.416492
C	-0.026903	0.084216	0.104339
F	-1.510781	-0.370474	-1.713979
H	1.05407	0.203288	0.252444
H	0.478036	-0.81564	-1.768081
C	0.114023	1.236651	-2.082356
N	0.281171	2.257844	-2.636227
C	-0.448707	-1.163843	0.744212
N	-0.796263	-2.159314	1.25966
C	-0.784648	1.20962	0.654248
N	-1.380892	2.118936	1.097614
Br	3.06082	-0.559598	-0.807053
