12

C	-0.451595	-0.018743	-1.448885
C	-0.011759	0.005057	0.02631
F	-0.00995	1.12561	-2.064486
H	1.084541	0.005952	0.046504
H	-1.545248	-0.028196	-1.514417
C	0.060022	-1.204686	-2.152097
N	0.372482	-2.164407	-2.751039
C	-0.520366	-1.184065	0.706348
N	-0.947426	-2.146177	1.227599
C	-0.527582	1.216213	0.661852
N	-0.959313	2.187679	1.160708
Br	3.272474	-0.055232	-0.194984
