12

C	-0.453976	-0.014253	-1.444098
C	-0.013786	0.006386	0.03022
F	-0.011844	1.130861	-2.05824
H	1.084101	0.004949	0.052148
H	-1.547606	-0.023482	-1.51
C	0.056476	-1.198847	-2.15102
N	0.363917	-2.152189	-2.762576
C	-0.5242	-1.183146	0.70849
N	-0.956169	-2.143876	1.228243
C	-0.526559	1.217307	0.668909
N	-0.955953	2.188374	1.170519
Br	3.269741	-0.063339	-0.191454
