12

C	-0.257033	-0.127825	-1.380325
C	-0.030314	-0.136537	0.141395
F	0.020207	-1.390254	-1.857332
H	1.057837	-0.233497	0.242368
H	0.471011	0.575163	-1.799289
C	-1.641678	0.2146	-1.738036
N	-2.741638	0.492347	-2.040857
C	-0.745464	-1.24252	0.78006
N	-1.310007	-2.134425	1.294353
C	-0.43316	1.141742	0.727731
N	-0.79181	2.155587	1.198704
Br	2.932899	0.842958	-0.902897
