12

C	-0.200886	-0.02019	-1.417316
C	-0.027735	0.084383	0.104821
F	-1.512033	-0.360132	-1.716742
H	1.053805	0.200807	0.250502
H	0.479898	-0.794813	-1.774527
C	0.104727	1.258331	-2.070959
N	0.270166	2.283294	-2.618343
C	-0.448679	-1.169635	0.733511
N	-0.789262	-2.171792	1.240589
C	-0.783701	1.204709	0.667139
N	-1.383605	2.107304	1.119242
Br	3.06139	-0.553652	-0.809025
