12

C	-0.199767	-0.029015	-1.421252
C	-0.027452	0.085322	0.100235
F	-1.511291	-0.369211	-1.719172
H	1.054136	0.201347	0.245933
H	0.47998	-0.806924	-1.773193
C	0.107894	1.244692	-2.083222
N	0.276002	2.265186	-2.638086
C	-0.450267	-1.164047	0.736881
N	-0.792548	-2.162558	1.249974
C	-0.782448	1.21026	0.654589
N	-1.381449	2.11678	1.09999
Br	3.061489	-0.561373	-0.807788
