16

C	0.0	0.0	0.0
C	-0.506486	-0.232656	-1.450272
Cl	1.792133	0.0	0.0
H	-1.588818	-0.031786	-1.376091
C	-0.369929	1.368436	0.412757
N	-0.581839	2.470819	0.757899
N	-0.490298	-0.921004	0.981055
H	-0.257323	-1.866325	0.699244
H	-1.512533	-0.818898	0.988127
C	-0.308851	-1.669075	-1.930635
H	0.736876	-1.979384	-1.852478
H	-0.944215	-2.339391	-1.349725
H	-0.617496	-1.749019	-2.974605
C	0.090506	0.71787	-2.383618
N	0.574477	1.451844	-3.163647
Br	-3.644403	0.0	0.0
