16

C	0.0	0.0	0.0
C	-0.511595	0.090312	-1.447713
Cl	1.832096	0.0	0.0
H	-1.599063	0.240531	-1.332772
C	-0.319164	1.248312	0.729143
N	-0.51032	2.217348	1.367098
N	-0.499157	-1.188078	0.614377
H	-0.251502	-1.187243	1.598278
H	-1.525526	-1.127955	0.54736
C	-0.264388	-1.189274	-2.245601
H	0.801245	-1.421705	-2.295504
H	-0.788967	-2.016592	-1.771541
H	-0.64831	-1.060006	-3.25971
C	0.048816	1.253938	-2.128951
N	0.491453	2.161203	-2.730037
Br	-3.653231	0.0	0.0
