16

C	0.0	0.0	0.0
C	-0.508042	-0.361823	-1.423663
Cl	1.794485	0.0	0.0
H	-1.585809	-0.133797	-1.374369
C	-0.365046	1.402377	0.280346
N	-0.552401	2.544777	0.477577
N	-0.489071	-0.82825	1.060666
H	-1.511423	-0.724472	1.063023
H	-0.256896	-1.795547	0.865535
C	-0.34102	-1.84288	-1.754855
H	0.691792	-2.17206	-1.613205
H	-0.621264	-2.019503	-2.794913
H	-1.013487	-2.431104	-1.129605
C	0.103625	0.479386	-2.448109
N	0.584313	1.117991	-3.309743
Br	-3.639003	0.0	0.0
