16

C	0.0	0.0	0.0
C	-0.418991	0.517913	-1.431343
Cl	1.791438	0.0	0.0
H	0.516287	0.605744	-1.992201
C	-0.359963	0.97643	1.048729
N	-0.55705	1.715527	1.941382
N	-0.483718	-1.324253	0.239752
H	-0.250198	-1.598349	1.18935
H	-1.510718	-1.271115	0.169372
C	-1.082604	1.897845	-1.448559
H	-1.281897	2.180075	-2.486787
H	-2.021255	1.870251	-0.898721
H	-0.406657	2.637835	-1.013117
C	-1.169528	-0.484154	-2.190641
N	-1.614119	-1.266898	-2.945274
Br	-3.621898	0.0	0.0
