16

C	0.0	0.0	0.0
C	-0.30972	-0.184957	-1.534671
Cl	1.798704	0.0	0.0
H	0.35722	0.499503	-2.068947
C	-0.401225	1.359829	0.388002
N	-0.664568	2.472308	0.656916
N	-0.56473	-0.946045	0.900176
H	-0.429712	-1.888821	0.550284
H	-1.567083	-0.762264	0.985721
C	-1.74936	0.08173	-1.954023
H	-2.467581	-0.563152	-1.45295
H	-1.834269	-0.059347	-3.034833
H	-2.038442	1.103481	-1.707566
C	0.087042	-1.547474	-1.898598
N	0.362139	-2.65183	-2.190072
Br	-4.492556	0.0	0.0
