14

C	0.0	0.0	0.0
C	-0.572189	-0.010415	-1.402391
F	1.378836	0.0	0.0
H	-1.686821	0.087035	-1.124735
H	-0.370546	-0.882572	0.526226
C	-0.404855	1.205233	0.756229
N	-0.506193	2.209845	1.356717
C	-0.318889	-1.347682	-2.089835
H	-0.65455	-1.317788	-3.128679
H	-0.894967	-2.118592	-1.56861
H	0.741604	-1.61745	-2.076767
C	-0.086993	1.108513	-2.186813
N	0.311879	1.995621	-2.849729
H	-2.824676	0.0	0.0
