14

C	0.0	0.0	0.0
C	-0.222989	-0.053024	-1.562111
F	1.37803	0.0	0.0
H	0.592669	0.593681	-1.912693
H	-0.341866	-0.898458	0.506043
C	-0.683619	1.16918	0.561746
N	-0.659841	2.26403	1.036748
C	-1.484672	0.441388	-2.267761
H	-1.769499	1.410438	-1.860436
H	-1.252985	0.542983	-3.338957
H	-2.321262	-0.23203	-2.1165
C	0.118911	-1.399397	-2.032215
N	0.368739	-2.45912	-2.473529
H	-2.20901	0.0	0.0
