14

C	0.0	0.0	0.0
C	-0.208587	-0.034055	-1.556513
F	1.378114	0.0	0.0
H	0.490972	0.739822	-1.90429
H	-0.361847	-0.90079	0.487774
C	-0.540973	1.15027	0.708084
N	-0.610685	2.080645	1.452911
C	-1.527986	0.219076	-2.280385
H	-2.252989	-0.55506	-2.038935
H	-1.311707	0.255025	-3.356991
H	-1.953242	1.158361	-1.940038
C	0.344938	-1.320039	-2.006448
N	0.760094	-2.340605	-2.407785
H	-2.364464	0.0	0.0
