18
Coordinates from ORCA-job run
  C   -0.57665007958451     -0.18339869658422     -0.68868266836127
  C   0.86125490544016     -0.11698116676040     -0.15717177771197
  F   -0.55533545613936     -0.96009324988698     -1.81899265419750
  H   1.45569141383108      0.17175439137336     -1.03246116855360
  N   -0.93023304096236      1.21608048742813     -1.16306635136818
  O   -1.63083831010109      1.90473742687586     -0.42394871580479
  O   -0.42897884000228      1.57785826302821     -2.22257655348536
  C   -1.62201037695153     -0.71307596131521      0.24962943128964
  H   -1.70161315424288     -0.10470130257588      1.14794433879282
  H   -1.33566989855413     -1.73042225040615      0.51103538345769
  H   -2.59011983742868     -0.72193443023480     -0.25277046239305
  N   1.21894820717228     -1.46348064469603      0.28313582620457
  H   1.93838500587616     -1.86282725937236     -0.30116723354245
  H   1.54645693213374     -1.45635637463242      1.23921977204665
  C   1.04465901711595      0.91808431571708      0.94311539950616
  H   0.78019002139050      1.92544724368890      0.62002794393000
  H   0.43356430845230      0.67064384986251      1.81525305773309
  H   2.09229918255467      0.92666535849039      1.25147643245755
