18
Coordinates from ORCA-job run
  C   -0.47513645243542     -0.25432476522540     -0.66982719181472
  C   0.69668502213024     -0.39576970544485      0.30535255610318
  F   -0.03122385921998     -0.62098394846207     -1.91088720695904
  H   1.05662987087513     -1.41303586201411      0.11040473758654
  N   -0.83623295396322      1.22145506607720     -0.77187873489267
  O   -0.68923019369256      1.79211145072479     -1.84272777209001
  O   -1.23473085153973      1.73225006680503      0.27411456165245
  C   -1.71703288228575     -1.03139914180443     -0.32606579535190
  H   -2.44741148936482     -0.91311651562886     -1.12943807196415
  H   -1.45201638661254     -2.08583666653251     -0.23507204884933
  H   -2.13079735832583     -0.69260670952353      0.61928104365188
  N   0.22143235156169     -0.37141021446412      1.68197496881031
  H   0.97502553780550     -0.64822574037259      2.29926555343625
  H   -0.05660776838873      0.57098047105662      1.93015526759388
  C   1.81602759275751      0.59099646167802     -0.02844218289079
  H   1.52022631729045      1.61109866357345      0.23175922431348
  H   2.70821745459914      0.34423473635899      0.55162077477954
  H   2.07717604880892      0.56258235319837     -1.08858968311490
