18
Coordinates from ORCA-job run
  C   -0.53104480535198     -0.14639468125828     -0.62466301122409
  C   0.66099492178613     -0.28720330596812      0.32773067400997
  F   -0.09957324324919     -0.19661442078453     -1.93402511167645
  H   0.82111769120148     -1.37025342757075      0.38507920605384
  N   -1.14775160799336      1.25051621632949     -0.49879288503762
  O   -2.34913053678729      1.36482412343095     -0.71608080332313
  O   -0.38199534198697      2.18047209936086     -0.25185183187627
  C   -1.59315659876315     -1.18705454971580     -0.40832900878091
  H   -1.94000733415324     -1.14227486856819      0.62302610068534
  H   -1.15313373742517     -2.16640499548956     -0.60508130467962
  H   -2.42883838414208     -1.02620309035072     -1.08564298954388
  N   0.20228873162240      0.14042807386312      1.64757673651075
  H   0.72087354898388     -0.34159159211196      2.36975935323482
  H   0.36490332415792      1.13455759068802      1.75639347025518
  C   1.96497163898010      0.33770308638817     -0.16222332709296
  H   2.24305689092435     -0.04231267248426     -1.14652028175231
  H   2.76088644539202      0.07669255309427      0.54036948729889
  H   1.88753839680416      1.42211386114725     -0.21672447306154
