15

C	0.0	0.0	0.0
C	-0.215186	0.292522	-1.558141
F	1.355549	0.0	0.0
H	0.207408	1.29843	-1.64329
N	-0.393278	1.140432	0.89225
O	-0.507308	0.896489	2.093517
O	-0.347025	2.271222	0.397745
C	-0.545211	-1.253596	0.488348
N	-0.603935	-2.383501	0.837339
N	-1.499058	0.262433	-2.217249
H	-1.757355	-0.71582	-2.323704
H	-2.15063	0.572072	-1.478708
C	0.677262	-0.6249	-2.284432
N	1.340327	-1.356701	-2.920215
H	-2.181889	0.0	0.0
