16
Coordinates from ORCA-job run
  C   0.87745058217559      0.05202943605619     -0.18565230359686
  C   -0.46165899435320     -0.69263009995744     -0.29188030709055
  Cl  2.18791284672492     -1.03379809091897     -0.54234150722507
  H   -0.51688513053030     -1.05590149729992     -1.32112981330227
  N   0.96407488700025      1.21909596915552     -1.18538633794063
  O   0.83812295878262      0.88675149366392     -2.35072943337495
  O   1.15864998555659      2.33269750902343     -0.72912343879635
  N   1.06158699312723      0.65340862146944      1.20312328957045
  O   2.19431422270885      0.92230847655325      1.56056551724094
  O   0.01807009813379      0.84301848968643      1.82295350255435
  N   -1.65832715679376      0.28388399164975     -0.17989261135772
  O   -2.61869491714441     -0.11210202501911      0.46291520959868
  O   -1.57193744860452      1.34176366095243     -0.78954279703527
  N   -0.51965713252210     -1.75496552552774      0.63095198988477
  H   -0.77519847069699     -1.42410704132039      1.55223042609898
  H   -1.17782332356455     -2.46245336816679      0.33993861477150
