16
Coordinates from ORCA-job run
  C   0.79833114186093      0.07855444072039     -0.17806068336454
  C   -0.57117741576073     -0.62708717841949     -0.36383623771943
  Cl  2.06697853588994     -1.08194316166908     -0.46817265862590
  H   -0.65946736520609     -0.86368736994850     -1.42472133188203
  N   0.96834762667133      1.25210532229121     -1.14204594709291
  O   -0.07328876749248      1.69510101782473     -1.61344036758604
  O   2.10299109365385      1.65448563332984     -1.33184902142339
  N   0.97737872414812      0.66427961193506      1.22986390666757
  O   1.08794670464130      1.87436388928066      1.32218718191516
  O   0.98164394347666     -0.16233354837734      2.12899905274260
  N   -1.70873477449981      0.32596845864918     -0.07240296500388
  O   -2.63576980489039      0.33528776271056     -0.86556638282275
  O   -1.63034932425708      0.94335647443968      0.98600180798373
  N   -0.80571432383266     -1.78429920632441      0.42543498204672
  H   -0.46171221316328     -1.68424751421458      1.37103669077803
  H   -0.43640378123959     -2.61890463222788     -0.00342802661293
