16
Coordinates from ORCA-job run
  C   0.45321349215563      0.54185028679583     -0.41963016026674
  C   -0.86784559130833     -0.24131074759317     -0.19872930094624
  Cl  0.62481434701940      0.87469951097072     -2.12275478050187
  H   -1.68170335158372      0.44928400869344     -0.42234069310007
  N   0.46591625990210      1.86299065447039      0.34817055882749
  O   -0.33429311542617      1.93658232480853      1.27427464963340
  O   1.27623307756671      2.70183547348473     -0.00546909606716
  N   1.68895509672581     -0.23303165620752      0.05922955165835
  O   2.33090422767213      0.24874365661544      0.97611467624095
  O   1.89696611921320     -1.27880791134262     -0.53656448036990
  N   -1.04041545202514     -0.59895384560706      1.26087465240246
  O   -2.14340643409478     -0.40930177481225      1.74667539329728
  O   -0.07225056734333     -1.12759050480906      1.80002766221815
  N   -1.02451685414435     -1.44881367471535     -0.92925342221223
  H   -0.16916756843265     -1.98577024911117     -0.97902901402351
  H   -1.40240368589653     -1.29040555164089     -1.85059619679037
