16
Coordinates from ORCA-job run
  C   0.60043137265059      0.37342174430242      0.29781358323786
  C   -0.57996599951357     -0.41510370537137     -0.25644503016515
  Cl  0.84321797544596      0.10296515472962      1.98281530278708
  H   -0.77326180972840     -0.06389677156077     -1.27066044633670
  N   1.83567070357964     -0.08855563628272     -0.52473397407924
  O   2.78249390855504     -0.56113506807790      0.07338134198060
  O   1.70894480233304      0.08073353830410     -1.72839348198006
  N   0.51221142668188      1.87728173569292     -0.02717689791390
  O   -0.09444313596790      2.15882844048934     -1.04946208943845
  O   1.11295627105677      2.63279270904368      0.71882620943773
  N   -1.84277010766611     -0.02826542818792      0.53985307270888
  O   -2.66567651251874     -0.92011031677646      0.70544805713491
  O   -1.94415519634884      1.13797503170907      0.90105319884103
  N   -0.28505431270430     -1.79297537292245     -0.24263699339281
  H   -0.92924999132918     -2.31825177655048     -0.81569138473682
  H   -0.28034939452589     -2.17570427854108      0.69400953191505
