16
Coordinates from ORCA-job run
  C   0.87662802076129      0.07440863872598     -0.18507328202216
  C   -0.44066701510006     -0.70911727500522     -0.28673937522687
  Cl  2.21759604716336     -0.97564025716348     -0.53349595254494
  H   -0.48343999925706     -1.08209149797320     -1.31312929996279
  N   0.92975340185295      1.23789757507810     -1.19197187874404
  O   1.07618335551344      2.36058745936363     -0.73956683198825
  O   0.82703143527029      0.89536943877532     -2.35643625384642
  N   1.04171787013119      0.69196527974970      1.19898914362250
  O   -0.00913292728442      0.86635128997360      1.81068991571645
  O   2.16651956085072      0.98840855877458      1.55928730507157
  N   -1.66545518494399      0.23349406857417     -0.18572980556124
  O   -2.60610848158085     -0.17199597220833      0.47972520370343
  O   -1.61702739662516      1.27564319752120     -0.82597672374864
  N   -0.46913183736102     -1.76395838899042      0.64628730153625
  H   -1.10631759956881     -2.49264347947305      0.36040292155479
  H   -0.73914924982186     -1.43067863572254      1.56273761244036
