16
Coordinates from ORCA-job run
  C   0.59616346784195      0.36355424340016      0.31586243023424
  C   -0.57947191995017     -0.40475213734004     -0.27677754843702
  Cl  0.80140283035644      0.05851449840823      2.00005334947660
  H   -0.75406639001435     -0.02733133944220     -1.28494977195307
  N   1.84414737998855     -0.09291221090700     -0.48999970475153
  O   1.74361782341991      0.10079643807566     -1.69247031158453
  O   2.77421746788197     -0.58565685854231      0.11809407564026
  N   0.52619340053485      1.87433596297469      0.01872455249255
  O   -0.05225004196130      2.18041306351984     -1.01277957412283
  O   1.11201485785218      2.61076210690755      0.79519812562847
  N   -1.85070438735075     -0.02746685569850      0.51073339872489
  O   -1.96050836155679      1.13860292201723      0.87004913385022
  O   -2.66871967871958     -0.92416157348777      0.67408766698810
  N   -0.29327362904026     -1.78411619550675     -0.29029203561250
  H   -0.92557048213573     -2.29158126570796     -0.89182588308752
  H   -0.31319233714694     -2.19000079867081      0.63629209651364
