16
Coordinates from ORCA-job run
  C   0.41323590193241      0.67705947700824     -0.42365348605948
  C   -0.58813797187371     -0.48230517495119     -0.36585904810021
  Cl  0.00706681758036      1.87104251089042     -1.61246621462909
  H   -0.84773007626842     -0.71719412035867     -1.40039390008550
  N   0.64876031068673      1.31269790695303      0.94385905927170
  O   0.40452773874010      0.58612497171643      1.89984017183437
  O   1.10630288732109      2.44038704057055      0.96926556926189
  N   1.75948298738850      0.02892160201378     -0.81318862252064
  O   2.63500084422970      0.01817063357070      0.03615399465536
  O   1.78879390299038     -0.44038312195507     -1.93647041373525
  N   -1.91497415568588      0.00477008206897      0.25003541480339
  O   -2.74077349889893     -0.88416657775981      0.41846012178129
  O   -2.05845312772204      1.19524583116921      0.50178535924773
  N   -0.05509593670931     -1.63224536761525      0.25343577103641
  H   0.03294689902881     -1.52224891700479      1.25383369187852
  H   -0.59095352273980     -2.45687677631655      0.02536253135948
