16
Coordinates from ORCA-job run
  C   0.58493737716760      0.56304247647242     -0.37733655570992
  C   -0.76208089169946     -0.17788251721522     -0.41438387831145
  Cl  1.11395666211787      0.92868037153113     -1.99148491530750
  H   -1.51574747119100      0.54013235285899     -0.74161298870880
  N   0.45635264223280      1.87096448572282      0.41199485003739
  O   -0.51912701424915      1.94932175491779      1.15100919169694
  O   1.33565182323361      2.69936265398228      0.25353244517927
  N   1.68869547538319     -0.24963894410986      0.32490732737644
  O   2.23192288888268      0.25221380533418      1.29220559668607
  O   1.91264516236694     -1.33673191828311     -0.18348564711284
  N   -1.21427472077996     -0.56118261444308      0.99434071957282
  O   -0.36286516261001     -0.98507069068340      1.76984207009605
  O   -2.42274603000736     -0.51522059245696      1.18589904453858
  N   -0.74673456811661     -1.29630423794030     -1.28193737991187
  H   -0.10329310104408     -2.01508222737726     -0.97949077163522
  H   -1.67829307168709     -1.66560415831040     -1.41399910848595
