16
Coordinates from ORCA-job run
  C   0.62670921189010      0.29478207443275      0.32943436673417
  C   -0.60975490258924     -0.34106889988792     -0.29470616695943
  Cl  0.86152791383517     -0.18730335185223      1.96774441253604
  H   -0.78720096810853      0.14165417773411     -1.25641851216060
  N   1.82092498648253     -0.15107775528153     -0.55991730630716
  O   1.69938715656035      0.16949152737041     -1.73292296034662
  O   2.73418382156507     -0.75859217537958     -0.03603140066742
  N   0.64059363477283      1.82901423034353      0.18354940874509
  O   0.04977227092786      2.26927560741703     -0.79083179806724
  O   1.29537307298867      2.44917609922113      1.00513571378074
  N   -1.83520778491742      0.03237649722071      0.56434189425037
  O   -1.85736782021727      1.15630363882932      1.05135131881548
  O   -2.71040906699507     -0.82007538594670      0.64987760503531
  N   -0.41018923192730     -1.72715188191622     -0.44920893840595
  H   -0.41983696590633     -2.21786794145743      0.43559969945301
  H   -1.09550532836147     -2.13693646084731     -1.06699733643581
