16
Coordinates from ORCA-job run
  C   0.61519835417319      0.19353352544673      0.30198263349837
  C   -0.67376473919190     -0.38074320635417     -0.33104877986700
  Cl  0.98066991983616     -0.49301953747588      1.84490038706808
  H   -0.79665808489917      0.10818479392610     -1.29702014217785
  N   1.80466086636834     -0.02796929677159     -0.64365539238156
  O   1.57753210365564     -0.57533316850035     -1.71547910997539
  O   2.87530981602834      0.39689389219147     -0.24069884136935
  N   0.51244002252824      1.72841274564384      0.36423391861226
  O   0.37429160604875      2.25844393958813      1.45040907111229
  O   0.54529992388841      2.25153909071897     -0.74173669212256
  N   -1.81396642875857      0.11579866271946      0.53535287433683
  O   -2.23089019231467     -0.64915260270132      1.39567668678272
  O   -2.20759669630068      1.25682304447708      0.30786890419983
  N   -0.77372845727547     -1.78454196377296     -0.45728776309030
  H   -0.16815980826109     -2.12850802114317     -1.18753847821298
  H   -0.62263820552549     -2.26936189799234      0.41604072358657
