16
Coordinates from ORCA-job run
  C   0.54511742777473      0.53590631437862     -0.29866153869248
  C   -0.78317886986436     -0.25712759862987     -0.43380118894707
  Cl  1.08292074738706      0.99275845398033     -1.89589486028925
  H   -1.48279761561648      0.45544040460099     -0.87863265159829
  N   0.36860902774936      1.82081176716155      0.52650077463536
  O   -0.38696694550409      2.63850631966030      0.03204967853024
  O   0.97542170090602      1.88588048027094      1.58305863943198
  N   1.63677544530328     -0.26960702377498      0.39125845302739
  O   1.23375226752905     -1.20239083275993      1.07993624284984
  O   2.78950219292531      0.09353580088371      0.23341544952112
  N   -1.35859545846112     -0.55210546653514      0.95241750309980
  O   -1.64127748783486     -1.70419157772743      1.22815903975731
  O   -1.50863625486402      0.43503406312389      1.66597904523089
  N   -0.74519004698234     -1.44723805333789     -1.18746473964966
  H   -0.62304430984646     -1.28880935856487     -2.17529935671936
  H   -0.10241182060110     -2.13540369273023     -0.82402049018777
