16
Coordinates from ORCA-job run
  C   0.61070645699794      0.26055901219982      0.38369909003196
  C   -0.59612593196063     -0.31037944467268     -0.35168498851583
  Cl  0.75790538570047     -0.35367341843073      1.98738997336814
  H   -0.72014655366788      0.24930886727343     -1.27945776110939
  N   1.84641318385758     -0.12497430195469     -0.47711589599768
  O   2.72942582734508     -0.77847161366355      0.04326662386326
  O   1.78573290801257      0.28622863862944     -1.62627281803808
  N   0.64148905245418      1.80145706548435      0.36265892145308
  O   0.10838768636598      2.32369402267046     -0.60451473013975
  O   1.25254301809641      2.34769356854275      1.26623270011841
  N   -1.86133173717848      0.00674937332043      0.47138533689446
  O   -2.74454587727025     -0.84140469302801      0.44682739174063
  O   -1.90151750712764      1.08968064623266      1.04277835300683
  N   -0.39825258434521     -1.68172160031071     -0.60633576182905
  H   -1.05007540681873     -2.03272526677845     -1.29268014425298
  H   -0.46060792046142     -2.24202085551453      0.23382370940598
