16
Coordinates from ORCA-job run
  C   0.61201550591982      0.19637256398207      0.30487268516810
  C   -0.67839706311946     -0.38108733106640     -0.32180545344023
  Cl  0.91562843779856     -0.39178423147831      1.90058493937261
  H   -0.76515919105355      0.04745731743490     -1.31983963202943
  N   1.81669083536366     -0.12728880894626     -0.59125527666520
  O   2.89141616801550      0.28591589193482     -0.18708212597266
  O   1.59668393569870     -0.73405452291635     -1.63204104374578
  N   0.56030673310651      1.73510354215627      0.25807639351319
  O   0.42040288979434      2.34480936193607      1.30118676692163
  O   0.63284608082548      2.17732967330190     -0.88080185406845
  N   -1.82311469914492      0.20208765045795      0.48335023662295
  O   -2.28889449084066     -0.49721529492589      1.37385417877181
  O   -2.16997791502670      1.34090985606247      0.18098352671487
  N   -0.81583105085673     -1.78657746555681     -0.36038091498710
  H   -0.20667389207348     -2.19423131953719     -1.05382948468877
  H   -0.69894228440705     -2.21874688283920      0.54512705851244
