16
Coordinates from ORCA-job run
  C   0.58196861973680      0.32192517364512      0.35092574220824
  C   -0.66197788058259     -0.35619129517109     -0.26041179710220
  Cl  0.86284892390029      0.01600181436965      2.02535774243229
  H   -0.71991156717593     -0.04047718528556     -1.30086380487304
  N   1.75025960847340     -0.21469257766353     -0.50789750916112
  O   1.69194201575204      0.14743178349699     -1.67719630408698
  O   2.56861497765666     -0.95476668810919      0.00614808100414
  N   0.62378554003587      1.82624891181067      0.10365898952328
  O   1.70268666673231      2.36315899462400      0.30037352205254
  O   -0.42339129406574      2.34620361180043     -0.25893232204728
  N   -1.94861384500532      0.13136756853897      0.36822375355038
  O   -2.78073925939876      0.61009620825550     -0.39043683201724
  O   -2.08280445220788     -0.08444675830138      1.56787842180257
  N   -0.65182723141898     -1.77325646875534     -0.16140672286296
  H   -0.36514206137742     -2.11456502835944      0.74524789907711
  H   -0.14869876105473     -2.22303806489580     -0.91066885949971
