16
Coordinates from ORCA-job run
  C   0.51234256648955      0.53562154351749     -0.50863290174626
  C   -0.74800228819169     -0.32592599842901     -0.33613055464424
  Cl  0.81416238602053      0.80763196629841     -2.19917746960410
  H   -1.55880441487275      0.23972596420246     -0.80195595331614
  N   0.36168516401956      1.91373925789130      0.15919706056591
  O   -0.56353394102419      2.57890960165223     -0.27153320083478
  O   1.16877526770154      2.20481724851278      1.02560854557661
  N   1.72192708420218     -0.12925201326936      0.13845766822448
  O   1.45057229910853     -0.92752396660703      1.03176878327490
  O   2.82831798144063      0.20378245826977     -0.24621488838539
  N   -1.16896462134851     -0.41650764202346      1.15137065309117
  O   -1.55206878083182     -1.50972761960891      1.53897415811976
  O   -1.14150847019084      0.62157671039464      1.79929896031589
  N   -0.58097566791558     -1.58376554462156     -0.94706161711543
  H   -1.46804699875153     -1.99791032345766     -1.19199272323072
  H   -0.07487756585562     -2.21819164272205     -0.34297652029169
