16
Coordinates from ORCA-job run
  C   0.48874078155220      0.57067887390310     -0.49387269733853
  C   -0.77772111031785     -0.27893118628494     -0.30884617657411
  Cl  0.67831613624288      0.99088611746326     -2.17021761373898
  H   -1.60489797776574      0.34271020395629     -0.66069541678824
  N   0.41962315583341      1.88446071296436      0.30440819374431
  O   -0.51925509930585      2.60096749093709      0.00588489897538
  O   1.29482689774751      2.08253584569655      1.12994922347613
  N   1.72355482533189     -0.17369610265048      0.00171065279049
  O   1.49511249514264     -1.04824108540117      0.83342529130192
  O   2.80848019060841      0.17538868238805     -0.42728994774002
  N   -1.09379768137976     -0.49951558058333      1.19091130339406
  O   -1.48389184610493     -1.61452156955752      1.50204853043500
  O   -0.98622257319832      0.47073453893692      1.92929614546079
  N   -0.68828470302212     -1.47728767957178     -1.04316558428218
  H   -1.60140434851286     -1.85170490135854     -1.25380332418866
  H   -0.15217914285151     -2.17346436083785     -0.54174347892734
