16

C	-0.264652	-0.045769	-1.499311
C	0.0	0.0	0.0
Cl	-2.034381	0.177924	-1.863691
H	1.094119	0.0	0.0
H	-0.050339	-1.073398	-1.801417
N	0.521619	0.830757	-2.324697
H	0.373847	1.770301	-1.971192
H	1.488042	0.605625	-2.069657
C	-0.504241	-1.199958	0.762519
H	-1.594944	-1.253725	0.781333
H	-0.104366	-2.098979	0.285683
H	-0.134106	-1.172012	1.787158
N	-0.428391	1.254527	0.61696
O	-0.193492	2.311776	0.014561
O	-0.939533	1.221387	1.744551
H	2.651577	0.0	0.0
