16

C	-0.256245	-0.057938	-1.500213
C	0.0	0.0	0.0
Cl	-2.021654	0.168898	-1.882186
H	1.094703	0.0	0.0
H	-0.042892	-1.089345	-1.789956
N	0.540884	0.805671	-2.331093
H	1.505734	0.595958	-2.04864
H	0.372747	1.752207	-2.006353
C	-0.509372	-1.192725	0.770522
H	-0.12973	-1.167309	1.791699
H	-0.126849	-2.098373	0.29175
H	-1.600907	-1.232684	0.798867
N	-0.425082	1.258678	0.609372
O	-0.872377	1.237543	1.763857
O	-0.248048	2.308128	-0.024865
H	2.646648	0.0	0.0
