16

C	-0.436835	0.012642	-1.45348
C	0.0	0.0	0.0
Cl	0.053741	-1.522539	-2.258465
H	1.092632	0.0	0.0
H	0.144646	0.778244	-1.971758
N	-1.876709	0.142067	-1.600312
H	-2.112316	1.05369	-1.213851
H	-2.098066	0.170472	-2.590646
C	-0.463602	-1.164411	0.844
H	-1.550775	-1.186376	0.950117
H	-0.00128	-1.090758	1.826725
H	-0.130575	-2.09155	0.378944
N	-0.347111	1.266425	0.603973
O	-0.490313	2.265142	-0.139333
O	-0.336569	1.351184	1.843514
H	2.522191	0.0	0.0
