16

C	-0.586994	-0.05046	-1.391846
C	0.0	0.0	0.0
Cl	0.090897	1.265879	-2.394362
H	1.089792	0.0	0.0
H	-1.656268	0.163983	-1.337422
N	-0.289835	-1.339415	-2.009288
H	-0.197964	-1.219134	-3.008137
H	-1.073978	-1.959787	-1.843516
C	-0.451882	-1.191926	0.828618
H	-0.088541	-1.072755	1.851455
H	-1.540297	-1.304532	0.844807
H	0.017091	-2.077023	0.405051
N	-0.492378	1.233403	0.686067
O	-1.663633	1.586502	0.486977
O	0.274719	1.799516	1.46038
H	2.888588	0.0	0.0
