16

C	-0.414309	-0.185714	-1.458625
C	0.0	0.0	0.0
Cl	-0.127431	1.351934	-2.35352
H	1.091746	0.0	0.0
H	-1.485077	-0.37602	-1.560937
N	0.350055	-1.232424	-2.087232
H	-0.006482	-2.132241	-1.793268
H	1.318025	-1.148102	-1.774185
C	-0.458149	-1.167497	0.859329
H	-0.203867	-0.962177	1.902396
H	-1.536066	-1.344615	0.776416
H	0.094706	-2.063079	0.568256
N	-0.592354	1.227912	0.584314
O	0.109353	1.943533	1.293021
O	-1.794932	1.421288	0.367431
H	2.849295	0.0	0.0
