13
Coordinates from ORCA-job run
  C   0.82455190828559     -0.28596990594101     -0.23751496443704
  C   -0.65964471137089      0.08794030828690     -0.31083258409249
  F   1.59350117614117      0.84189421159982     -0.37360380933329
  H   -1.21651921553702     -0.86317424910208     -0.23547314334991
  H   1.07894782430533     -0.94550840702613     -1.07823420228648
  N   1.10661947453657     -0.83536058984485      1.06942550703470
  H   0.79881000105680     -1.79950454724541      1.11732432017606
  H   2.10849866808899     -0.81754006385134      1.21846586147062
  C   -0.95586274555508      0.64756609786119     -1.63728094900818
  N   -1.20498420559146      1.06484448763948     -2.70506170959770
  N   -0.96837710178923      1.05304778048983      0.72753711700559
  H   -1.96853062155723      1.12402358299922      0.85993777888488
  H   -0.53701045101354      0.72874129413438      1.58531077753325
