13
Coordinates from ORCA-job run
  C   0.51200739505278     -0.45815874838270      0.45492462674987
  C   -0.50590443969218      0.22878562635072     -0.46305949479093
  F   0.26096245234678     -1.84424955127860      0.31355663796774
  H   -0.22925708630712     -0.02859120754603     -1.49380846644970
  H   0.30677329595323     -0.22434993260676      1.50260795257391
  N   1.83145860931209     -0.09931925211440      0.12818441007169
  H   2.07048947041462     -0.36606031679859     -0.81789586099414
  H   2.50674236879306     -0.48691939604079      0.77193019761682
  C   -0.38944922019318      1.68339612462541     -0.31267370336923
  N   -0.32542108953099      2.84422600477129     -0.15637633649226
  N   -1.88960900680916     -0.17499289106909     -0.26648849499296
  H   -1.93853301705840     -1.18548384263151     -0.31249179092710
  H   -2.20825973228154      0.11271738272105      0.65159032303628
