13
Coordinates from ORCA-job run
  C   1.00375608917636      0.00611920619774     -0.02974295778937
  C   -0.47073383993396     -0.05224432463178     -0.44905728645060
  F   1.19605298064085      1.31544983417936      0.43959671217421
  H   -0.64345448186279     -1.03753149879419     -0.89333617175164
  H   1.65867603768411     -0.10550893113383     -0.89707564003778
  N   1.31654165551316     -0.92932229895386      0.97218711325363
  H   0.50657547571631     -1.24669481445436      1.48309825872731
  H   1.93534101336558     -1.66785892924844      0.68707706332042
  C   -0.76330368847620      0.96743298152709     -1.47463044107650
  N   -1.03140297626472      1.77766912293256     -2.28123971606447
  N   -1.28644417886717      0.05500150240479      0.75267059549239
  H   -2.26783646764216     -0.05303436201905      0.53078121111877
  H   -1.15276761904938      0.97252251199398      1.16167125908361
