13

C	-0.432774	-0.104694	-1.427656
C	0.0	0.0	0.0
Br	-0.004209	-1.728617	-2.388556
H	1.094765	0.0	0.0
H	0.06015	0.696314	-1.977723
H	-0.32304	0.969788	0.383463
N	-1.910128	0.140432	-1.606494
O	-2.684217	-0.514061	-0.916678
O	-2.232494	1.00039	-2.427441
N	-0.495477	-0.99893	0.936428
O	-0.392418	-2.190294	0.637994
O	-0.883608	-0.585587	2.03767
H	2.589411	0.0	0.0
