13

C	-0.677677	-0.105888	-1.335611
C	0.0	0.0	0.0
Br	-0.262645	1.467977	-2.402873
H	1.089089	0.0	0.0
H	-1.762202	-0.164668	-1.281249
H	-0.258628	0.947088	0.473875
N	-0.287391	-1.311049	-2.158339
O	0.877243	-1.674915	-2.137005
O	-1.19753	-1.806955	-2.822
N	-0.454963	-1.056223	0.871
O	-0.885207	-2.105001	0.347403
O	-0.279705	-0.904619	2.088378
H	2.524435	0.0	0.0
