13

C	-0.596093	0.114821	-1.377324
C	0.0	0.0	0.0
Br	0.489431	1.077383	-2.668125
H	1.08931	0.0	0.0
H	-1.557974	0.617056	-1.369178
H	-0.278289	-0.934081	0.487322
N	-0.880949	-1.283576	-1.87795
O	-0.051382	-1.881725	-2.547889
O	-1.960395	-1.739278	-1.498718
N	-0.450578	1.076583	0.846258
O	-0.33517	0.911704	2.070731
O	-0.814327	2.142491	0.316746
H	2.484709	0.0	0.0
