20

C	-0.339249	0.06304	-1.497399
C	0.0	0.0	0.0
Br	0.045909	-1.743566	-2.290254
H	1.102813	0.0	0.0
C	-1.796337	0.345396	-1.816837
H	-2.040967	1.365907	-1.498962
H	-2.435921	-0.355898	-1.274861
H	-1.994298	0.263142	-2.888951
C	0.661258	1.004948	-2.160239
H	0.4012	2.041057	-1.912182
H	0.651265	0.904552	-3.248069
H	1.650381	0.777793	-1.738748
N	-0.641241	-1.145993	0.670079
H	-0.114815	-1.971238	0.397242
H	-0.451824	-1.031191	1.663006
C	-0.468403	1.265186	0.712471
H	-1.556875	1.279309	0.842963
H	-0.000112	1.292718	1.702551
H	-0.151928	2.17177	0.193241
F	2.763462	0.0	0.0
