20

C	-0.287821	-0.075627	-1.520048
C	0.0	0.0	0.0
Br	0.125608	1.703995	-2.336166
H	1.09643	0.0	0.0
C	0.718052	-1.045723	-2.134247
H	0.729243	-0.980285	-3.225607
H	1.700259	-0.810969	-1.698837
H	0.443225	-2.070261	-1.856011
C	-1.72806	-0.365697	-1.922971
H	-2.416427	0.380652	-1.517645
H	-2.02839	-1.354783	-1.556817
H	-1.830963	-0.372075	-3.011121
N	-0.331664	-1.280664	0.658415
H	-1.135298	-1.742335	0.250499
H	0.475553	-1.884252	0.561167
C	-0.656554	1.135099	0.758689
H	-1.754138	1.082988	0.71559
H	-0.363109	1.043357	1.806574
H	-0.339164	2.11115	0.391101
F	2.736469	0.0	0.0
