14

C	0.0	0.0	0.0
C	-0.399818	0.190888	-1.509145
Br	1.952136	0.0	0.0
H	0.530248	0.432136	-2.03317
H	-0.346618	0.825203	0.617998
C	-0.407661	-1.276804	0.574501
N	-0.543068	-2.35162	1.030935
C	-1.214075	1.390677	-1.727858
N	-1.642744	2.427971	-2.078282
C	-0.95024	-1.067562	-2.179727
H	-1.885797	-1.359308	-1.708893
H	-0.213711	-1.872124	-2.095177
H	-1.119512	-0.862944	-3.240314
Cl	-3.089729	0.0	0.0
