14

C	0.0	0.0	0.0
C	-0.54517	0.211163	-1.423787
Br	1.946215	0.0	0.0
H	-0.079104	-0.543041	-2.069067
H	-0.319765	0.814	0.654111
C	-0.432803	-1.279272	0.550631
N	-0.722097	-2.324763	1.00198
C	-0.115504	1.525801	-1.908788
N	0.208552	2.581556	-2.308885
C	-2.071046	0.068162	-1.459344
H	-2.588352	0.724511	-0.758718
H	-2.375068	-0.94694	-1.200932
H	-2.44077	0.291289	-2.461584
Cl	-5.057339	0.0	0.0
