14

C	0.0	0.0	0.0
C	-0.543276	0.260351	-1.416696
Br	1.949447	0.0	0.0
H	-0.075804	-0.473366	-2.084778
H	-0.317997	0.790428	0.683181
C	-0.428972	-1.300129	0.503804
N	-0.717644	-2.372258	0.887897
C	-0.11121	1.591313	-1.853549
N	0.209407	2.664856	-2.206046
C	-2.069913	0.122199	-1.466953
H	-2.381725	-0.893075	-1.219014
H	-2.427488	0.353576	-2.471479
H	-2.593055	0.774968	-0.768373
Cl	-5.072781	0.0	0.0
