14

C	0.0	0.0	0.0
C	-0.563669	-0.104207	-1.421929
Br	1.948762	0.0	0.0
H	-1.645385	-0.26071	-1.247188
H	-0.346972	0.929076	0.45324
C	-0.391501	-1.133788	0.836051
N	-0.583451	-2.072553	1.515732
C	-0.014937	-1.250153	-2.139313
N	0.413736	-2.151224	-2.75985
C	-0.384125	1.194132	-2.205209
H	0.669048	1.468981	-2.300288
H	-0.811367	1.087092	-3.203888
H	-0.929303	1.988021	-1.689701
Cl	-3.417258	0.0	0.0
