9
Coordinates from ORCA-job run
  C   0.74613559076385     -0.59229716552699      0.11515073737718
  C   -0.50509078507341     -0.06625024857436      0.03775706502294
  H   0.87342636114879     -1.64046204582850      0.37083575230785
  C   1.90993417803829      0.18752348774840     -0.12979875309793
  N   2.88478540870011      0.81855634964098     -0.32846856148257
  C   -1.65181739525677     -0.88631196481710      0.29222081160498
  N   -2.59072769878921     -1.56309853558856      0.50433821462541
  C   -0.73621010242922      1.30711437640544     -0.29515673376725
  N   -0.93243555710242      2.43522574654070     -0.56787853259061
