9
Coordinates from ORCA-job run
  C   0.88882717397156      0.07774145689681     -0.35257737084552
  C   -0.43889972293286      0.23825663977415     -0.10835664419057
  H   1.37270471151017      0.68647821197119     -1.11122387898508
  C   1.67937853563387     -0.86866215550696      0.35589091604335
  N   2.35220836698561     -1.64508383466255      0.93269692361095
  C   -1.13197702284105     -0.53314723358169      0.87900625559218
  N   -1.70527645189839     -1.16576315924379      1.68933459098093
  C   -1.19836399503489      1.20622332416625     -0.84205082371635
  N   -1.81960159539402      2.00395675018660     -1.44371996848990
