9
Coordinates from ORCA-job run
  C   0.71641703254770     -0.63726049618510     -0.03209420948086
  C   -0.50639636625699     -0.04838169379386      0.04623676658309
  H   0.79546726162157     -1.71984434406530      0.01296839189160
  C   1.91263282186917      0.11950870289793     -0.17177165791831
  N   2.91540264572144      0.72698129008356     -0.28811303605673
  C   -1.68674426735323     -0.84762778777340      0.18730386064946
  N   -2.65434841801319     -1.50719723542177      0.30238862901521
  C   -0.67375171337273      1.37267222671806     -0.00695052726866
  N   -0.81767899676373      2.54014933753988     -0.04996821741479
