9
Coordinates from ORCA-job run
  C   0.90608683719046      0.18321501339172     -0.25879418725833
  C   -0.44780797123780      0.20276313530335     -0.13777343698569
  H   1.39463896907289      0.87352815671967     -0.94074793503221
  C   1.71875799541333     -0.71886505998102      0.48193376935407
  N   2.41082937180052     -1.45799337275161      1.08427323060640
  C   -1.14779741582455     -0.68186733226069      0.74418752223927
  N   -1.72747601781861     -1.40596951320288      1.46900122191908
  C   -1.23061978284665      1.12491999083242     -0.90513902898187
  N   -1.87461198574960      1.88026898194904     -1.53694115586072
