9
Coordinates from ORCA-job run
  C   0.70111464698181     -0.62571220145077     -0.19637724741535
  C   -0.50697029296034     -0.04682884466412      0.03504990898883
  H   0.75370279092109     -1.68636590341935     -0.42547673789340
  C   1.91519134830416      0.11369245612268     -0.14777836665273
  N   2.93172661886132      0.70812468075163     -0.11165763626229
  C   -1.70684599933333     -0.82741090228770     -0.02106953988923
  N   -2.69110284838197     -1.47058497683400     -0.06775455266903
  C   -0.63966939670876      1.34563123336639      0.34139377402627
  N   -0.75614686768397      2.48945445841524      0.59367039776693
