9
Coordinates from ORCA-job run
  C   0.87697340409072      0.14695266916551     -0.36100183703429
  C   -0.45713245430586      0.20205531957467     -0.10549564060961
  H   1.30483185208708      0.79011235814231     -1.12481508493304
  C   1.74648605917404     -0.72890107644084      0.34620235699042
  N   2.48258664789008     -1.44743994720852      0.92043347203642
  C   -1.07755573271154     -0.61867102239158      0.89048588918691
  N   -1.59203297187704     -1.28875967214832      1.71006034643816
  C   -1.29781376843143      1.10167594548722     -0.83750139566840
  N   -1.98634303591604      1.84297542581954     -1.43836810640658
