9
Coordinates from ORCA-job run
  C   0.73534034378044     -0.61613079628777      0.02412877326755
  C   -0.50593973196760     -0.06172873183663      0.02854650636977
  H   0.84276079032589     -1.69324023420097      0.11777474673607
  C   1.91424787084164      0.16961290783849     -0.10028250073548
  N   2.90278301695918      0.80250938742132     -0.20206258874082
  C   -0.71172310735589      1.35018036508023     -0.09268652841004
  N   -0.88704850810742      2.50990928545231     -0.19194794651696
  C   -1.66787693977514     -0.88973551047474      0.15640821954720
  N   -2.62054373470109     -1.57237667299225      0.26112131848271
