9
Coordinates from ORCA-job run
  C   0.88892044755700      0.13131991982496     -0.33483520390478
  C   -0.45122352914267      0.20823166396433     -0.11935642578655
  H   1.34746234430980      0.75726085671925     -1.09524369106862
  C   1.72520867676486     -0.74858313338625      0.40631041659509
  N   2.43693902150063     -1.46991727203130      1.00731524796781
  C   -1.11266869144384     -0.59047656542216      0.86807574942729
  N   -1.66148160668321     -1.24504022622603      1.67801126605703
  C   -1.25727238214118      1.10853971994870     -0.88877513287307
  N   -1.91688428072138      1.84866503660851     -1.52250222641420
