9
Coordinates from ORCA-job run
  C   0.85654265185116      0.04797352630189     -0.42998380480131
  C   -0.44565769135701      0.23398583529990     -0.08662989934049
  H   1.27443025350695      0.59648083028220     -1.26946856376496
  C   1.70413711859348     -0.84885772017541      0.27724836132039
  N   2.42242033860391     -1.58669812357209      0.84970699167698
  C   -1.05244416819376     -0.45945784544748      1.00937429517955
  N   -1.55681834937928     -1.02652593285828      1.90917492338888
  C   -1.26555972483543      1.14717687098693     -0.82555122296472
  N   -1.93705042879002      1.89792255918234     -1.43387108069431
