9
Coordinates from ORCA-job run
  C   0.85997459970112      0.05659231701326     -0.41984831638433
  C   -0.45004860038417      0.22278377443366     -0.09653417034095
  H   1.27811288924026      0.59818589913711     -1.26372191280531
  C   1.71619294006114     -0.80909925133083      0.31511644231136
  N   2.44286564721087     -1.51871805054937      0.91222532201367
  C   -1.05669475528876     -0.46334896668211      1.00409636842185
  N   -1.55985378439985     -1.02463275791582      1.90825677655441
  C   -1.27715838217669      1.10701668352572     -0.86200685928125
  N   -1.95239055396393      1.83222035236837     -1.49658365048945
