9
Coordinates from ORCA-job run
  C   0.76785165570704     -0.57537813725660      0.03020065584309
  C   -0.50220375437064     -0.09078835939924      0.00677546993286
  H   0.93325202733160     -1.64747767960787      0.08906563831272
  C   1.90363104396586      0.27930925553054     -0.02047468185803
  N   2.85724638608186      0.97000630118181     -0.06073669556999
  C   -1.61945779877039     -0.98573010188288      0.06066773831524
  N   -2.53466188375814     -1.72383937186288      0.10623139367265
  C   -0.78279722168384      1.31114148342889     -0.07242303581749
  N   -1.02186045450333      2.46175660986822     -0.13930648283105
