9
Coordinates from ORCA-job run
  C   0.72257748233354     -0.61711550666345     -0.13427506245597
  C   -0.50756113865240     -0.05414244153448      0.00013675072831
  H   0.80702355831050     -1.68060688522789     -0.33963133216358
  C   1.91902691755045      0.14241937688650     -0.01387222334216
  N   2.92150643204119      0.75369396853896      0.08300938772933
  C   -1.68806729748650     -0.85543810821856     -0.12735770676386
  N   -2.65623432974552     -1.51581720897960     -0.23247433520484
  C   -0.68311352479304      1.34096846703889      0.27073898374511
  N   -0.83415809955824      2.48703833815963      0.49272553772766
