9
Coordinates from ORCA-job run
  C   0.90419742393141      0.14560433847629     -0.28750368909498
  C   -0.44192793413458      0.22780449106293     -0.11680987879497
  H   1.40284553051321      0.83193547085193     -0.96613064076270
  C   1.69575722320639     -0.81688262354127      0.39809045194127
  N   2.36955913136673     -1.60551576028241      0.95683545641055
  C   -1.15404912914240     -0.64880491893125      0.76354122998510
  N   -1.74446587756966     -1.36587950303191      1.48653089202527
  C   -1.20347491491221      1.21212877506120     -0.82611805112732
  N   -1.82844145325889      2.02060973033449     -1.40943577058222
