9
Coordinates from ORCA-job run
  C   0.74391848662782     -0.60715230210285      0.01317938327584
  C   -0.50539189158112     -0.07111474196173      0.00634756313972
  H   0.86599789945309     -1.68612814512415      0.04631196424998
  C   1.91320072692181      0.20188406949348     -0.02131150026920
  N   2.89392005021119      0.85422089395449     -0.04763972546918
  C   -1.65884137202149     -0.91987257971977      0.04133225594651
  N   -2.60633285418002     -1.61701171491817      0.06913751058606
  C   -0.72808682526730      1.34285873543304     -0.03652354257569
  N   -0.91638422016398      2.50431578494566     -0.06983390888404
