9
Coordinates from ORCA-job run
  C   0.69723972945893     -0.64532017574369     -0.13656448702336
  C   -0.50830844703834     -0.03875981569289      0.02742829862725
  H   0.74211885034877     -1.71986720625432     -0.29032042247703
  C   1.91923669351936      0.08197670727756     -0.11200737936963
  N   2.94281949909072      0.66502821907350     -0.09372837462730
  C   -1.71634874131248     -0.80800557894019     -0.00395047672978
  N   -2.70745051873349     -1.44169371261715     -0.03004966536029
  C   -0.63078717030223      1.37289098241324      0.23427066383771
  N   -0.73851989503125      2.53275058048393      0.40392184312242
