9
Coordinates from ORCA-job run
  C   0.86122494330686      0.08475749070625     -0.41533902084687
  C   -0.45012703657491      0.22465954329343     -0.08531717687322
  H   1.27658584253972      0.67282776846270     -1.22889355436511
  C   1.72304558215335     -0.81199222677601      0.27450305884936
  N   2.45407325589896     -1.54775252872727      0.83332009611911
  C   -1.05407031378234     -0.52194556585035      0.97686843508883
  N   -1.55732959066915     -1.13306536307714      1.84802354107762
  C   -1.28435773747870      1.13969709525226     -0.80565430672004
  N   -1.96804494539380      1.89181378671614     -1.39851107232966
