9
Coordinates from ORCA-job run
  C   0.81531610747234      0.06844813804693     -0.44027977879155
  C   -0.46810740823931      0.24167781821726     -0.04179182495230
  H   1.17939027173856      0.60858560859630     -1.31558604132491
  C   1.72193627315435     -0.76762166577522      0.26962045311316
  N   2.49649826304900     -1.48477057004030      0.79624761740046
  C   -1.02865012827029     -0.47269816614899      1.06816248732039
  N   -1.45660100092805     -1.12911650518849      1.94652023632695
  C   -1.34114948534676      1.06657485171387     -0.82380833385478
  N   -1.91963289262983      1.86892049057864     -1.45908481523742
