9
Coordinates from ORCA-job run
  C   0.73678759821953     -0.61348111702679      0.04061764549820
  C   -0.50651454197878     -0.06399467321848      0.01850468302237
  H   0.84698055007317     -1.68934714544360      0.14263092359371
  C   1.91450974384398      0.17691415165440     -0.06484101833599
  N   2.90204530077123      0.81381377696643     -0.14954325835707
  C   -0.71502800009601      1.34665617751456     -0.11244943143251
  N   -0.89223308461422      2.50536945388128     -0.22027136341681
  C   -1.66760540683410     -0.89582661952633      0.12791973893772
  N   -2.61994215938480     -1.58110400480148      0.21743208049038
