9
Coordinates from ORCA-job run
  C   0.89246208498338      0.15431772811135     -0.31670468148874
  C   -0.45135869138465      0.20859976025030     -0.11804893278142
  H   1.35560359444415      0.81730053982180     -1.04177429452336
  C   1.72631416891933     -0.74812618534983      0.39964008153050
  N   2.43386896723520     -1.48784983889795      0.98293842795866
  C   -1.25593969714813      1.13258450385063     -0.86026644760790
  N   -1.91468894102094      1.89217330174895     -1.47151841492093
  C   -1.11768086889875     -0.63755878451386      0.82569702818605
  N   -1.66958061712960     -1.33144102502138      1.60003723364712
