9
Coordinates from ORCA-job run
  C   0.89233463118679      0.14609912664919     -0.32191089811144
  C   -0.44831059977403      0.21889823760955     -0.10856100114788
  H   1.36042492957963      0.81857985132862     -1.03507273216792
  C   1.71726704331197     -0.78779210075255      0.36377501991772
  N   2.41769194825295     -1.55349403704502      0.92153277776832
  C   -1.24366401272606      1.17509566709477     -0.81952182263465
  N   -1.89492968697255      1.96193483814539     -1.40378629500072
  C   -1.12112981847794     -0.63839208840312      0.82033791767212
  N   -1.68068443438074     -1.33992949462683      1.58220703370444
