9
Coordinates from ORCA-job run
  C   0.76112929612702     -0.58139777382195      0.05865763546321
  C   -0.50351068220188     -0.08558045441062      0.00417376954975
  H   0.91485462441907     -1.65246901656044      0.15622276251590
  C   1.90620916624038      0.25963013674309     -0.00815506407396
  N   2.86735918522032      0.93881304009401     -0.06267087673564
  C   -1.63021244021907     -0.96727209579566      0.07561504960682
  N   -2.55427254892390     -1.69349793146865      0.13268860467109
  C   -0.76885449806178      1.31561631536673     -0.12462382859693
  N   -0.99370210260015      2.46615777985348     -0.23090805240024
