9
Coordinates from ORCA-job run
  C   0.89908082259050      0.13968389274216     -0.30514329836166
  C   -0.44765575161369      0.20745184918764     -0.13182087223874
  H   1.37829891947506      0.77527796550985     -1.04452589201735
  C   1.71562510818756     -0.74336278156606      0.45405828288419
  N   2.40920022676133     -1.46804067708477      1.07193349975357
  C   -1.23448869236424      1.11045976177121     -0.91763968500524
  N   -1.87918617940530      1.85276466305782     -1.56410717892011
  C   -1.13539777677703     -0.60441491579516      0.82654936969583
  N   -1.70647667685419     -1.26881975782269      1.61269577420950
