9
Coordinates from ORCA-job run
  C   0.87973809671054      0.21929998572592     -0.26645695044661
  C   -0.46808097057192      0.15799415370934     -0.13425369770211
  H   1.29623481192054      0.94692272021155     -0.96923906196445
  C   1.76977550921893     -0.63320179784943      0.46607047326408
  N   2.53943804432729     -1.34191875980156      1.00775973976845
  C   -1.28931739066753      1.01992086807585     -0.91351063094596
  N   -1.95199909372663      1.77842987836826     -1.51831387929507
  C   -1.10878639754756     -0.71488877672946      0.79485347799991
  N   -1.66700260966367     -1.43355827171047      1.53309052932178
