9
Coordinates from ORCA-job run
  C   0.74202896189699     -0.60667202309892     -0.04430186461337
  C   -0.50574261591604     -0.07057010548866      0.01818253438657
  H   0.86194668183925     -1.68596912960383     -0.07772203265185
  C   1.91203331794722      0.20163784413196     -0.06855583320203
  N   2.89351171267213      0.85288969168666     -0.09092929053586
  C   -0.72691318383997      1.34344516397928      0.06418526841975
  N   -0.91312103292624      2.50503571616508      0.10298798310343
  C   -1.65875948825781     -0.92032811984614      0.04019109513232
  N   -2.60498435341552     -1.61946903792543      0.05696213996104
