9
Coordinates from ORCA-job run
  C   0.90893786668274      0.09202498461701     -0.29302083823301
  C   -0.43512427813719      0.22746248045742     -0.14059711238877
  H   1.42917946328880      0.69428356439599     -1.03252471636655
  C   1.67075910756398     -0.81973047822952      0.48856785735603
  N   2.32169622248902     -1.56646965130939      1.12634413124184
  C   -1.16562169109619      1.15714180486518     -0.94936397841323
  N   -1.76407459413804      1.92167890859941     -1.61408712766197
  C   -1.17571142562180     -0.53922219705222      0.81555464021841
  N   -1.79004067103132     -1.16716941634388      1.59912714424726
