17

C	-0.523756	-0.066831	-1.441273
C	0.0	0.0	0.0
Cl	-0.333987	1.621974	-2.073856
H	1.089045	0.0	0.0
H	-0.397	0.86897	0.519414
C	0.325065	-0.973899	-2.314468
H	0.012311	-0.890958	-3.358645
H	0.210481	-2.006627	-1.981687
H	1.377331	-0.700988	-2.215367
C	-2.004712	-0.402824	-1.505113
H	-2.58885	0.276004	-0.879147
H	-2.362904	-0.324123	-2.533793
H	-2.167103	-1.4273	-1.159479
N	-0.483779	-1.173045	0.772762
O	-1.24042	-0.955482	1.724451
O	-0.137486	-2.295353	0.407386
Cl	3.384304	0.0	0.0
