17

C	-0.404991	0.021594	-1.464922
C	0.0	0.0	0.0
Cl	-2.220805	-0.031946	-1.584106
H	1.091593	0.0	0.0
H	-0.397256	-0.885077	0.493453
C	0.093308	1.239536	-2.220973
H	1.174548	1.309414	-2.084222
H	-0.361165	2.156849	-1.854268
H	-0.139368	1.124364	-3.281226
C	0.146415	-1.254438	-2.083822
H	1.23449	-1.239387	-1.991156
H	-0.13375	-1.312704	-3.136074
H	-0.239691	-2.137361	-1.571951
N	-0.498753	1.15489	0.78036
O	-0.069645	2.271998	0.496809
O	-1.317296	0.92583	1.674066
Cl	3.377396	0.0	0.0
