14

C	0.0	0.0	0.0
C	-0.527063	-0.052471	-1.431251
Br	1.964612	0.0	0.0
H	-0.14087	0.779015	-2.019056
H	-1.635237	-0.026842	-1.281489
C	-0.313549	1.3613	0.508985
N	-0.490742	2.433564	0.960101
N	-0.570989	-1.053031	0.754051
H	-1.61261	-0.893294	0.599068
H	-0.382011	-0.901477	1.740392
N	-0.144923	-1.293609	-2.134759
O	0.770973	-1.206443	-2.964303
O	-0.775068	-2.31965	-1.882948
H	-2.909653	0.0	0.0
