14

C	0.0	0.0	0.0
C	-0.552843	0.142356	-1.397093
Br	2.01712	0.0	0.0
H	-0.364272	-0.765814	-1.96246
H	-1.66437	0.258065	-1.182723
C	-0.286727	1.161826	0.87124
N	-0.472639	1.996482	1.67957
N	-0.560737	-1.212143	0.495597
H	-1.605056	-0.9974	0.413894
H	-0.354313	-1.287432	1.487907
N	-0.053238	1.276001	-2.180001
O	0.111639	2.353305	-1.608653
O	0.122661	1.08918	-3.38929
H	-2.869147	0.0	0.0
