16

C	0.0	0.0	0.0
C	-0.501318	0.072436	-1.486259
Cl	1.762383	0.0	0.0
H	0.397632	0.257758	-2.079302
N	-0.252839	1.408998	0.698562
O	-0.005294	2.414855	0.047064
O	-0.584642	1.374257	1.875848
N	-0.530494	-1.044048	0.739884
H	-1.555177	-0.965266	0.677306
H	-0.255597	-0.94245	1.709822
C	-1.37705	1.212589	-1.849305
N	-1.895827	2.074162	-2.459613
N	-1.031816	-1.215523	-1.902253
H	-1.946567	-1.305905	-1.461388
H	-1.199046	-1.15615	-2.901883
Cl	-3.409592	0.0	0.0
