16

C	0.0	0.0	0.0
C	-0.532328	-0.382763	-1.390003
Cl	1.791037	0.0	0.0
H	-1.627328	-0.289121	-1.293987
N	-0.350659	1.498085	0.302067
O	-0.732081	2.225858	-0.605415
O	-0.207955	1.831261	1.472755
N	-0.52699	-0.849841	0.975495
H	-0.239028	-0.539992	1.896209
H	-1.552734	-0.80286	0.899849
C	-0.213179	-1.795096	-1.610384
N	0.015522	-2.915415	-1.877437
N	0.046081	0.404321	-2.478908
H	0.012655	-0.141726	-3.33082
H	-0.526565	1.229771	-2.59958
Cl	-3.541474	0.0	0.0
