16

C	0.0	0.0	0.0
C	-0.472091	-0.233436	-1.50791
Cl	1.770285	0.0	0.0
H	0.464738	-0.327336	-2.064808
N	-0.295482	1.453061	0.518783
O	-0.66402	1.544778	1.682642
O	-0.05218	2.381572	-0.239952
N	-0.518647	-0.980763	0.844405
H	-1.544156	-0.898625	0.777227
H	-0.244144	-0.787934	1.800772
C	-1.158083	0.896786	-2.14991
N	-1.601993	1.747034	-2.826956
N	-1.234966	-1.438801	-1.746955
H	-0.799083	-2.196277	-1.233524
H	-2.16661	-1.289249	-1.357872
Cl	-3.45056	0.0	0.0
