16

C	0.0	0.0	0.0
C	-0.419573	0.441881	-1.451241
Cl	1.810105	0.0	0.0
H	0.442783	0.180224	-2.0689
N	-0.312113	1.06625	1.112329
O	-0.013041	2.229522	0.885424
O	-0.766212	0.628629	2.161394
N	-0.514671	-1.243589	0.319203
H	-0.53844	-1.373368	1.323444
H	-1.44763	-1.348789	-0.072018
C	-0.573519	1.901825	-1.637446
N	-0.700105	3.003814	-2.026668
N	-1.532627	-0.327228	-1.959899
H	-1.639049	-0.141507	-2.94947
H	-2.411026	-0.085065	-1.484229
Cl	-3.906172	0.0	0.0
