15

C	0.0	0.0	0.0
C	-0.335667	-0.041458	-1.515757
Cl	1.788699	0.0	0.0
H	0.455747	-0.64642	-1.971856
H	-0.303222	0.97267	0.400694
N	-0.533997	-1.138954	0.669918
H	-1.567718	-0.911929	0.527094
H	-0.350951	-1.031748	1.666452
C	-0.265993	1.370947	-2.102984
H	-0.397386	1.347585	-3.189264
H	-1.05996	1.975559	-1.656716
H	0.708685	1.814676	-1.877361
C	-1.556911	-0.711394	-1.978564
N	-2.304862	-1.405018	-2.562037
F	-2.689986	0.0	0.0
