15

C	0.0	0.0	0.0
C	-0.252678	-0.103091	-1.573848
Cl	1.795251	0.0	0.0
H	0.591524	0.392428	-2.060297
H	-0.307883	1.001421	0.3029
N	-0.638786	-0.936302	0.836325
H	-1.661097	-0.672987	0.690429
H	-0.493377	-1.872111	0.469898
C	-1.526177	0.512855	-2.161081
H	-1.488375	1.594362	-2.006892
H	-1.545423	0.317784	-3.23948
H	-2.40058	0.13893	-1.61989
C	-0.135435	-1.512133	-1.95246
N	-0.053746	-2.640349	-2.268305
F	-2.947568	0.0	0.0
