15

C	0.0	0.0	0.0
C	-0.529646	0.047098	-1.450126
Cl	1.788211	0.0	0.0
H	-1.622135	0.147662	-1.228467
H	-0.296087	0.940547	0.46452
N	-0.549059	-1.052441	0.797911
H	-1.573728	-0.839365	0.694741
H	-0.356253	-1.942615	0.350909
C	-0.262697	-1.220258	-2.256645
H	-0.669762	-1.119061	-3.265569
H	-0.76712	-2.064807	-1.783251
H	0.806928	-1.435599	-2.333713
C	-0.05034	1.224367	-2.160675
N	0.321967	2.168616	-2.754841
F	-2.817149	0.0	0.0
