15

C	0.0	0.0	0.0
C	-0.543122	-0.0702	-1.431425
Cl	1.78386	0.0	0.0
H	-1.637026	0.034576	-1.223342
H	-0.268086	0.987406	0.391711
N	-0.559413	-1.088047	0.74899
H	-0.335047	-0.940292	1.727966
H	-1.584929	-0.878032	0.62209
C	-0.247212	-1.396905	-2.126499
H	-0.733595	-1.426198	-3.104927
H	-0.637758	-2.204112	-1.508451
H	0.826952	-1.546313	-2.264409
C	-0.083416	1.059785	-2.227817
N	0.271142	1.957192	-2.899627
F	-2.837061	0.0	0.0
