15

C	0.0	0.0	0.0
C	-0.303193	0.025217	-1.563928
Cl	1.795603	0.0	0.0
H	0.60792	0.367608	-2.067824
H	-0.306638	0.971404	0.387391
N	-0.617177	-0.997495	0.785329
H	-0.47115	-1.905162	0.354391
H	-1.641322	-0.736935	0.661762
C	-1.443603	0.945587	-2.01823
H	-2.360779	0.635508	-1.50384
H	-1.513627	0.914491	-3.1112
H	-1.197181	1.974066	-1.71751
C	-0.482802	-1.350517	-2.030074
N	-0.557816	-2.465361	-2.392875
F	-2.907593	0.0	0.0
