20

C	-0.563904	0.003515	-1.411085
C	0.0	0.0	0.0
Br	0.444584	1.245642	-2.556273
H	1.094298	0.0	0.0
N	-0.346936	-1.389351	-1.996214
O	-1.340768	-2.121941	-2.029501
O	0.784245	-1.727716	-2.308678
C	-2.033154	0.36112	-1.540718
H	-2.631408	-0.267171	-0.87885
H	-2.381332	0.222651	-2.565347
H	-2.166448	1.406094	-1.262411
C	-0.411105	-1.2522	0.772807
H	-1.496199	-1.402745	0.852794
H	0.038912	-2.147421	0.337502
H	-0.000178	-1.158662	1.781452
C	-0.414465	1.257986	0.756526
H	-0.202247	2.158803	0.174228
H	0.201889	1.312413	1.657594
H	-1.471734	1.268869	1.054928
F	2.621899	0.0	0.0
