20

C	-0.494304	0.003804	-1.440207
C	0.0	0.0	0.0
Br	0.486945	1.341459	-2.499857
H	1.094296	0.0	0.0
N	-0.142667	-1.354039	-2.043201
O	1.024824	-1.599621	-2.301253
O	-1.077408	-2.155165	-2.14905
C	-1.974047	0.262636	-1.651722
H	-2.565992	-0.430795	-1.052852
H	-2.199546	1.285288	-1.350519
H	-2.244969	0.137765	-2.701305
C	-0.418642	-1.272929	0.733652
H	-0.060716	-1.188729	1.76347
H	0.070605	-2.150902	0.306466
H	-1.502935	-1.447378	0.759004
C	-0.474459	1.237511	0.74925
H	-1.54965	1.227418	0.976554
H	0.075145	1.28537	1.693338
H	-0.23988	2.151332	0.197477
F	2.623877	0.0	0.0
