20

C	-0.453601	-0.006067	-1.456736
C	0.0	0.0	0.0
Br	0.522547	1.363563	-2.484622
H	1.094293	0.0	0.0
N	-0.031463	-1.345628	-2.061165
O	1.160849	-1.584842	-2.164408
O	-0.943262	-2.134586	-2.339825
C	-1.93073	0.205475	-1.723339
H	-2.151206	0.105179	-2.78666
H	-2.520469	-0.53202	-1.176827
H	-2.208999	1.207763	-1.398606
C	-0.456628	-1.270525	0.714984
H	-1.547491	-1.402336	0.735997
H	-0.101369	-1.216932	1.747663
H	-0.002915	-2.161647	0.275627
C	-0.500124	1.236575	0.73115
H	-1.586271	1.232927	0.899402
H	-0.006007	1.275311	1.705885
H	-0.23013	2.151278	0.198028
F	2.625973	0.0	0.0
