14

C	-0.074848	-0.008023	-1.510368
C	0.0	0.0	0.0
Cl	-1.736254	-0.444754	-2.159888
H	1.096918	0.0	0.0
H	0.098975	1.004268	-1.885793
H	-0.353525	-0.964023	0.385665
N	0.924126	-0.878954	-2.107332
H	0.705844	-1.824611	-1.800748
H	1.78248	-0.626416	-1.576689
C	-0.653222	1.179903	0.687731
H	-1.739619	1.201678	0.541451
H	-0.239851	2.117472	0.301929
H	-0.4547	1.159976	1.763582
F	2.746077	0.0	0.0
