14

C	-0.514322	-0.004654	-1.42323
C	0.0	0.0	0.0
Cl	-0.10601	1.542129	-2.261812
H	1.093999	0.0	0.0
H	0.021552	-0.772944	-1.984086
H	-0.310441	-0.974498	0.414122
N	-1.950148	-0.215332	-1.630148
H	-2.442538	0.522196	-1.135248
H	-2.179976	-1.083712	-1.154362
C	-0.532178	1.12008	0.881575
H	-0.18144	2.087143	0.515959
H	-0.133345	0.995981	1.891564
H	-1.628093	1.156145	0.957479
F	2.7162	0.0	0.0
