17

C	-0.485549	0.069506	-1.441385
C	0.0	0.0	0.0
F	-0.398679	-1.202229	-2.037795
H	1.096853	0.0	0.0
H	-1.555084	0.327489	-1.447781
C	0.318979	1.040678	-2.271597
H	0.221279	2.040263	-1.846836
H	-0.033935	1.046203	-3.306847
H	1.37197	0.75248	-2.239151
C	-0.502163	-1.246	0.716229
H	-0.143132	-1.243831	1.749039
H	-1.600435	-1.274521	0.726969
H	-0.13949	-2.151634	0.229225
N	-0.42311	1.25574	0.642176
H	-1.304757	1.108405	1.125031
H	0.270005	1.50944	1.337253
Cl	3.60866	0.0	0.0
