17

C	-0.392217	-0.007233	-1.46576
C	0.0	0.0	0.0
F	-1.769581	-0.25783	-1.620433
H	1.104138	0.0	0.0
H	-0.227475	0.99732	-1.875196
C	0.378412	-1.022267	-2.281113
H	0.126212	-0.927383	-3.340475
H	1.450941	-0.867992	-2.139735
H	0.127467	-2.035875	-1.96142
C	-0.514827	-1.217554	0.747618
H	-1.606962	-1.217586	0.75758
H	-0.155427	-2.144977	0.298639
H	-0.149589	-1.197724	1.77859
N	-0.539923	1.215334	0.643168
H	-0.279586	1.168418	1.624174
H	-0.012529	2.003029	0.275418
Cl	3.585676	0.0	0.0
