17

C	-0.477857	-0.019513	-1.440309
C	0.0	0.0	0.0
F	-0.099763	1.194134	-2.043583
H	1.102848	0.0	0.0
H	0.059329	-0.806143	-1.980642
C	-1.976472	-0.152222	-1.618014
H	-2.237143	0.018631	-2.665314
H	-2.316491	-1.151562	-1.337799
H	-2.483256	0.583659	-0.993157
C	-0.458573	-1.243546	0.747809
H	-1.539989	-1.23277	0.909227
H	0.037101	-1.286986	1.721312
H	-0.17888	-2.151852	0.205987
N	-0.547387	1.198984	0.660238
H	-0.136046	1.2331	1.588237
H	-0.157451	1.99656	0.167225
Cl	3.61686	0.0	0.0
