17

C	-0.357725	-0.042023	-1.47593
C	0.0	0.0	0.0
F	-1.768825	-0.015799	-1.626476
H	1.097547	0.0	0.0
H	-0.000882	0.887314	-1.934452
C	0.190405	-1.233155	-2.223572
H	0.005038	-1.134743	-3.296148
H	1.266674	-1.292586	-2.045318
H	-0.281314	-2.153961	-1.876276
C	-0.519437	-1.204196	0.771414
H	-0.081477	-2.137546	0.41122
H	-0.248924	-1.082165	1.820536
H	-1.609762	-1.273663	0.697821
N	-0.471247	1.231144	0.645932
H	-1.386309	1.462674	0.27046
H	0.163304	1.984959	0.406021
Cl	3.549649	0.0	0.0
