17

C	-0.424958	0.00446	-1.467786
C	0.0	0.0	0.0
F	-0.038116	1.23055	-2.03538
H	1.096826	0.0	0.0
H	0.13612	-0.771549	-2.00098
C	-1.911713	-0.142326	-1.732251
H	-2.277243	-1.123838	-1.420989
H	-2.106386	-0.021156	-2.800423
H	-2.475596	0.629729	-1.200745
C	-0.470367	-1.265845	0.701233
H	-0.19959	-2.161157	0.133296
H	0.012101	-1.321868	1.677298
H	-1.555977	-1.265061	0.854129
N	-0.440911	1.172241	0.753338
H	-1.439964	1.314418	0.631665
H	0.033692	1.984781	0.375128
Cl	3.61971	0.0	0.0
