15

C	-0.39186	-0.015851	-1.45476
C	0.0	0.0	0.0
Cl	-0.174949	1.60915	-2.14381
H	1.096301	0.0	0.0
C	0.395205	-0.954929	-2.252183
N	1.018796	-1.651693	-2.964172
N	-1.893953	-0.358445	-1.662396
O	-2.648359	-0.028274	-0.76187
O	-2.198395	-0.863423	-2.733529
N	-0.362186	-1.234817	0.641966
O	-0.612284	-2.202562	-0.103345
O	-0.245896	-1.29207	1.872796
C	-0.426729	1.145561	0.75796
N	-0.678124	2.109997	1.382644
H	2.306198	0.0	0.0
