15

C	-0.479159	-0.045656	-1.447588
C	0.0	0.0	0.0
Cl	0.465095	-1.155056	-2.450769
H	1.090963	0.0	0.0
C	-1.900316	-0.347318	-1.582237
N	-3.049811	-0.571035	-1.69837
N	-0.251449	1.390018	-2.011311
O	0.882249	1.668219	-2.36448
O	-1.228133	2.130629	-1.992763
N	-0.374428	-1.179116	0.74632
O	-0.655412	-2.209132	0.109064
O	-0.211202	-1.120355	1.974529
C	-0.416381	1.191723	0.696067
N	-0.707362	2.173346	1.277569
H	2.308271	0.0	0.0
