15

C	-0.524919	0.053164	-1.421314
C	0.0	0.0	0.0
Cl	-2.298096	-0.111744	-1.511193
H	1.09509	0.0	0.0
C	-0.147282	1.324183	-2.034354
N	0.120276	2.347796	-2.547425
N	0.135265	-1.037972	-2.328079
O	1.331149	-0.850579	-2.492243
O	-0.557608	-1.921265	-2.792546
N	-0.326951	-1.22428	0.680058
O	-0.458336	-1.185461	1.913359
O	-0.26279	-2.260423	-0.002812
C	-0.438229	1.159139	0.738706
N	-0.758843	2.152951	1.281512
H	2.304455	0.0	0.0
