15

C	-0.540872	0.033674	-1.415315
C	0.0	0.0	0.0
Cl	-2.316128	-0.140491	-1.48069
H	1.095138	0.0	0.0
C	-0.181317	1.300983	-2.045429
N	0.071454	2.323497	-2.567671
N	0.123099	-1.058848	-2.320665
O	1.316464	-0.857635	-2.497738
O	-0.565944	-1.951262	-2.774098
N	-0.320404	-1.216567	0.69361
O	-0.270962	-2.258244	0.019272
O	-0.43093	-1.168787	1.926593
C	-0.43456	1.167019	0.728569
N	-0.751817	2.164937	1.265387
H	2.303319	0.0	0.0
