15

C	-0.392955	0.036082	-1.453285
C	0.0	0.0	0.0
Cl	-0.088182	1.66304	-2.10176
H	1.095683	0.0	0.0
C	0.342978	-0.924654	-2.272723
N	0.962641	-1.622756	-2.986133
N	-1.910444	-0.224701	-1.677024
O	-2.235474	-0.587835	-2.797973
O	-2.651623	0.027771	-0.741442
N	-0.377283	-1.247626	0.608536
O	-0.696828	-2.178115	-0.155662
O	-0.216448	-1.351226	1.83107
C	-0.42029	1.129358	0.786231
N	-0.695261	2.093997	1.400117
H	2.311335	0.0	0.0
