12

C	0.0	0.0	0.0
C	-0.263194	0.215163	-1.507064
Cl	1.762557	0.0	0.0
H	0.219244	1.165697	-1.747443
H	-0.415289	-0.89962	0.438384
H	0.33092	-0.558806	-2.00308
N	-0.413526	1.160429	0.865717
O	-0.485633	2.261592	0.336383
O	-0.533086	0.912447	2.05833
C	-1.546706	0.217386	-2.218744
N	-2.201367	0.263838	-3.199211
Br	-3.284267	0.0	0.0
