12

C	0.0	0.0	0.0
C	-0.519639	0.380742	-1.387154
Cl	1.762557	0.0	0.0
H	-1.406942	1.003593	-1.266904
H	-0.387128	-0.937913	0.384398
H	0.252699	0.935459	-1.924942
N	-0.371622	1.057925	1.01731
O	-0.430784	2.215113	0.620424
O	-0.474427	0.677191	2.175361
C	-0.895883	-0.790397	-2.171572
N	-1.168877	-1.699908	-2.860721
Br	-3.406051	0.0	0.0
