16

C	0.0	0.0	0.0
C	-0.651842	-0.031658	-1.368154
Br	1.955488	0.0	0.0
H	-1.755719	-0.058187	-1.050201
H	-0.282776	0.947585	0.464576
C	-0.480342	-1.151754	0.859838
H	-1.578387	-1.068876	0.874772
H	-0.083359	-1.075942	1.875487
H	-0.174773	-2.110379	0.432327
C	-0.331236	-1.246464	-2.097352
N	-0.087208	-2.221135	-2.709019
C	-0.407679	1.215687	-2.21011
H	-0.950061	1.148804	-3.156806
H	-0.788104	2.084938	-1.666307
H	0.655149	1.362916	-2.421014
H	-3.131928	0.0	0.0
