16

C	0.0	0.0	0.0
C	-0.347867	0.039733	-1.517678
Br	1.957405	0.0	0.0
H	0.362666	-0.631475	-2.014747
H	-0.299095	0.93269	0.479531
C	-0.599911	-1.185232	0.716383
H	-0.327499	-2.124379	0.227492
H	-1.692747	-1.056632	0.698312
H	-0.261261	-1.219552	1.754461
C	-0.055355	1.378079	-2.042358
N	0.175114	2.443051	-2.481609
C	-1.766372	-0.404994	-1.889807
H	-1.962473	-0.143683	-2.934311
H	-1.83548	-1.491777	-1.793507
H	-2.561157	0.002534	-1.237216
H	-3.924949	0.0	0.0
