16

C	-0.498729	0.083271	-1.440665
C	0.0	0.0	0.0
Cl	-0.084783	1.73444	-2.050123
H	1.091577	0.0	0.0
H	-0.363849	0.85264	0.585007
N	0.15566	-0.875726	-2.30635
H	1.1603	-0.737032	-2.215642
H	-0.029206	-1.787851	-1.893644
C	-2.003841	-0.081727	-1.541975
H	-2.51364	0.679971	-0.946554
H	-2.277233	-1.069836	-1.167664
H	-2.311637	0.007689	-2.58478
N	-0.412239	-1.303854	0.557342
H	-1.140862	-1.188203	1.246183
H	0.386872	-1.705961	1.026545
Br	3.645511	0.0	0.0
