16

C	-0.580001	0.016043	-1.408981
C	0.0	0.0	0.0
Cl	-0.144659	1.676358	-2.114352
H	1.091572	0.0	0.0
H	-0.32436	0.909628	0.518398
N	-0.025625	-1.010396	-2.209504
H	-0.713686	-1.514364	-2.746221
H	0.544941	-1.640833	-1.661902
C	-2.098008	-0.012989	-1.395199
H	-2.424658	-0.949865	-0.938758
H	-2.500686	0.832748	-0.835608
H	-2.485368	0.043964	-2.415364
N	-0.423014	-1.232532	0.686046
H	-1.18153	-1.046036	1.329246
H	0.361655	-1.571471	1.229722
Br	3.690108	0.0	0.0
