16

C	-0.443981	-0.049199	-1.459675
C	0.0	0.0	0.0
Cl	-0.162867	1.592875	-2.186787
H	1.101701	0.0	0.0
H	-0.315271	-0.96022	0.431685
N	0.362496	-0.975575	-2.231513
H	0.188353	-1.907531	-1.866291
H	1.343741	-0.77126	-2.039608
C	-1.917131	-0.3642	-1.617136
H	-2.108773	-1.374545	-1.238454
H	-2.200852	-0.322407	-2.669487
H	-2.508505	0.34201	-1.035001
N	-0.636007	1.070798	0.771677
H	-0.383547	0.930287	1.743992
H	-0.190589	1.939945	0.496897
Br	3.692523	0.0	0.0
