16

C	-0.447927	0.035175	-1.46464
C	0.0	0.0	0.0
Cl	0.103387	-1.56349	-2.24517
H	1.092624	0.0	0.0
H	-0.330462	0.954322	0.426666
N	-1.866681	0.169531	-1.58256
H	-2.316875	-0.629389	-1.151592
H	-2.131419	0.172187	-2.561153
C	0.270241	1.138654	-2.209119
H	0.023875	1.120765	-3.274674
H	1.347395	1.021846	-2.082465
H	-0.040155	2.099225	-1.78979
N	-0.494865	-1.075729	0.839026
H	-0.108695	-1.955368	0.522259
H	-1.505006	-1.132265	0.818451
Br	3.773455	0.0	0.0
