19

C	-0.31199	-0.071006	-1.449563
C	0.0	0.0	0.0
F	-0.205593	-1.319292	-1.954407
H	1.10481	0.0	0.0
N	-1.726115	0.358528	-1.90599
O	-1.859536	0.721782	-3.07141
O	-2.632807	0.215306	-1.090585
N	0.613714	0.817054	-2.280308
O	1.370092	0.270763	-3.06402
O	0.494431	2.020681	-2.085502
C	-0.456595	-1.241382	0.75477
H	-0.044025	-2.145643	0.305909
H	-0.049573	-1.17362	1.767229
H	-1.546489	-1.331995	0.820852
C	-0.427509	1.282221	0.702325
H	0.097469	1.310485	1.660778
H	-0.121803	2.167346	0.146759
H	-1.506104	1.328002	0.888288
F	2.571973	0.0	0.0
