19

C	-0.328922	0.02771	-1.446028
C	0.0	0.0	0.0
F	-0.209236	1.255745	-1.9939
H	1.097239	0.0	0.0
N	0.566775	-0.903951	-2.259491
O	0.40759	-2.09967	-2.042713
O	1.341904	-0.397278	-3.051256
N	-1.756997	-0.395884	-1.871704
O	-2.645688	-0.273076	-1.033675
O	-1.915056	-0.734896	-3.041539
C	-0.414536	-1.261569	0.74855
H	-1.489492	-1.305182	0.952418
H	-0.113475	-2.162649	0.216282
H	0.127117	-1.256676	1.697997
C	-0.451164	1.264213	0.720323
H	-1.540444	1.3606	0.786238
H	-0.041938	1.224003	1.733191
H	-0.035857	2.153453	0.24463
F	2.572404	0.0	0.0
