19

C	-0.378771	0.01856	-1.428952
C	0.0	0.0	0.0
F	0.168834	1.045508	-2.099481
H	1.099861	0.0	0.0
N	0.018019	-1.25812	-2.165044
O	1.026999	-1.226547	-2.849825
O	-0.725363	-2.220425	-1.986007
N	-1.889887	0.117235	-1.772031
O	-2.156436	0.306236	-2.955936
O	-2.703345	0.013825	-0.860668
C	-0.403969	-1.236647	0.789529
H	0.070304	-2.132307	0.385882
H	-1.483869	-1.396939	0.848503
H	-0.008759	-1.106014	1.800815
C	-0.408224	1.299467	0.690352
H	0.210563	1.396045	1.585889
H	-0.185631	2.165203	0.062383
H	-1.464603	1.325259	0.977008
F	2.573175	0.0	0.0
