19

C	-0.349275	0.040331	-1.441911
C	0.0	0.0	0.0
F	0.311253	-0.883999	-2.155301
H	1.096921	0.0	0.0
N	-1.840021	-0.181118	-1.798813
O	-2.080848	-0.683557	-2.892325
O	-2.67271	0.16134	-0.966214
N	-0.029194	1.39703	-2.074233
O	1.120487	1.550759	-2.457921
O	-0.938834	2.221747	-2.113912
C	-0.452652	-1.313149	0.622309
H	-0.165865	-2.15792	-0.008835
H	0.077039	-1.435246	1.569968
H	-1.531626	-1.35615	0.810637
C	-0.404724	1.227073	0.801574
H	0.074265	2.122699	0.397996
H	-0.001332	1.095304	1.809298
H	-1.482903	1.390959	0.864764
F	2.578118	0.0	0.0
