16
Coordinates from ORCA-job run
  C   0.70308109374031     -0.44036386352316     -0.18382361947890
  C   -0.73630020013972      0.07285414087190     -0.31386162003050
  Br  1.05154193965642     -1.71694470704293     -1.63306642496307
  H   -0.90872778620297      0.34815638095233     -1.36393266601736
  C   0.94547740187974     -1.08592038878819      1.10184043575180
  N   1.21840881734287     -1.53924664973643      2.15097337270210
  C   1.67661580961158      0.72813039502815     -0.35499622057539
  H   1.47829294964379      1.25003902228966     -1.29449980945423
  H   1.57743272654290      1.41346240997239      0.48863008667211
  H   2.69985971290323      0.35374145880805     -0.37756787802999
  N   -0.98262092442030      1.11924652454899      0.65083928235136
  H   -1.98485889099921      1.23555396508551      0.75428030763598
  H   -0.61101285297227      1.99656787604107      0.30858490566444
  N   -1.77540786021368     -0.99702412802691     -0.03887070628007
  O   -1.41487449822346     -2.13414424648890      0.23169973469392
  O   -2.93690743814923     -0.60610818999153     -0.12822918064223
