16
Coordinates from ORCA-job run
  C   0.72835990136346     -0.12899463712731      0.19248929936699
  C   -0.78772824537860      0.20072491526403      0.23393444571243
  Br  1.02188696545413     -2.04291844894795      0.53801240703925
  H   -0.87995329514713      1.28382858089948      0.12222543009368
  C   1.32659339694421      0.60025356615275      1.30795607406274
  N   1.80300830132451      1.23955045135231      2.17206282714849
  C   1.41567804187839      0.23898192467950     -1.11805835002835
  H   2.49062152364150      0.08261320712399     -1.02523507492927
  H   1.04015381714625     -0.37729760217538     -1.93409635421719
  H   1.22237623611826      1.28862714559938     -1.35234760914174
  N   -1.46062552852608     -0.23985629618921      1.36430385909639
  H   -1.98448954214429      0.40539335742002      1.92107209375241
  H   -1.29219473348880     -1.15914519619962      1.72669402346427
  N   -1.40711088301456     -0.33715644249957     -1.06707033785008
  O   -1.83351579030807     -1.48478230361030     -1.05337073067447
  O   -1.40406016586316      0.43117777825788     -2.02857200289554
