16
Coordinates from ORCA-job run
  C   0.70986706676015     -0.49673699870174     -0.26975033666016
  C   -0.82848149036532     -0.32561023350269     -0.32557936796501
  Br  1.24134606682482     -1.27374684340218     -1.99381038375208
  H   -1.28501786638245     -1.27018982270937     -0.62006789291578
  C   1.08386386125277     -1.46254320190986      0.75935664083670
  N   1.41220867019009     -2.20757871235595      1.60771740726939
  C   1.45972290416845      0.81588395484808     -0.07187620443044
  H   1.16089851412996      1.27684363393524      0.87198541026352
  H   2.53274082452749      0.62546920587424     -0.05033483176083
  H   1.24241510145988      1.48968305376733     -0.90056576927849
  N   -1.20851238192188      0.72921943941557     -1.18913577463060
  H   -1.06592584910581      1.62782104692558     -0.74487679625479
  H   -2.17700246604104      0.64459585326544     -1.46657572099864
  N   -1.31128482228459     -0.11162020829153      1.11706229982371
  O   -1.71822023469570     -1.09848013797246      1.72157011210608
  O   -1.24861789851683      1.03698997081428      1.55388120834743
