16
Coordinates from ORCA-job run
  C   0.71604622525469     -0.42613041285369     -0.17779409577119
  C   -0.73264519033335      0.05783860096758     -0.32354783961963
  Br  1.11221039722992     -1.68953372656901     -1.62660940620930
  H   -0.89917361804363      0.32559862621687     -1.37661473418269
  C   0.95359515233991     -1.07077000406241      1.10921099296641
  N   1.20769077437528     -1.51889247185998      2.16532996350985
  C   1.66629655703809      0.76349092164102     -0.33258624724681
  H   1.53858362068963      1.44482800191474      0.51032648367637
  H   1.47078432996562      1.28246048146691     -1.27433862830472
  H   2.69763065574766      0.41133024041039     -0.34075553148098
  N   -1.00739468138196      1.10425251638735      0.63305903120774
  H   -2.01211755043179      1.18716598255875      0.74377641376065
  H   -0.66872174968778      1.99038313934697      0.27957623710056
  N   -1.75273156908659     -1.03285076002582     -0.05480711407348
  O   -1.37049495297029     -2.16805934613150      0.19315304377575
  O   -2.92155840070542     -0.66111178940817     -0.12837856910853
