16
Coordinates from ORCA-job run
  C   0.73032831663675     -0.45352127321541     -0.29119256037392
  C   -0.81323496661684     -0.33391586420235     -0.40001031333818
  Br  1.43818330526746     -0.77774617455069     -2.09563142133543
  H   -1.23912504580926     -1.31344967492245     -0.62603473016690
  C   1.11259299127764     -1.62591380886251      0.49155252124037
  N   1.42916877703802     -2.55621171766399      1.13696226339109
  C   1.38692558215572      0.80426755892153      0.27401235395278
  H   2.46635922695248      0.66147233410302      0.32318443996174
  H   1.01965731415642      1.00821008727357      1.28241537625137
  H   1.18588287842538      1.66293240905801     -0.36867500343022
  N   -1.23394144151671      0.62726664449939     -1.33992413615588
  H   -2.23745224427911      0.60035310573592     -1.46018702581463
  H   -0.97111618767957      1.56366352620785     -1.06284210429609
  N   -1.30552544722780     -0.02735091530182      1.03636334179875
  O   -1.27695502779012     -0.95573705562412      1.83713025664375
  O   -1.68874803099046      1.11668081854404      1.26387674167141
