16
Coordinates from ORCA-job run
  C   0.63565998975805     -0.40707690802452     -0.19283371826910
  C   -0.79900316077705      0.16371311574750     -0.31816037266874
  Br  0.89702747706678     -1.81645212650778     -1.52970931455087
  H   -0.89523597064871      0.63229665039795     -1.29846233261451
  C   0.86796807607947     -0.97348620019284      1.13225438490896
  N   1.10371848303563     -1.33865190229397      2.22464274430853
  C   1.65240870642512      0.70265665796665     -0.45944885796953
  H   1.55104240102242      1.48800403489925      0.29290260308710
  H   1.49172028736521      1.12196247246271     -1.45474283923382
  H   2.66530910031549      0.30371219634553     -0.40618482656986
  N   -1.19298572262465      1.06995886859567      0.71058952980094
  H   -0.97490762561180      0.72970891326490      1.63865005069776
  H   -0.84244015020604      2.00446209351720      0.56563608780367
  N   -1.80350399659656     -0.95877403960775     -0.31295850950663
  O   -1.87875880764474     -1.59785687713744      0.73233803327764
  O   -2.47601908695864     -1.12317694943305     -1.32451266250153
