12
Coordinates from ORCA-job run
  C   -0.59770251904143      0.42666786197861     -0.19363494389145
  C   0.57195116830321     -0.47247055139718      0.15019375581128
  Br  -0.60356954485810      0.91467466313354     -2.04233872717392
  H   0.50426391778423     -0.77456735907832      1.19738407731367
  H   -0.58118549372060      1.33272513180366      0.40768006421674
  H   0.63763525365694     -1.33539521731069     -0.51012641226212
  N   -1.85687761088717     -0.32025456296316      0.21728952376006
  O   -2.57934864049904     -0.81613735827565     -0.63184673060681
  O   -2.00019452123698     -0.37754096756341      1.43579216510511
  N   1.85093900884205      0.28961175449532      0.01325411399769
  O   2.77477988776277     -0.27149795183847     -0.56478709423146
  O   1.87930909389414      1.40518455701576      0.52414020796122
