12
Coordinates from ORCA-job run
  C   -0.75108110740971      0.53151904524181      0.15470042100695
  C   0.61126863475396      0.19473482315647      0.71459483424159
  Br  -0.68189382658128      1.96500450190998     -1.11313733962331
  H   0.53317133524782     -0.66642856579258      1.37991701049578
  H   -1.40119758791175      0.84469594854358      0.97307678845314
  H   1.03742109937808      1.04660394685016      1.24038402143905
  N   -1.43271670612336     -0.71707435267139     -0.40070418854570
  O   -1.93234713136329     -0.69613849821147     -1.50932239846064
  O   -1.44780412897162     -1.64385480018793      0.40249159168743
  N   1.58137727146715     -0.18136665485573     -0.35774777736322
  O   2.74024649505119      0.18845186633465     -0.20760035029676
  O   1.14455565246279     -0.86714726031755     -1.27665261303432
