12
Coordinates from ORCA-job run
  C   -0.69356269779533      0.56988717241908      0.25104995211381
  C   0.60123552216666     -0.02962634853849      0.74929633825678
  Br  -0.41935525174088      2.21161409868964     -0.69507669842970
  H   1.09510884971463      0.63830752029889      1.45185866229559
  H   -1.33601020987393      0.78452147518505      1.10630068628301
  H   0.40262875725624     -0.99765716210498      1.21174264719679
  N   -1.48658738012736     -0.45395149059166     -0.55917801529702
  O   -1.92645068884490     -0.15647060695805     -1.65344306108880
  O   -1.64511774385484     -1.51130240674819      0.04170852931459
  N   1.56520997028084     -0.27741053669416     -0.36468935011923
  O   1.09556677091855     -0.73804159539071     -1.40068539189130
  O   2.74633410190031     -0.03887011956643     -0.13988429863452
