12
Coordinates from ORCA-job run
  C   -0.59358392639495      0.42212741162664     -0.01029331138034
  C   0.60304721502123     -0.50103641558155      0.01808192904618
  Br  -0.79035321019864      1.27497347018300     -1.72518170885257
  H   0.60200909878908     -1.20533583445163     -0.80827997637307
  H   -0.53358076762053      1.20026009778223      0.74591874259532
  H   0.64321640547523     -1.02926597631609      0.97426118796150
  N   -1.83739658617287     -0.37230216673895      0.27974112190468
  O   -1.88587945335771     -1.51349863252939     -0.16933809291592
  O   -2.70188649384875      0.19590822209842      0.93709162636706
  N   1.85360464128819      0.31250957427238     -0.06839043885857
  O   2.70716547866511     -0.05810379078255     -0.86649644892704
  O   1.93463759835462      1.27376404043748      0.69188536943278
