12
Coordinates from ORCA-job run
  C   -0.62905789826057      0.34229349386373     -0.13106476276400
  C   0.64614459173941     -0.41538362624529      0.16045399019073
  Br  -0.82693865361470      0.70041303508918     -2.01248527189216
  H   0.74769260236896     -1.30588828696416     -0.45238495479467
  H   -0.67617151704501      1.29089921473008      0.39708860398882
  H   0.69263427025404     -0.67038098697343      1.22235958974894
  N   -1.80523755265552     -0.47291463105158      0.33175502279817
  O   -2.74961485357023      0.15489362534859      0.79687727975466
  O   -1.72591184740603     -1.69028250618415      0.19732620778672
  N   1.81662836138129      0.47204213580869     -0.11337415417297
  O   2.73158516297737      0.00157713332916     -0.78009562838697
  O   1.77924733383099      1.59473139924918      0.38354407774276
