12
Coordinates from ORCA-job run
  C   -0.74143950903676      0.55249819660531      0.11799932938390
  C   0.59386638416322      0.19608374423813      0.72981677429078
  Br  -0.59555249851901      1.94615567081228     -1.18670948155843
  H   0.47205019247489     -0.65091536128615      1.40669310351556
  H   -1.40796148585262      0.90571677110990      0.90619069003968
  H   1.02241017455544      1.04810260993563      1.25334214281820
  N   -1.43758840854925     -0.69423164296543     -0.42406166509761
  O   -1.88783451786439     -0.69824958422244     -1.55389831477719
  O   -1.51440083455160     -1.59148487294769      0.40853405413543
  N   1.58675907299896     -0.22245240128548     -0.30461132801799
  O   2.74134166329673      0.15995556158014     -0.15253676213516
  O   1.16834976688440     -0.95017869157422     -1.19975854259714
