12
Coordinates from ORCA-job run
  C   -0.74350514288471      0.53018241607359      0.18789761117993
  C   0.62308406201008      0.15726624919067      0.71466789153443
  Br  -0.67810196159161      2.01150873914259     -1.02335588405072
  H   0.54434347993565     -0.73526859470316      1.33725981029101
  H   -1.37905521666939      0.81707057244650      1.02696589985157
  H   1.06245564435776      0.97962073899678      1.27532752741014
  N   -1.44434321205423     -0.68951077317544     -0.40711615221386
  O   -1.94503347547463     -0.62528070795766     -1.51371061400617
  O   -1.47024441175059     -1.64219167929320      0.36484405473020
  N   1.57443485358560     -0.17349273382301     -0.38833432153705
  O   2.72887604889049      0.21856577640745     -0.26152939249598
  O   1.12708933164557     -0.84647000330515     -1.31191643069351
