12
Coordinates from ORCA-job run
  C   -0.64028139442913      0.57313523814687      0.30471426689184
  C   0.73974495406759      0.52074393343163     -0.29416978276526
  Br  -1.54183628919714      2.16523984335334     -0.30706781235385
  H   0.70925240713844      0.45744178848335     -1.37915510106984
  H   -0.64740303735264      0.57222451775771      1.39073657167218
  H   1.32721545842660      1.38788745204298      0.01069112586608
  N   -1.45323986388850     -0.62555850559425     -0.11682020786269
  O   -1.16081175440968     -1.14864732067366     -1.18650479137096
  O   -2.34930537875802     -0.95924625449934      0.64622605467688
  N   1.48285580753052     -0.68928935284405      0.18834576726616
  O   2.53049947445631     -0.94052679502828     -0.39124533181469
  O   1.00330961641564     -1.31040454457629      1.13424924086415
