15

C	0.0	0.0	0.0
C	-0.490343	-0.053328	-1.437449
Br	1.953733	0.0	0.0
H	-1.579227	-0.165225	-1.294617
H	-0.251007	-0.958542	0.462634
N	-0.556218	1.157068	0.640589
H	-0.334763	1.127931	1.631092
H	-1.585291	0.98232	0.549344
N	0.010534	-1.241122	-2.111365
H	0.925785	-1.005352	-2.482922
H	-0.593378	-1.430286	-2.903165
N	-0.130217	1.189476	-2.132852
H	-0.891974	1.428386	-2.759546
H	-0.103301	1.920504	-1.426094
H	-3.124976	0.0	0.0
