15

C	0.0	0.0	0.0
C	-0.680936	0.107295	-1.342206
Br	2.018717	0.0	0.0
H	-1.750331	0.046113	-1.011548
H	-0.207086	-0.975092	0.441113
N	-0.446849	1.034287	0.821921
H	-0.025097	1.06579	1.735946
H	-0.412831	1.915618	0.328849
N	-0.391648	-0.986323	-2.260871
H	-1.083218	-1.711817	-2.108717
H	0.525587	-1.375153	-2.06726
N	-0.461646	1.433778	-1.90601
H	-1.318323	1.702323	-2.378762
H	0.266752	1.367236	-2.60853
H	-3.461733	0.0	0.0
