11
Coordinates from ORCA-job run
  C   -0.47202128626027     -0.50030467301976      0.37643004124437
  C   0.98376249666762     -0.06918897868686      0.33949016015167
  Br  -1.06309095472357     -0.76033775522901      2.19251827076011
  H   1.09547205889835      0.87636073475192      0.87247197077404
  H   -0.66558854548443     -1.41819725148508     -0.17464472501091
  H   1.59282625919217     -0.82528264453678      0.84049114922721
  N   -1.34232204016228      0.55507318946319     -0.26101506043248
  O   -1.05635887014157      1.72402353972496     -0.03041534912147
  O   -2.27018139287010      0.14338077106916     -0.94822605844889
  C   1.43084337900670      0.08443291931326     -1.04449675426861
  N   1.76765889587737      0.19004014863500     -2.16360364487503
