16

C	0.0	0.0	0.0
C	-0.456755	-0.127671	-1.481848
F	1.368591	0.0	0.0
H	-1.55468	-0.172745	-1.478593
N	-0.422518	1.224839	0.606981
H	-0.095283	2.029319	0.082823
H	-1.442306	1.224048	0.639304
N	-0.455638	-1.161507	0.686396
H	-1.468201	-1.222767	0.565551
H	-0.280131	-1.002575	1.673336
N	0.052571	-1.406918	-2.084257
O	1.206914	-1.412691	-2.50641
O	-0.72222	-2.357145	-2.08732
C	0.033047	0.996556	-2.266658
N	0.408133	1.933395	-2.866866
Br	-3.659119	0.0	0.0
