15

C	0.0	0.0	0.0
C	-0.486182	0.201803	-1.461552
Cl	1.789395	0.0	0.0
H	-1.584456	0.318527	-1.244339
C	-0.444109	1.104336	0.856274
N	-0.572313	2.038016	1.55892
C	-0.456985	-1.284261	0.542161
N	-0.639548	-2.351756	0.999418
C	-0.227746	-1.022818	-2.331839
H	0.829248	-1.29999	-2.353676
H	-0.551153	-0.818914	-3.355141
H	-0.81335	-1.860029	-1.949533
C	0.108588	1.398649	-2.031936
N	0.555313	2.358636	-2.545353
F	-2.497753	0.0	0.0
