15

C	0.0	0.0	0.0
C	-0.409057	-0.093635	-1.523576
Cl	1.773376	0.0	0.0
H	0.508284	-0.351568	-2.066523
C	-0.463969	1.232976	0.637756
N	-0.572313	2.288141	1.146193
C	-0.434829	-1.16905	0.768474
N	-0.542419	-2.151122	1.405336
C	-0.935571	1.232248	-2.069725
H	-1.130309	1.124132	-3.140714
H	-1.856865	1.452185	-1.534932
H	-0.19954	2.026776	-1.926841
C	-1.345657	-1.179085	-1.81675
N	-1.937584	-2.078972	-2.286191
F	-2.305184	0.0	0.0
