15

C	0.0	0.0	0.0
C	-0.483605	0.103396	-1.475107
Cl	1.786419	0.0	0.0
H	-1.579734	0.241982	-1.277457
C	-0.443919	1.165818	0.771905
N	-0.58151	2.150008	1.399611
C	-0.466295	-1.24284	0.619558
N	-0.602489	-2.298459	1.119612
C	-0.238182	-1.178884	-2.261204
H	-0.816131	-1.98812	-1.810177
H	-0.58464	-1.045765	-3.289761
H	0.81965	-1.456719	-2.285411
C	0.111032	1.25989	-2.126252
N	0.557703	2.178043	-2.709647
F	-2.491936	0.0	0.0
