16
Coordinates from ORCA-job run
  C   -0.61439513035224     -0.68970377877268     -0.06560990927986
  C   0.84632572885302     -0.24105460109103     -0.23480446338240
  H   -0.70254520458769     -1.75352739711403     -0.29499814482378
  H   1.13633095362528     -0.45953307149315     -1.26755936711069
  N   -1.38117765186453     -0.00417546993814     -1.21570948822211
  O   -2.17073698859902      0.88951763784411     -0.92265543035901
  O   -1.11461125115715     -0.39129870894518     -2.34927333668763
  N   -1.13188541626117     -0.41106698502182      1.21769528698268
  H   -2.01134022099481     -0.88392952066201      1.37503399199809
  H   -1.27211360934379      0.58063758568987      1.35690859926590
  C   1.68369896556164     -1.05534198661755      0.64693812863406
  N   2.37215795886985     -1.69862569102861      1.34701381432786
  C   1.04534801695296      1.25039806318008      0.04989757675344
  H   0.82674379170290      1.48033731902368      1.09391192745643
  H   2.08237442030474      1.52926608013958     -0.14194484890697
  H   0.40582563729000      1.85710052480688     -0.59484433664600
