16
Coordinates from ORCA-job run
  C   -0.68255074942239     -0.62310622374513     -0.15947956354244
  C   0.70774115288223     -0.19060906508677      0.36387510255841
  H   -0.55196096348934     -1.47400648357341     -0.82944983267171
  H   1.14029964354034     -1.09617918983319      0.80788205227280
  N   -1.19080380455111      0.48766505524620     -1.03942136246783
  O   -1.07418347110987      0.34625707187512     -2.25424755410848
  O   -1.64016734307383      1.47184990929040     -0.45987910928068
  N   -1.69388204669564     -0.91330258230490      0.80660160355027
  H   -1.55829744451346     -1.82607518727233      1.21750371892358
  H   -1.73708882050360     -0.20536514154697      1.52933266022908
  C   0.56874110178893      0.78322489736825      1.44879484895862
  N   0.46162083524443      1.54762499252263      2.33396714341460
  C   1.63858823982144      0.32719102608791     -0.73663718418031
  H   2.64585450544451      0.46925480385576     -0.34278669168276
  H   1.68100225899084     -0.38564782482982     -1.56238471363663
  H   1.28608690564654      1.28322394194626     -1.12567111833652
