16
Coordinates from ORCA-job run
  C   -0.66285551653293     -0.09250295589419     -0.33802346335616
  C   0.55356690161562      0.37513846095410      0.45556488210612
  H   -0.57941253982715      0.22516761726065     -1.38774452707803
  H   0.31057491214472      0.28232278691231      1.51728187385846
  N   -1.91770422569577      0.60333878740533      0.14861496610572
  O   -2.93146284685370      0.33883113805062     -0.49288822816188
  O   -1.85306007796087      1.34543658323353      1.12180160876374
  N   -0.91337451547786     -1.50318910385522     -0.14320002458088
  H   -0.19086379565776     -2.04211766064759     -0.60445426497136
  H   -1.79441020822447     -1.73564630295691     -0.58941432225167
  C   0.81176405824795      1.78593661296698      0.15705200834255
  N   1.05745393009585      2.89747578149355     -0.12982881688830
  C   1.79260917370302     -0.46617044223211      0.12706514624403
  H   1.65941271264264     -1.48743053845043      0.48526469613839
  H   2.66979656857900     -0.04849548796574      0.62232491455655
  H   1.98796546920171     -0.47709527627489     -0.94841644882727
