16
Coordinates from ORCA-job run
  C   -0.68228820711237     -0.61420746914381     -0.19024501060353
  C   0.69095022986302     -0.19995066817641      0.39026372138028
  H   -0.53436327031077     -1.46172241507360     -0.86093422383714
  H   1.09554838195762     -1.11290205148985      0.84534052844067
  N   -1.14378491041450      0.50798160528552     -1.08172727974694
  O   -1.60760791926915      1.49217451348200     -0.51392937118501
  O   -0.97815904007369      0.37446795904735     -2.29174416598510
  N   -1.73307279875751     -0.90050971725892      0.73357915673365
  H   -1.79607076427824     -0.19967920124547      1.46165333092503
  H   -1.62617750474404     -1.81947867694825      1.13897836263878
  C   0.51833492988411      0.76864314258760      1.47500878302138
  N   0.38168222716787      1.52745822688481      2.36094573197194
  C   1.67055751117005      0.31358174199651     -0.66898346177129
  H   2.66236777423291      0.44405374944451     -0.23393256072477
  H   1.34350277894838      1.27456820725381     -1.06789171067461
  H   1.73958058173631     -0.39647894664581     -1.49538183058333
