15

C	0.0	0.0	0.0
C	-0.462864	-0.251782	-1.414261
F	1.358915	0.0	0.0
H	-0.047473	0.565455	-2.00954
H	0.063143	-1.167525	-1.709826
N	-0.381051	1.39424	0.512507
O	-0.312522	1.552676	1.726359
O	-0.61941	2.251505	-0.327732
C	-0.476655	-0.993145	0.967723
N	-0.819434	-1.858524	1.682707
C	-1.963639	-0.397925	-1.613948
H	-2.159826	-0.543212	-2.679714
H	-2.538409	0.462225	-1.277963
H	-2.372784	-1.253274	-1.077736
Cl	-4.955798	0.0	0.0
