15

C	0.0	0.0	0.0
C	-0.508305	-0.210337	-1.401731
F	1.355533	0.0	0.0
H	0.024087	0.511508	-2.026218
H	-1.574192	0.026381	-1.393327
N	-0.356874	1.391911	0.530737
O	-0.443023	1.5145	1.746435
O	-0.394518	2.291882	-0.298272
C	-0.439699	-1.009263	0.974002
N	-0.579106	-1.906516	1.718903
C	-0.277297	-1.644216	-1.864975
H	0.760268	-1.959993	-1.725798
H	-0.51899	-1.729315	-2.92688
H	-0.931774	-2.326434	-1.319504
Cl	-3.461517	0.0	0.0
