15

C	0.0	0.0	0.0
C	-0.526537	-0.474757	-1.328578
F	1.35899	0.0	0.0
H	0.092344	-1.343479	-1.581478
H	-0.301911	0.310022	-2.054655
N	-0.384535	1.455321	0.313044
O	-0.774415	2.153515	-0.612983
O	-0.158819	1.815838	1.463013
C	-0.43242	-0.83242	1.133993
N	-0.635458	-1.570408	2.024798
C	-2.004708	-0.839648	-1.311128
H	-2.662257	-0.077746	-0.891321
H	-2.34561	-1.020985	-2.331235
H	-2.178383	-1.746084	-0.731
Cl	-5.037771	0.0	0.0
