15

C	0.0	0.0	0.0
C	-0.506526	-0.025888	-1.418646
F	1.35574	0.0	0.0
H	-0.000656	0.794848	-1.934046
H	-1.580734	0.171887	-1.37869
N	-0.36186	1.306855	0.709875
O	-0.498	1.259655	1.926383
O	-0.35717	2.313787	0.012625
C	-0.439408	-1.133166	0.827592
N	-0.586603	-2.13362	1.424807
C	-0.223613	-1.369233	-2.082009
H	-0.827468	-2.155766	-1.624803
H	-0.491388	-1.316982	-3.139705
H	0.832308	-1.646624	-2.0117
Cl	-3.478528	0.0	0.0
