15

C	0.0	0.0	0.0
C	-0.537051	0.124434	-1.408795
F	1.349404	0.0	0.0
H	-1.628556	0.084384	-1.321852
H	-0.205129	-0.801163	-1.894149
N	-0.37705	1.148182	0.937258
O	-0.683225	0.863242	2.087236
O	-0.234771	2.276519	0.481747
C	-0.431516	-1.262632	0.627372
N	-0.578613	-2.347591	1.052219
C	-0.059504	1.328489	-2.213502
H	-0.592489	2.231611	-1.929122
H	1.011931	1.50514	-2.09404
H	-0.254236	1.136648	-3.271953
Cl	-3.569952	0.0	0.0
