15

C	0.0	0.0	0.0
C	-0.535297	-0.070992	-1.404224
F	1.358608	0.0	0.0
H	-0.175123	0.8229	-1.919338
H	-0.039247	-0.937694	-1.855596
N	-0.372313	1.315754	0.698823
O	-0.410744	1.288663	1.923698
O	-0.488644	2.301568	-0.01767
C	-0.442748	-1.116259	0.84836
N	-0.713184	-2.080876	1.460782
C	-2.051962	-0.200883	-1.469454
H	-2.584149	0.62157	-0.994969
H	-2.417139	-1.104889	-0.982643
H	-2.371264	-0.235029	-2.51244
Cl	-5.110916	0.0	0.0
