16

C	0.0	0.0	0.0
C	-0.541567	-0.405347	-1.371588
Cl	1.790833	0.0	0.0
H	-1.63199	-0.474202	-1.223011
H	-0.317729	1.027324	0.188672
C	-0.482188	-0.915279	1.107811
H	-1.574418	-0.919997	1.096965
H	-0.130565	-0.553569	2.076522
H	-0.0997	-1.927898	0.956583
C	-0.042868	-1.723924	-1.76437
N	0.363452	-2.768616	-2.117143
C	-0.259678	0.629545	-2.461114
H	-0.755832	1.565126	-2.192909
H	-0.662876	0.294928	-3.41902
H	0.812042	0.80692	-2.572896
Br	-3.845519	0.0	0.0
