16

C	0.0	0.0	0.0
C	-0.433145	-0.093622	-1.474256
Cl	1.794259	0.0	0.0
H	0.066238	-0.974703	-1.895335
H	-0.298199	0.971536	0.40016
C	-0.556052	-1.118656	0.854136
H	-1.643539	-1.024584	0.917001
H	-0.300603	-2.092981	0.429131
H	-0.144429	-1.062114	1.863558
C	0.064107	1.072686	-2.21021
N	0.43081	2.039749	-2.766851
C	-1.94705	-0.224746	-1.654772
H	-2.307282	-1.174883	-1.265266
H	-2.20281	-0.172928	-2.715367
H	-2.507738	0.548573	-1.13145
Br	-5.003241	0.0	0.0
