16

C	0.0	0.0	0.0
C	-0.414624	-0.410566	-1.426917
Cl	1.792719	0.0	0.0
H	0.09168	-1.3613	-1.638249
H	-0.300525	1.035185	0.17476
C	-0.577623	-0.903148	1.065147
H	-1.664073	-0.777666	1.090415
H	-0.17144	-0.64293	2.044224
H	-0.33923	-1.949423	0.85712
C	0.105208	0.55892	-2.397453
N	0.493314	1.322872	-3.19927
C	-1.92397	-0.575292	-1.609664
H	-2.152816	-0.745359	-2.663083
H	-2.488438	0.291409	-1.272217
H	-2.305731	-1.417322	-1.037238
Br	-4.933626	0.0	0.0
