16

C	0.0	0.0	0.0
C	-0.415902	0.011468	-1.483633
Cl	1.793992	0.0	0.0
H	0.128738	-0.809342	-1.967961
H	-0.301675	0.93925	0.46829
C	-0.559887	-1.178322	0.765233
H	-0.306853	-2.118187	0.267766
H	-0.152784	-1.200172	1.777801
H	-1.647774	-1.084044	0.828277
C	0.050186	1.248746	-2.121545
N	0.386151	2.2254	-2.680894
C	-1.918044	-0.163172	-1.711429
H	-2.521809	0.554682	-1.158242
H	-2.251433	-1.148944	-1.390707
H	-2.144761	-0.055814	-2.774493
Br	-4.943557	0.0	0.0
