18

C	-0.341389	0.01536	-1.506721
C	0.0	0.0	0.0
Cl	-2.153861	0.113911	-1.753111
H	1.098211	0.0	0.0
C	0.316008	1.167923	-2.251746
H	-0.112811	2.113927	-1.920201
H	1.386352	1.148814	-2.021404
H	0.160851	1.071912	-3.327997
C	0.05102	-1.26359	-2.106109
N	0.352124	-2.290414	-2.592056
N	-0.461261	-1.185004	0.702368
H	-1.428057	-1.38737	0.468524
H	0.110395	-1.979855	0.440519
C	-0.471746	1.250049	0.726303
H	-0.038077	2.15834	0.30448
H	-0.13485	1.164417	1.759751
H	-1.562625	1.336507	0.720947
Cl	3.424691	0.0	0.0
