18

C	-0.464953	-0.037374	-1.48465
C	0.0	0.0	0.0
Cl	0.21132	-1.507568	-2.280392
H	1.095657	0.0	0.0
C	-1.981977	-0.081965	-1.660529
H	-2.392858	-0.959622	-1.158563
H	-2.436337	0.820172	-1.245449
H	-2.23621	-0.14862	-2.719689
C	0.042247	1.124544	-2.217954
N	0.382897	2.087048	-2.799209
N	-0.39794	-1.163754	0.776372
H	0.214028	-1.937244	0.555047
H	-1.354377	-1.439746	0.599058
C	-0.498626	1.264681	0.687877
H	0.007603	1.329304	1.651566
H	-0.263721	2.166079	0.117203
H	-1.577874	1.227551	0.874356
Cl	3.445945	0.0	0.0
