18

C	-0.363377	-0.049445	-1.51268
C	0.0	0.0	0.0
Cl	0.018105	1.521826	-2.317415
H	1.096913	0.0	0.0
C	0.445492	-1.129211	-2.225116
H	1.503315	-0.947462	-2.016154
H	0.261744	-1.102557	-3.300532
H	0.166359	-2.11428	-1.845688
C	-1.803402	-0.268539	-1.67712
N	-2.955231	-0.491975	-1.753853
N	-0.407693	-1.224826	0.681143
H	0.240157	-1.974161	0.480854
H	-1.350484	-1.509208	0.439469
C	-0.579153	1.19665	0.730557
H	-1.675357	1.185908	0.695557
H	-0.22024	2.14021	0.321546
H	-0.269461	1.124821	1.773499
Cl	3.46396	0.0	0.0
