18

C	-0.525055	0.003151	-1.446121
C	0.0	0.0	0.0
Cl	0.158969	-1.424953	-2.318137
H	1.1008	0.0	0.0
C	-2.046114	-0.086687	-1.533592
H	-2.360105	-0.183625	-2.57415
H	-2.497235	0.8157	-1.1143
H	-2.370233	-0.952367	-0.958152
C	-0.067803	1.198428	-2.158479
N	0.209353	2.185388	-2.733018
N	-0.511761	-1.207651	0.67273
H	-0.316819	-1.087807	1.661214
H	0.078084	-1.981184	0.37917
C	-0.47701	1.229114	0.761919
H	-1.549084	1.17949	0.972764
H	-0.251599	2.150642	0.222225
H	0.062832	1.275662	1.710856
Cl	3.461226	0.0	0.0
