18

C	-0.328614	0.025429	-1.511314
C	0.0	0.0	0.0
Cl	-2.130985	0.185639	-1.775993
H	1.098218	0.0	0.0
C	0.380009	1.152035	-2.248459
H	0.229052	1.064745	-3.326058
H	1.446363	1.089428	-2.009043
H	-0.011416	2.114246	-1.917855
C	0.02868	-1.266379	-2.104215
N	0.302076	-2.304084	-2.583661
N	-0.470751	-1.185774	0.693618
H	0.100845	-1.981396	0.435162
H	-1.435334	-1.384889	0.448595
C	-0.471197	1.247703	0.730854
H	-1.562607	1.323702	0.742042
H	-0.053181	2.159239	0.30022
H	-0.11746	1.167386	1.759103
Cl	3.427893	0.0	0.0
