18

C	-0.391989	-0.020363	-1.503524
C	0.0	0.0	0.0
Cl	0.161859	1.489903	-2.321209
H	1.096838	0.0	0.0
C	0.269001	-1.192386	-2.223843
H	0.087108	-1.133915	-3.298167
H	1.343167	-1.147476	-2.022599
H	-0.137307	-2.136063	-1.853758
C	-1.851311	-0.07283	-1.644983
N	-3.02129	-0.164532	-1.728769
N	-0.433447	-1.209482	0.687527
H	-1.409289	-1.421684	0.505175
H	0.144294	-1.998443	0.428176
C	-0.540485	1.207458	0.744934
H	-0.179551	1.148281	1.772238
H	-0.195867	2.143576	0.306972
H	-1.637076	1.203987	0.762924
Cl	3.472978	0.0	0.0
