18

C	-0.470821	0.013125	-1.484194
C	0.0	0.0	0.0
Cl	0.221494	-1.421713	-2.331585
H	1.095669	0.0	0.0
C	-1.987453	-0.047052	-1.653833
H	-2.379014	-0.950835	-1.184618
H	-2.247229	-0.074464	-2.71299
H	-2.452911	0.830595	-1.200364
C	0.019809	1.205512	-2.177195
N	0.342988	2.208913	-2.697021
N	-0.409365	-1.179119	0.741454
H	0.111903	-1.985312	0.422941
H	-1.401323	-1.363472	0.655326
C	-0.485215	1.245189	0.731761
H	0.008631	1.262034	1.703346
H	-1.567813	1.224811	0.900717
H	-0.224301	2.162321	0.200005
Cl	3.463809	0.0	0.0
