18

C	-0.418095	-0.001972	-1.481002
C	0.0	0.0	0.0
Cl	0.414846	1.305625	-2.321418
H	1.095867	0.0	0.0
C	-0.112904	-1.310771	-2.173535
H	-0.668522	-2.122901	-1.706497
H	0.960031	-1.490303	-2.070294
H	-0.372336	-1.248919	-3.232421
N	-1.929054	0.263271	-1.539597
O	-2.341387	1.387445	-1.811891
O	-2.631277	-0.702385	-1.228428
C	-0.44664	-1.221619	0.66943
N	-0.799892	-2.205321	1.207532
C	-0.469849	1.232234	0.777997
H	-1.553878	1.248272	0.911737
H	0.007981	1.220105	1.758514
H	-0.154863	2.137693	0.260054
Br	3.393352	0.0	0.0
