18

C	-0.353024	0.00029	-1.496683
C	0.0	0.0	0.0
Cl	-0.061889	1.610681	-2.206233
H	1.097147	0.0	0.0
C	0.464974	-1.025856	-2.244252
H	0.217621	-2.026891	-1.884659
H	1.517925	-0.822811	-2.033331
H	0.268185	-0.974081	-3.313393
N	-1.84922	-0.256698	-1.71288
O	-2.629228	0.286478	-0.936628
O	-2.174206	-0.967729	-2.659465
C	-0.448468	-1.274611	0.558209
N	-0.842996	-2.286329	1.007829
C	-0.450311	1.163256	0.884379
H	0.036229	1.043389	1.854676
H	-1.530041	1.193837	1.01568
H	-0.104184	2.103701	0.456875
Br	3.46261	0.0	0.0
