18

C	-0.403811	0.101243	-1.475119
C	0.0	0.0	0.0
Cl	-2.164761	0.378705	-1.662876
H	1.094862	0.0	0.0
C	0.370483	1.183378	-2.194016
H	0.182593	1.130805	-3.266645
H	0.049064	2.159203	-1.831121
H	1.436094	1.048741	-1.994416
N	-0.109602	-1.249788	-2.146773
O	0.90914	-1.310808	-2.826689
O	-0.885971	-2.172672	-1.927747
C	-0.51829	-1.188205	0.668553
N	-0.938486	-2.088269	1.296226
C	-0.391513	1.240495	0.814526
H	0.057601	2.133993	0.380294
H	0.019632	1.126158	1.818901
H	-1.473674	1.36304	0.881509
Br	3.437468	0.0	0.0
