18

C	-0.555372	-0.053552	-1.434504
C	0.0	0.0	0.0
Cl	0.344985	-1.248865	-2.381484
H	1.094151	0.0	0.0
C	-2.036024	-0.362856	-1.529201
H	-2.616875	0.322841	-0.914315
H	-2.370184	-0.273791	-2.563504
H	-2.201297	-1.384353	-1.188878
N	-0.293187	1.326918	-2.042187
O	-1.252908	2.099872	-2.051005
O	0.843697	1.593008	-2.40083
C	-0.452563	-1.197409	0.703708
N	-0.861378	-2.135729	1.281368
C	-0.421431	1.257267	0.772317
H	-0.040812	1.170249	1.791164
H	0.047101	2.135361	0.326128
H	-1.50389	1.39867	0.806949
Br	3.454648	0.0	0.0
