18

C	-0.515541	-0.131741	-1.448944
C	0.0	0.0	0.0
Cl	0.125882	-1.627842	-2.141837
H	1.099161	0.0	0.0
C	-2.028894	-0.134	-1.581752
H	-2.435008	-0.986656	-1.036617
H	-2.305203	-0.227012	-2.63499
H	-2.443785	0.791852	-1.185725
N	-0.0051	1.052214	-2.28261
O	0.790266	0.868175	-3.190134
O	-0.505049	2.133844	-1.975854
C	-0.493289	-1.163469	0.734574
N	-0.965328	-2.05979	1.331821
C	-0.41269	1.268268	0.761949
H	-0.035607	1.169835	1.782895
H	-1.495606	1.410156	0.800566
H	0.054332	2.144859	0.317312
Br	3.420264	0.0	0.0
