18

C	-0.354857	0.086725	-1.495006
C	0.0	0.0	0.0
Cl	-0.058735	1.731188	-2.112847
H	1.105565	0.0	0.0
C	0.459084	-0.89653	-2.301297
H	0.242258	-0.799261	-3.364217
H	1.512821	-0.687739	-2.100935
H	0.232643	-1.915728	-1.984407
N	-1.853799	-0.158036	-1.701146
O	-2.188296	-1.001308	-2.529084
O	-2.62638	0.505625	-1.017504
C	-0.453872	-1.302957	0.48244
N	-0.860367	-2.335632	0.869721
C	-0.461384	1.110964	0.943196
H	-0.101289	2.072863	0.580657
H	0.000751	0.928644	1.915494
H	-1.543877	1.142087	1.051183
Br	3.457779	0.0	0.0
