18

C	-0.501209	-0.003513	-1.430588
C	0.0	0.0	0.0
Cl	-2.298059	-0.035166	-1.505474
H	1.104765	0.0	0.0
C	-0.007	1.194422	-2.213237
H	-0.512141	2.088437	-1.842373
H	1.069843	1.303103	-2.080648
H	-0.255628	1.093084	-3.271127
N	0.017553	-1.295577	-2.049584
O	1.186436	-1.232719	-2.478207
O	-0.690291	-2.278137	-2.100583
C	-0.163396	-1.290657	0.650619
N	0.175462	-2.349214	1.021753
C	-0.4319	1.220417	0.805252
H	-1.51336	1.370976	0.798118
H	-0.084139	1.126481	1.833024
H	0.05757	2.101576	0.384907
Br	3.144622	0.0	0.0
