18

C	-0.65461	-0.003231	-1.381953
C	0.0	0.0	0.0
F	-0.339383	1.198358	-1.970488
H	1.097131	0.0	0.0
N	-0.024266	-1.030923	-2.320188
O	-0.734807	-1.943374	-2.742701
O	1.142145	-0.829859	-2.62532
C	-2.151433	-0.152098	-1.373066
H	-2.544063	0.62018	-0.710905
H	-2.440758	-1.141753	-1.025379
H	-2.545482	-0.007056	-2.379576
N	-0.395262	-1.222567	0.725166
O	-0.33263	-2.284223	0.100737
O	-0.718277	-1.146018	1.915917
N	-0.413901	1.197164	0.705782
H	-0.83919	0.915221	1.581221
H	0.450459	1.680238	0.935155
F	2.502227	0.0	0.0
