18

C	-0.330832	-0.197917	-1.495327
C	0.0	0.0	0.0
F	-1.592073	-0.719348	-1.687312
H	1.088087	0.0	0.0
N	-0.389837	1.209128	-2.075018
O	-1.496348	1.724659	-2.216905
O	0.683442	1.749901	-2.314151
C	0.725015	-0.986065	-2.225792
H	0.587444	-2.036787	-1.97471
H	0.641733	-0.844852	-3.306098
H	1.694092	-0.660152	-1.83177
N	-0.509424	-1.237786	0.686523
O	0.005371	-2.306048	0.355679
O	-1.411706	-1.131334	1.513192
N	-0.49452	1.161109	0.647185
H	0.200576	1.890526	0.597649
H	-1.397646	1.479084	0.32683
F	2.590681	0.0	0.0
