18

C	-0.623766	-0.051692	-1.391886
C	0.0	0.0	0.0
F	-0.25617	1.110498	-2.029718
H	1.09711	0.0	0.0
N	0.003005	-1.141913	-2.264664
O	1.199671	-1.025107	-2.49271
O	-0.736551	-2.014396	-2.719825
C	-2.124944	-0.153057	-1.410192
H	-2.454952	-1.114061	-1.019431
H	-2.495216	-0.0457	-2.430726
H	-2.504807	0.662695	-0.792953
N	-0.417675	-1.183213	0.767834
O	-0.710286	-1.058754	1.961871
O	-0.40495	-2.265774	0.17608
N	-0.402697	1.235503	0.648864
H	0.46791	1.724259	0.836872
H	-0.802048	1.000334	1.552636
F	2.499656	0.0	0.0
