18

C	-0.414499	0.001148	-1.451854
C	0.0	0.0	0.0
F	0.309905	-0.884924	-2.186076
H	1.094193	0.0	0.0
N	-1.877911	-0.421443	-1.62266
O	-2.189232	-1.068506	-2.613108
O	-2.656208	-0.016449	-0.759306
C	-0.257678	1.368622	-2.069228
H	-0.445075	1.291624	-3.142932
H	-0.929532	2.08524	-1.602426
H	0.774617	1.67119	-1.884963
N	-0.430777	-1.271171	0.659689
O	-0.600043	-2.269793	-0.042686
O	-0.547725	-1.259156	1.886515
N	-0.412699	1.162977	0.718484
H	-1.354608	1.055613	1.07497
H	0.225566	1.285584	1.494536
F	2.515438	0.0	0.0
