12

C	-0.533595	-0.11247	-1.4172
C	0.0	0.0	0.0
Cl	-0.345399	1.393667	-2.368557
H	1.099551	0.0	0.0
H	0.040398	-0.891451	-1.916147
H	-1.596418	-0.366153	-1.428969
N	-0.323168	-1.282987	0.662795
H	0.528459	-1.574513	1.128711
H	-1.048382	-1.178251	1.358373
C	-0.552853	1.136546	0.721913
N	-1.002941	2.017918	1.357254
F	2.574949	0.0	0.0
