12

C	-0.403883	-0.084544	-1.465932
C	0.0	0.0	0.0
Cl	-0.204435	1.454447	-2.36068
H	1.094796	0.0	0.0
H	-1.450599	-0.382691	-1.591984
H	0.258104	-0.811368	-1.935898
N	-0.317435	-1.258877	0.686879
H	0.513899	-1.833695	0.617652
H	-1.103148	-1.743438	0.266642
C	-0.629824	1.119419	0.685614
N	-1.146475	2.02056	1.236952
F	2.570229	0.0	0.0
