12

C	-0.556888	-0.056947	-1.411612
C	0.0	0.0	0.0
Cl	0.101893	-1.446341	-2.322368
H	1.094079	0.0	0.0
H	-0.27534	0.843646	-1.959224
H	-1.643856	-0.174093	-1.412837
N	-0.400415	-1.172005	0.790647
H	-1.096528	-0.93779	1.48715
H	0.437716	-1.484011	1.2667
C	-0.460242	1.24565	0.606811
N	-0.859098	2.231491	1.11178
F	2.569489	0.0	0.0
