12

C	-0.516274	-0.098631	-1.424529
C	0.0	0.0	0.0
Cl	-0.281067	1.410037	-2.359889
H	1.093738	0.0	0.0
H	0.057849	-0.878303	-1.919252
H	-1.580731	-0.334178	-1.46044
N	-0.331256	-1.283866	0.65411
H	0.512011	-1.563655	1.140905
H	-1.075434	-1.178971	1.331962
C	-0.548573	1.139445	0.721412
N	-0.983308	2.044108	1.33562
F	2.575526	0.0	0.0
