12

C	-0.335821	0.034556	-1.460208
C	0.0	0.0	0.0
Cl	-2.116553	-0.052855	-1.814211
H	1.103862	0.0	0.0
H	0.030428	0.949363	-1.924367
H	0.114945	-0.839194	-1.925768
N	-0.397658	-1.265088	0.613878
H	0.286273	-1.476823	1.330147
H	-1.313195	-1.204017	1.042339
C	-0.494308	1.177785	0.70725
N	-0.864055	2.129532	1.292184
F	2.55624	0.0	0.0
