12

C	-0.37063	0.102495	-1.448462
C	0.0	0.0	0.0
Cl	-2.157802	0.005465	-1.76079
H	1.103856	0.0	0.0
H	0.078876	-0.739696	-1.968967
H	-0.031391	1.044788	-1.875791
N	-0.370839	-1.299626	0.559882
H	-1.250846	-1.262223	1.058229
H	0.365621	-1.564881	1.20382
C	-0.49312	1.132341	0.776771
N	-0.886368	2.03825	1.416656
F	2.555963	0.0	0.0
