12

C	-0.540311	-0.014115	-1.424932
C	0.0	0.0	0.0
Br	-0.000457	-1.683201	-2.293457
H	1.091207	0.0	0.0
H	-0.032597	0.758305	-2.012199
H	-0.355141	-0.886699	0.531765
N	-1.987447	0.044777	-1.440541
H	-2.318401	0.10196	-2.396301
H	-2.285809	0.881143	-0.948607
C	-0.49272	1.194236	0.682204
N	-0.919515	2.160352	1.194207
Br	3.526856	0.0	0.0
