12

C	-0.405627	-0.141531	-1.479972
C	0.0	0.0	0.0
Br	-0.382658	1.663963	-2.287028
H	1.094442	0.0	0.0
H	-1.442354	-0.464344	-1.590186
H	-0.379545	0.906331	0.473948
N	0.44645	-1.011854	-2.233129
H	1.417303	-0.848936	-1.968243
H	0.214042	-1.975466	-2.020081
C	-0.480841	-1.177974	0.716209
N	-0.913649	-2.138174	1.236429
Br	3.509331	0.0	0.0
