12

C	-0.290275	0.007001	-1.500662
C	0.0	0.0	0.0
Br	-2.235857	-0.066416	-1.842689
H	1.096307	0.0	0.0
H	0.099332	-0.920682	-1.921261
H	-0.369747	-0.903372	0.490326
N	0.285213	1.109892	-2.218004
H	0.007287	1.981511	-1.778155
H	1.297203	1.027014	-2.116675
C	-0.5083	1.188985	0.667549
N	-0.908003	2.163297	1.18713
Br	3.47485	0.0	0.0
