14
Coordinates from ORCA-job run
  C   -0.51901498272767     -0.19384386519431     -0.02095185903775
  C   0.72635776186381     -0.68607080875030     -0.06382770770874
  H   0.81743632875264     -1.76207225297633     -0.18334058270038
  C   -0.97867988336828      1.21836524788717      0.12656989562908
  H   -0.12895975404878      1.88427708536369      0.26737941977091
  H   -1.53703062242997      1.53736840328552     -0.75487332333690
  H   -1.64858801266998      1.31645855207998      0.98250798715974
  N   -1.62836471463912     -1.17310840521679     -0.16194314561694
  O   -1.37256280693050     -2.37321755176051     -0.17381785386925
  O   -2.76075006498427     -0.69762213244583     -0.26114516517565
  C   1.99672835600534      0.09316505234221      0.04203814364348
  H   1.84051975887323      1.16544438046936      0.14987645050703
  H   2.61330902493212     -0.07470630747366     -0.84576428553538
  H   2.57959961137143     -0.25643739761020      0.89929202627076
