14
Coordinates from ORCA-job run
  C   -0.43211237482818      0.24483804076088     -0.07192653565900
  C   0.83681929554001      0.27243416531446      0.36169072690768
  H   1.14301135906582      1.21196054774237      0.81791669256464
  C   -1.43803499701167      1.34269877138471      0.05446564074394
  H   -1.87898018526756      1.57630868220213     -0.91785886483734
  H   -2.25097476981938      1.04777926304188      0.71903669652955
  H   -0.95969789703817      2.24010056498535      0.44807967707128
  N   -0.96591338175319     -0.97775169875115     -0.69101486153937
  O   -2.14558898180511     -1.24301807676520     -0.45592172694729
  O   -0.21893775604187     -1.64898309413253     -1.40311935549865
  C   1.87019895672095     -0.81062228264409      0.30216876843658
  H   2.59256010212260     -0.67840455884816      1.10925558823682
  H   2.41173774269530     -0.76924183250977     -0.64689245048304
  H   1.43591288742044     -1.80709849178087      0.37312000447419
