14
Coordinates from ORCA-job run
  C   -0.44597095673746      0.23056520710600     -0.00332578921856
  C   0.85509498820338      0.26539262594903      0.32096835619143
  H   1.16644551616057      1.15477939606715      0.86562772444269
  C   -1.47633303766977      1.25425360822326      0.34829208331356
  H   -2.21285262414409      0.84094640272835      1.03838773139163
  H   -2.01365584142586      1.58357488454884     -0.54461721091442
  H   -0.99749571337353      2.11908164370121      0.80856945647191
  N   -0.98801567740438     -0.92977790907280     -0.72616433339316
  O   -2.13137912003868     -1.27791099262829     -0.42817338301244
  O   -0.28361840160500     -1.47135979736231     -1.57833383615262
  C   1.91859686920515     -0.75053519497215      0.03589847136302
  H   1.52991826107258     -1.76788371371890      0.01408153175352
  H   2.37137495754910     -0.56446297912943     -0.94192578662603
  H   2.70489078020797     -0.68566318143996      0.78971498438944
