14
Coordinates from ORCA-job run
  C   -0.44934219416682      0.22362535641756      0.00348945860680
  C   0.86277428160479      0.29324681976413      0.27277283283645
  H   1.20354072637769      1.26037280330811      0.63773872460892
  C   -1.43953684457842      1.33727659331642      0.11443582912714
  H   -1.82302664596500      1.61336988240914     -0.86853630551087
  H   -2.29359191811906      1.03496787729661      0.72570688021849
  H   -0.96912741557372      2.20705975337014      0.57407321462212
  N   -1.02303429586595     -1.02832420686565     -0.51269624318463
  O   -1.92282066922504     -0.91761357165143     -1.34656813075845
  O   -0.58414413736751     -2.09533301556797     -0.08321162968674
  C   1.90471671612178     -0.77455217197961      0.13696228262440
  H   1.69095949508943     -1.46705313300445     -0.67621574494791
  H   1.96142834671844     -1.36970063004823      1.05256512536413
  H   2.88220455494940     -0.31934235676476     -0.03051629391985
