14
Coordinates from ORCA-job run
  C   -0.51640753766356     -0.20013058953982      0.01639593194307
  C   0.71566836313801     -0.60346756231453      0.35460102744989
  H   0.79726154940998     -1.59790859335758      0.78449722488075
  C   -0.96202852315090      1.08965970718836     -0.58783790854958
  H   -0.11525459935767      1.75983743416264     -0.72615609457482
  H   -1.43964460449890      0.91917262708046     -1.55395571273734
  H   -1.69900729266823      1.57900516038752      0.05114781336343
  N   -1.62433617945542     -1.16130787457624      0.26074156020417
  O   -2.74231321130249     -0.80563852722366     -0.11588009219609
  O   -1.38111548756423     -2.23260232874637      0.80735903037511
  C   1.98219653139053      0.17381866541080      0.20065445119498
  H   1.83443862914128      1.16458267310929     -0.22642734171799
  H   2.68163632141891     -0.37336802578530     -0.43814505096749
  H   2.46990604116269      0.28934723420443      1.17300516133191
