14
Coordinates from ORCA-job run
  C   -0.39022805158987     -0.18716503798366      0.12341344014155
  C   0.84107418724195      0.10278842417288     -0.73616361238049
  Cl  0.05686587011113     -1.44104597651639      1.34182186366077
  H   0.53410745171829      0.82962534516533     -1.49518862655689
  H   1.09857880528785     -0.83458183925756     -1.25136980398137
  C   -0.79451890651254      1.01848679131511      0.84702555370494
  N   -1.18421205962940      1.99199034162038      1.37561007813484
  C   -1.54720667670336     -0.72165802050297     -0.71017880315236
  H   -1.23529583056189     -1.62750709621140     -1.23324583134019
  H   -2.40071468328669     -0.95894475907220     -0.07488830119255
  H   -1.85057344150710      0.03152342055216     -1.44180341465358
  N   1.90573631203387      0.68422150815509      0.05705603287361
  H   2.57997565974381      1.14580037323235     -0.53788103340632
  H   2.38641136365394     -0.03153347466913      0.58579245814803
