14
Coordinates from ORCA-job run
  C   -0.39552665668882     -0.16294031043872      0.29297370345501
  C   0.93871240843145      0.46583174558868     -0.13642592380502
  Cl  -0.04925616580152     -1.77791291959130      1.01999592264175
  H   1.56195287632601      0.58024100358714      0.76036140028449
  H   0.70772377483460      1.46768425660701     -0.51209767528311
  C   -0.98877977024595      0.67184100766041      1.33850211734725
  N   -1.45323144198006      1.38766099439809      2.14583298707011
  C   -1.35973014135470     -0.34334148831224     -0.86895060186882
  H   -2.28079240289846     -0.81921039915848     -0.53156400141952
  H   -1.60001360378656      0.63522990482883     -1.29332265790514
  H   -0.88006603838974     -0.95277675644470     -1.63223321934429
  N   1.54570801527633     -0.30685441321765     -1.20638824668057
  H   2.22068833024253      0.26010523139738     -1.70171457146840
  H   2.03261081603488     -1.10755785690444     -0.82496923302375
