14
Coordinates from ORCA-job run
  C   -0.34277100745034     -0.41041559316991      0.26555926107394
  C   1.14219557946399     -0.33713638325021     -0.16540696572331
  Cl  -0.56731869389332     -1.94973836458692      1.16583473238068
  H   1.75822095927583     -0.46981793633044      0.72745041636753
  H   1.32839564490588     -1.19414761314777     -0.81946563559422
  C   -0.62737976482782      0.70101176144037      1.17358133002168
  N   -0.80959013897845      1.63880849678786      1.85777692807270
  C   -1.30171121969196     -0.39093062266886     -0.91684650669557
  H   -1.06190104956445     -1.21608252590629     -1.59077974905708
  H   -2.33236958001156     -0.50111452698639     -0.57897949598847
  H   -1.21555085157316      0.55517242064069     -1.45526056175994
  N   1.54589976335375      0.87489717083962     -0.83729578914138
  H   1.41340702093740      1.69324689600954     -0.25692725671570
  H   1.06947333805420      1.00624682032871     -1.71824070724086
