13

C	0.0	0.0	0.0
C	-0.559302	-0.046944	-1.397782
Br	1.947889	0.0	0.0
H	-0.303439	0.836644	-1.976419
H	-0.247772	-0.9399	0.499799
H	-1.667038	-0.124713	-1.204047
N	-0.544653	1.177539	0.612938
H	-1.574554	1.010276	0.52272
H	-0.335284	1.146191	1.6064
N	-0.129345	-1.229703	-2.152509
O	0.18399	-1.079374	-3.338189
O	-0.156261	-2.319622	-1.574194
H	-2.974409	0.0	0.0
