13

C	0.0	0.0	0.0
C	-0.485596	0.037375	-1.444627
Br	1.979005	0.0	0.0
H	-1.591939	0.111281	-1.324235
H	-0.280477	-0.986558	0.373144
H	-0.196435	-0.851154	-2.001832
N	-0.522259	0.981243	0.890146
H	-0.420774	1.889315	0.448694
H	-1.54324	0.761434	0.874731
N	0.019052	1.18519	-2.215067
O	0.539546	0.964865	-3.31338
O	-0.114671	2.312821	-1.732946
H	-2.985214	0.0	0.0
