15
Coordinates from ORCA-job run
  C   1.01684251262250      0.28981392731605      0.40037043069674
  C   -0.45525305811400      0.33152173761430      0.00370076633936
  F   1.82029907104693      0.09954546733107     -0.66918251251729
  H   -1.03091580518626      0.25148791659398      0.93522918825497
  H   1.32921052069436      1.18793276748475      0.93559098614494
  N   1.22593425173820     -0.85222867102548      1.36613124247707
  O   1.79674396688453     -1.85975466369830      0.97008941927293
  O   0.75466024195330     -0.66429567971370      2.48473794850514
  C   -0.79558792070796     -0.83751739994653     -0.90771942315767
  H   -0.25341256210856     -0.74188866540049     -1.84929330368816
  H   -0.53622016886284     -1.79648527174126     -0.45690637669968
  H   -1.86789257543965     -0.84266088045775     -1.11649287590905
  N   -0.66742673376861      1.59637270723345     -0.69317234692700
  H   -1.42095001108877      1.50841101442708     -1.36185604128539
  H   -0.91603172966317      2.32974569398284     -0.04122710150691
