15
Coordinates from ORCA-job run
  C   0.81042678660366     -0.56282432167139      0.43100488367051
  C   -0.45721449964252      0.16479789194364      0.03975861895877
  F   0.54135425131625     -1.56998884058781      1.31338229436200
  H   -0.87000879092190      0.55703058221863      0.97374524133855
  H   1.36953508774366     -0.96323865346028     -0.41663318456849
  N   1.73998907427192      0.40069262964137      1.11645877719983
  O   1.32679457488353      0.90651769516811      2.15398843702635
  O   2.82831977353591      0.59706228551916      0.58612213670367
  C   -1.44907003055629     -0.79570552962506     -0.60651347669470
  H   -1.69900961892610     -1.62462308300339      0.05806399117253
  H   -1.03410729562376     -1.20941046119389     -1.53140718147144
  H   -2.36963451022389     -0.26436403498881     -0.85761025703459
  N   -0.04834365870115      1.29759730768086     -0.78098365009016
  H   -0.72761698647327      2.04388093567921     -0.72657013708624
  H   0.03758584271397      1.02457559667964     -1.75280649348660
