15
Coordinates from ORCA-job run
  C   0.44489008366675     -0.17258712458491      1.12328346638679
  C   -0.63297287374477      0.22900373950738      0.11892274920043
  F   0.40623785917671      0.62943785146326      2.21439726550348
  H   -1.47005040772740      0.53003144727509      0.75801279923309
  H   0.37717287399561     -1.21510232780388      1.44438099629880
  N   1.81014562691306     -0.03056731237187      0.49244303757132
  O   2.62074738601474      0.72134955034039      1.00479230664914
  O   1.97479165804949     -0.71311592026893     -0.51715871219622
  C   -1.08458205384481     -0.92609840782191     -0.77061622729817
  H   -1.43527726388505     -1.77853384310596     -0.18143705986980
  H   -1.90889986962734     -0.59186939878167     -1.40464532285990
  H   -0.26709548991212     -1.26299236806109     -1.40847979682589
  N   -0.17804683804708      1.41935483329561     -0.58966098487506
  H   -0.96196171011405      2.00369575136520     -0.84435123949430
  H   0.30690101908627      1.15699352955330     -1.43988327742373
