15
Coordinates from ORCA-job run
  C   0.70210761004520     -0.47443837032447      0.66432548098737
  C   -0.43155349719121      0.21919270386293     -0.05879174383744
  F   0.25191303234255     -1.09279725446385      1.79572254252663
  H   -0.83487320182109      0.94374934294266      0.65460122599572
  H   1.24344860902866     -1.19471346727289      0.04822712368602
  N   1.71885300290394      0.55096649460553      1.08527275479763
  O   2.84955564993952      0.43563281268989      0.62416119815607
  O   1.32658609162824      1.41606217785995      1.86040913198952
  C   -1.51093342755510     -0.78399829564662     -0.44987908418293
  H   -1.10852980142029     -1.52748727976085     -1.14561755278893
  H   -1.90829236808676     -1.30877391161415      0.42071197863808
  H   -2.33432824188108     -0.26694115229649     -0.94734478287142
  N   0.17055955848206      0.96070748634066     -1.15952741366429
  H   -0.40333020129584      1.75245502139724     -1.41468104791151
  H   0.26981718488120      0.37138369168045     -1.97758981152051
