15
Coordinates from ORCA-job run
  C   0.91861885717905      0.33023462941135      0.60881315470223
  C   -0.51371051491102      0.34145793903022      0.10786812207617
  F   1.78065631230802      0.59686275135520     -0.40817723900260
  H   -1.14314450502759      0.15690345595304      0.98295043699669
  H   1.07640828611692      1.04404703308058      1.41706130784648
  N   1.23922518692239     -1.03343196607164      1.16365242317753
  O   2.01118701657519     -1.75419137768256      0.54709368381567
  O   0.63959014108912     -1.30810102108670      2.19937041684580
  C   -0.75060178808905     -0.74594019629854     -0.93864574038217
  H   -1.76803357682440     -0.66136491373476     -1.32633313649192
  H   -0.63349638330695     -1.75096361030559     -0.52600321371093
  H   -0.05380660074532     -0.63468550680840     -1.77244194790450
  N   -0.76258354192527      1.70807202211923     -0.33940141294794
  H   -1.75343170717977      1.84266575644503     -0.49637203739746
  H   -0.28787718218133      1.86843500459354     -1.22043481762307
