15
Coordinates from ORCA-job run
  C   0.86562076831522      0.35489683247060      0.52115105314491
  C   -0.58936130804675      0.28967472539819      0.05788109960969
  F   1.69354095275565      0.59294244818264     -0.53089525867530
  H   -1.19406313602749      0.11789223796886      0.95293965054138
  H   1.03256402088799      1.11551686961778      1.28667799322418
  N   1.25055654850835     -0.95598007026235      1.15286221493669
  O   0.70028993020811     -1.17125880116019      2.22988731205738
  O   2.01084369940474     -1.70109073545884      0.55105414347044
  C   -0.79655827120105     -0.85380791383948     -0.92530882315822
  H   -1.82611441865704     -0.82318737241986     -1.28111327118895
  H   -0.61421668436582     -1.82648866557969     -0.46541062993511
  H   -0.12840600004210     -0.75277092192420     -1.78350666910953
  N   -1.01762578613543      1.54177165923621     -0.54602428749858
  H   -0.42302476843873      1.76606085216656     -1.33525669919274
  H   -0.96404554716566      2.30682885560378      0.11606217177377
