16

C	0.0	0.0	0.0
C	-0.598464	-0.020904	-1.39304
Br	1.921722	0.0	0.0
H	-1.691014	-0.109174	-1.201739
H	-0.333017	0.880107	0.539051
N	-0.426382	-1.169008	0.855492
O	-0.614538	-2.254964	0.322183
O	-0.488189	-0.936328	2.05618
C	-0.094943	-1.052235	-2.377633
H	-0.166831	-2.037598	-1.923725
H	-0.715029	-1.027397	-3.2717
H	0.940004	-0.858723	-2.667084
N	-0.436699	1.361438	-1.972606
O	-0.330554	2.315442	-1.203932
O	-0.462479	1.460046	-3.198872
Cl	-3.470475	0.0	0.0
