17

C	-0.440609	-0.033511	-1.462048
C	0.0	0.0	0.0
Cl	-2.242266	-0.485966	-1.582019
H	1.09716	0.0	0.0
N	-0.07813	1.099175	-2.172311
H	-0.525944	1.921699	-1.798082
H	-0.204272	0.980406	-3.166588
N	0.224267	-1.230861	-2.183636
O	0.400097	-2.260908	-1.54906
O	0.466091	-1.076658	-3.372632
N	-0.560892	-1.038049	0.840897
H	0.088672	-1.145645	1.612416
H	-0.532377	-1.901428	0.316169
N	-0.403571	1.291428	0.683658
O	-1.069362	2.151767	0.103357
O	-0.037276	1.369546	1.847339
Br	3.403391	0.0	0.0
