17

C	-0.680727	-0.08827	-1.368458
C	0.0	0.0	0.0
Cl	0.005709	-1.554923	-2.207051
H	1.095272	0.0	0.0
N	-2.070843	-0.123862	-1.183358
H	-2.278653	-0.930912	-0.60711
H	-2.566386	-0.152984	-2.063847
N	-0.327702	1.045673	-2.328407
O	-1.258293	1.52022	-2.973388
O	0.849184	1.339751	-2.422836
N	-0.453955	-1.128781	0.788865
H	0.373193	-1.647076	1.067068
H	-0.88455	-0.765537	1.632032
N	-0.445396	1.295529	0.648203
O	-0.391748	2.306705	-0.040257
O	-0.809319	1.265151	1.823
Br	3.398067	0.0	0.0
