17

C	-0.507568	0.031209	-1.451442
C	0.0	0.0	0.0
Cl	-2.294402	0.152448	-1.470656
H	1.103212	0.0	0.0
N	0.039488	1.07949	-2.28023
H	1.039379	1.17191	-2.076959
H	-0.407978	1.955721	-2.020577
N	-0.104753	-1.233075	-2.169994
O	1.152522	-1.490291	-2.062388
O	-0.661783	-1.424683	-3.314452
N	-0.443786	-1.222655	0.633417
H	-1.416491	-1.130836	0.932565
H	0.116293	-1.382085	1.473402
N	-0.367972	1.215857	0.766374
O	-0.383212	1.055726	2.060174
O	0.137907	2.33177	0.317251
Br	2.671926	0.0	0.0
