17

C	-0.563966	-0.023237	-1.421875
C	0.0	0.0	0.0
Cl	0.347431	-1.226997	-2.35546
H	1.08979	0.0	0.0
N	-1.940677	-0.348915	-1.47697
H	-2.449602	0.382379	-0.991605
H	-2.240119	-0.393001	-2.444307
N	-0.26548	1.323929	-2.133107
O	-0.958591	1.564119	-3.118689
O	0.628277	2.022916	-1.683273
N	-0.445507	-1.120487	0.766837
H	-1.19287	-1.619562	0.303758
H	0.33849	-1.721683	0.969091
N	-0.479877	1.249999	0.712603
O	-1.539749	1.765777	0.333473
O	0.175353	1.62864	1.668248
Br	3.447442	0.0	0.0
