17

C	-0.581133	0.001467	-1.421681
C	0.0	0.0	0.0
Cl	-0.011366	-1.553027	-2.21232
H	1.094757	0.0	0.0
N	-1.966917	0.152534	-1.37597
H	-2.352968	-0.579913	-0.793444
H	-2.375934	0.180425	-2.299124
N	0.010913	1.06842	-2.340885
O	1.20127	1.292871	-2.236284
O	-0.763701	1.555835	-3.161066
N	-0.575683	-1.123918	0.714892
H	0.115756	-1.863186	0.707565
H	-0.704909	-0.829969	1.67655
N	-0.464343	1.281578	0.645799
O	-0.958917	1.224333	1.772355
O	-0.305381	2.310044	0.001077
Br	3.463779	0.0	0.0
