17

C	-0.373155	0.132147	-1.501904
C	0.0	0.0	0.0
Cl	-2.094643	0.536949	-1.691068
H	1.087332	0.0	0.0
N	0.423121	1.011483	-2.293374
H	1.401134	0.821272	-2.064395
H	0.230736	1.95492	-1.980029
N	-0.144306	-1.288013	-2.066363
O	1.017265	-1.530153	-2.361681
O	-1.080415	-2.075924	-2.116622
N	-0.484657	-1.126092	0.69855
H	0.207041	-1.860197	0.712309
H	-1.386448	-1.456739	0.388346
N	-0.461508	1.279121	0.669169
O	-1.313708	1.207919	1.544848
O	0.026506	2.326077	0.248042
Br	3.375676	0.0	0.0
