16

C	-0.389872	0.072563	-1.466302
C	0.0	0.0	0.0
F	-1.805445	0.05971	-1.522847
H	1.095726	0.0	0.0
H	-0.357577	-0.944778	0.434233
N	0.036729	1.297351	-2.090579
H	-0.103111	2.023147	-1.390802
H	1.041239	1.227748	-2.228826
C	0.115725	-1.124284	-2.238034
H	-0.157395	-1.015436	-3.289581
H	1.201784	-1.195766	-2.138836
H	-0.333709	-2.038533	-1.844177
N	-0.473795	1.192044	0.705254
H	-1.405522	1.038158	1.066608
H	0.146426	1.382087	1.481048
Br	3.663429	0.0	0.0
