16

C	-0.430588	0.054792	-1.45935
C	0.0	0.0	0.0
F	-0.225375	1.384194	-1.879209
H	1.097834	0.0	0.0
H	-0.324485	-0.96701	0.403164
N	0.399854	-0.761143	-2.313895
H	1.372917	-0.612121	-2.047084
H	0.193246	-1.737565	-2.138623
C	-1.899433	-0.243223	-1.674564
H	-2.11996	-1.286808	-1.4319
H	-2.153837	-0.058227	-2.719152
H	-2.490791	0.399745	-1.02204
N	-0.623123	1.072777	0.785439
H	-0.249602	1.010687	1.725726
H	-0.263984	1.941222	0.405987
Br	3.718948	0.0	0.0
