16

C	-0.451327	0.118881	-1.451005
C	0.0	0.0	0.0
F	-0.131429	1.415813	-1.864496
H	1.09212	0.0	0.0
H	-0.365958	0.859266	0.577083
N	0.264457	-0.782398	-2.328274
H	0.128678	-1.711566	-1.940711
H	1.255946	-0.580885	-2.20278
C	-1.944527	-0.051459	-1.632182
H	-2.480357	0.696339	-1.038895
H	-2.186474	0.083995	-2.687776
H	-2.250682	-1.049243	-1.312866
N	-0.43215	-1.30238	0.536019
H	-1.217803	-1.18886	1.162438
H	0.331493	-1.692332	1.073114
Br	3.677533	0.0	0.0
