16

C	-0.513259	0.023012	-1.430979
C	0.0	0.0	0.0
F	-0.129774	-1.189148	-2.025287
H	1.097294	0.0	0.0
H	-0.368621	-0.924185	0.45176
N	-1.954926	0.05917	-1.4106
H	-2.20946	0.6946	-0.659793
H	-2.309985	0.430133	-2.284415
C	0.139631	1.121894	-2.251198
H	-0.161914	2.101268	-1.868676
H	-0.183593	1.038763	-3.293937
H	1.227427	1.032225	-2.200428
N	-0.539474	1.159851	0.743226
H	-0.580572	0.91532	1.725005
H	0.147401	1.903503	0.680943
Br	3.751371	0.0	0.0
