16

C	-0.445109	-0.016453	-1.456943
C	0.0	0.0	0.0
F	-0.142065	1.245936	-1.978949
H	1.100316	0.0	0.0
H	-0.365436	0.910515	0.492504
N	0.288379	-0.976078	-2.252259
H	1.277535	-0.766507	-2.118114
H	0.138506	-1.878588	-1.810305
C	-1.935271	-0.221744	-1.628569
H	-2.173733	-0.184814	-2.692729
H	-2.232751	-1.189233	-1.220561
H	-2.480461	0.570908	-1.107817
N	-0.431366	-1.246485	0.65452
H	-1.242254	-1.080805	1.235462
H	0.31816	-1.564001	1.255884
Br	3.681716	0.0	0.0
