13
Coordinates from ORCA-job run
  C   -0.56555044806257      0.11979638464153     -0.29263013339835
  C   0.58313506293007     -0.40562070810846      0.57262561963929
  Cl  -1.38724467834720     -1.22765794752320     -1.10384937565670
  H   0.97675280679210      0.44793490964901      1.13216663691141
  H   0.15799121655826     -1.11129925203236      1.29067243230745
  C   -0.09266297943936      1.08262970354312     -1.27711524137443
  N   0.32720246000136      1.86913907430809     -2.04202362216314
  N   -1.62216708772592      0.80436709846763      0.58578814931925
  O   -2.27605093962951      1.70092357804419      0.07175952357915
  O   -1.73939870743013      0.36297026101932      1.72221779362999
  N   1.60343539052811     -0.94871769745499     -0.29987125981013
  H   1.50510566415992     -1.94784822031146     -0.40687295121937
  H   2.52945223966488     -0.74561718424244      0.04513242823557
