13
Coordinates from ORCA-job run
  C   -0.65869380225320     -0.03810405588885      0.16497405355307
  C   0.24306433397659     -0.75544645553103     -0.85617129762609
  Cl  -2.33121995482396     -0.50788289430612     -0.18410465866288
  H   0.10042742119403     -1.83352902946805     -0.74410872271155
  H   -0.04498152599873     -0.47262725555939     -1.87075789712476
  N   -0.39517642650460     -0.22820758443785      1.54042608275847
  H   -0.49273170868367     -1.19940416698382      1.80326823739554
  H   0.50764724710259      0.14163899259015      1.80842155011179
  N   -0.50049899632838      1.46633589166843     -0.14370964126144
  O   0.04867563391709      2.14967680486136      0.71046631719991
  O   -0.87350863007498      1.83005345792601     -1.24988348649015
  C   1.64233187656365     -0.41909266321898     -0.61077038446185
  N   2.75466453191356     -0.13241104165185     -0.36905015268005
