13
Coordinates from ORCA-job run
  C   -0.51519322183113     -0.17943824177554      0.15313701334378
  C   0.82238883590976     -0.75348072012950     -0.30979150896840
  Cl  -1.82963532679232     -0.74170542838185     -0.86352839892690
  H   0.74839968088009     -1.84124739328327     -0.25164737220193
  H   1.60087861607812     -0.41805571943735      0.38120336342583
  N   -0.75031994492305     -0.53944341857136      1.50221192305662
  H   -1.68404649085761     -0.28056699613023      1.79689876585204
  H   -0.06548473712950     -0.09669745241410      2.10388678412875
  N   -0.37986949255091      1.37514537460544     -0.01189061047966
  O   0.41398210837858      1.86076930191207      0.79173294276885
  O   -1.00327162335399      1.96992100015248     -0.87425210093160
  C   1.17377877822174     -0.34212635845845     -1.66488913329184
  N   1.46739281797023     -0.01307394808835     -2.75207166777555
