13
Coordinates from ORCA-job run
  C   -0.54522987369523     -0.03459666820978      0.09373745555485
  C   0.40902840567400     -0.76001122501204     -0.84294062426384
  Cl  -2.23964803735124     -0.44118804396827     -0.46484134523537
  H   0.18654868812791     -0.48677642587288     -1.87385302081919
  H   0.23701981921706     -1.83507285060028     -0.73705420664878
  N   -0.27950671867526     -0.28403981429966      1.43946511962888
  H   -0.87073598656654      0.25835674502055      2.05539180428608
  H   -0.31106841854813     -1.26825095360466      1.66653235687809
  N   -0.44929372849213      1.47997843693937     -0.11428001168886
  O   -0.00413298645921      1.86851859854250     -1.18550870193346
  O   -0.86393124143311      2.17201244681264      0.80524097434069
  C   1.80319058657144     -0.45031086938340     -0.53617722197692
  N   2.92975949163045     -0.21861937636408     -0.30571257812216
