13
Coordinates from ORCA-job run
  C   -0.45494525013005     -0.05326072675932      0.01588181679643
  C   0.89720386917552     -0.05327336117204     -0.68877665744900
  Cl  -1.68600202227352     -0.85751365985457     -0.97527053992692
  H   0.79003760552994      0.39487097854994     -1.67624156957488
  H   1.59371338093018      0.57239840151502     -0.11866365872610
  N   -0.39735286218376     -0.65044041961442      1.28027685641224
  H   -1.28897552201975     -0.61506452881694      1.75665867418933
  H   0.32179681246036     -0.23580654741094      1.85988175190432
  N   -0.92232955120125      1.44583523165154      0.06871744008416
  O   -1.50853791888935      1.78851747865869      1.08788403452532
  O   -0.67928531814340      2.14572934280490     -0.90590718646718
  C   1.43493860285435     -1.40474659111426     -0.79847005900833
  N   1.89773817389073     -2.47724559843759     -0.90497090275940
