13
Coordinates from ORCA-job run
  C   -0.38882793488582      0.09657101229810      0.11970110677453
  C   0.71140070995395     -0.15938429374628     -0.90354918766901
  Cl  -1.90612566265737     -0.73953649469428     -0.44980289841562
  H   1.55118163533026      0.50200946204978     -0.67613625020956
  H   0.35163439504065      0.06799247670531     -1.90618430086570
  N   0.01411424059521     -0.20849903944916      1.42378241128849
  H   -0.69964785811186      0.03111713732864      2.10019271767010
  H   0.29088890975903     -1.17751087485591      1.51945312220818
  N   -0.75894282384478      1.58132978206145      0.10393010342850
  O   -0.43238037165524      2.23173320080143     -0.88067774413833
  O   -1.37650045243746      1.98679832699447      1.07858139143288
  C   1.14769863460808     -1.54911266011344     -0.81872622442609
  N   1.49550657830535     -2.66450803538013     -0.71056424707839
