13
Coordinates from ORCA-job run
  C   -0.42483053689532      0.00622379203991      0.16685029005950
  C   0.80922360697730     -0.75411977486156     -0.29886571331602
  Cl  -1.76955641757698     -0.24924896717290     -1.01911761582752
  H   0.60682742975307     -1.82056223132752     -0.15969597658174
  H   1.64047975395706     -0.47668975228429      0.35266798027077
  N   -0.73704776386926     -0.32144667195072      1.50012909626527
  H   -1.51548099773178      0.23518978988920      1.83330359378270
  H   -0.94730145611026     -1.30586971418395      1.60089420725387
  N   -0.16687714305224      1.51489006806399      0.16817558642260
  O   -1.03802170201772      2.19590520869506      0.69161294706486
  O   0.87989865791571      1.91181043806723     -0.32664625974989
  C   1.17357550646508     -0.53027177054062     -1.69352354070796
  N   1.49011106218534     -0.40481041443385     -2.81578459493645
