13
Coordinates from ORCA-job run
  C   -0.51906143074475     -0.02093293124734      0.19369662747010
  C   0.24614757034043     -0.81530941914903     -0.85396845294235
  Cl  -2.28675277169701     -0.44252713436464     -0.01490989941072
  H   -0.16043595535817     -0.60239040747319     -1.84211998996649
  H   0.09380292795903     -1.87954837415469     -0.65143988125591
  N   -0.00879382592731     -0.18785876168725      1.48074598209959
  H   0.00310079461057     -1.15562687849333      1.77135652314341
  H   -0.47805370629908      0.39736615653678      2.15941589733745
  N   -0.46342286173420      1.47601275815571     -0.12549093523145
  O   -0.22848941454788      1.79075105582145     -1.28427282755666
  O   -0.69763645923775      2.22993162137423      0.80885206748668
  C   1.67413989827128     -0.50848601134184     -0.82577003607997
  N   2.82545523436484     -0.28338167397687     -0.81709507509366
