13
Coordinates from ORCA-job run
  C   -0.45214903957466     -0.04092422461824      0.06626240461914
  C   0.83224154667259     -0.21123620855204     -0.73763922689786
  Cl  -1.76636881596776     -1.00940113550049     -0.62597508264824
  H   0.63723739746740      0.02617687847685     -1.78313270612407
  H   1.57650675719331      0.50546109930348     -0.37164802313019
  N   -0.28240232476256     -0.36484815441905      1.41707657339328
  H   0.48761484298288      0.14465145062813      1.83244879104845
  H   -1.12716679636173     -0.21265170408308      1.95239602414402
  N   -0.91230810569826      1.44545949100804     -0.15262370473317
  O   -0.75944354856098      1.92313178816114     -1.26945824001717
  O   -1.40224526014065      2.00353209611241      0.82108633198260
  C   1.35832103839843     -1.56585509617781     -0.61272372670216
  N   1.81016230835200     -2.64549628033933     -0.53506941493463
