13
Coordinates from ORCA-job run
  C   -0.53489305831468      0.12123635106539      0.00140695322758
  C   0.79912576332128     -0.18224798007026     -0.70802969050227
  Cl  -1.86203239546861     -0.51474943928593     -0.95605013956999
  H   0.76993841439924      0.17851663725943     -1.73998234975920
  H   1.59693052686577      0.34357286715379     -0.17533625246890
  N   -0.67077209622133     -0.31368121631143      1.35025798616086
  H   -0.76909397204144     -1.31939882604050      1.39799449634232
  H   0.11492829924770     -0.00335425253696      1.90831072296025
  N   -0.59927551951181      1.66240495083639      0.05327098731523
  O   -1.36576346764054      2.26815898231772     -0.67556476318516
  O   0.20130018350428      2.14720896278794      0.84817372405613
  C   1.06257817472379     -1.61550180922764     -0.68163215699218
  N   1.25702914713633     -2.77116522794796     -0.62281951758467
