13
Coordinates from ORCA-job run
  C   -0.39927515326114      0.09692449279184      0.07861966789227
  C   0.77730023235024     -0.26448084145608     -0.82025141552721
  Cl  -1.84518602033329     -0.87987155952229     -0.45039775454544
  H   0.48096349310702     -0.20731504584722     -1.86687132153897
  H   1.57739081430820      0.45893024893098     -0.64455050270933
  N   -0.07840597510868      0.01147983913028      1.43718160886316
  H   -0.84471377673318      0.32033761087256      2.02191974737963
  H   0.22385583609462     -0.91847851970997      1.69889040252575
  N   -0.81492043639796      1.54511465431646     -0.19029546294818
  O   -1.51184948407189      2.06754786718933      0.66819780453727
  O   -0.44097162173739      2.05172803778143     -1.24038812888497
  C   1.25098993178217     -1.60560248124431     -0.49498253272008
  N   1.62582216000129     -2.67631430323300     -0.19507211232392
