13
Coordinates from ORCA-job run
  C   -0.52273246641837     -0.01279532040111      0.18526877831877
  C   0.24359217584687     -0.81290739874220     -0.85722704134635
  Cl  -2.29532979640231     -0.39392204311856     -0.05879450115708
  H   -0.14384635793927     -0.58475895041763     -1.84966445551532
  H   0.06862325890148     -1.87566127422522     -0.66560327567843
  N   -0.03897958279631     -0.20350921640098      1.47912784349509
  H   -0.50618431593830      0.38646475901384      2.15509883164549
  H   -0.05363072981787     -1.17388079373500      1.76073103504025
  N   -0.42910772153198      1.48588686603528     -0.11695626388404
  O   -0.16020040833540      1.80729968069541     -1.26628824064218
  O   -0.66863073949098      2.23485926480545      0.82014077313419
  C   1.67609850636052     -0.53182865776939     -0.80565008746644
  N   2.83032817756194     -0.32424691573988     -0.78018339594394
