13
Coordinates from ORCA-job run
  C   -0.46204002209954     -0.00225672627574      0.00706230344899
  C   0.86682253230606     -0.13564984105483     -0.73149868529682
  Cl  -1.76144243460353     -0.73058673854582     -0.93082424575225
  H   1.64708332039323      0.37950113990591     -0.16782348324760
  H   0.78972722781519      0.35147912764503     -1.70637955248496
  N   -0.40547723142080     -0.59003780056171      1.28923530177260
  H   0.32922669128496     -0.18414834613944      1.85623757159797
  H   -1.29630428435704     -0.55641906585042      1.76871008985139
  N   -0.76943008106637      1.53038950507945      0.12444197778382
  O   -1.93492243154347      1.89045281070788      0.17208544171332
  O   0.21946142239935      2.24138922776267      0.29289327075343
  C   1.22690224802786     -1.53853734719219     -0.90741403907770
  N   1.55039304286409     -2.65457594548079     -1.06672595106220
