13
Coordinates from ORCA-job run
  C   -0.54509331487533     -0.03921543242284      0.09677578593186
  C   0.41929258084141     -0.79217224116132     -0.80737736733579
  Cl  -2.23338493882054     -0.49888157720216     -0.43666151767165
  H   0.18993756876118     -0.57239114768760     -1.84957908681667
  H   0.26579134377644     -1.86377118799619     -0.64959753854948
  N   -0.27212504971529     -0.22078417938430      1.45203338756116
  H   -0.28748290914972     -1.19365850120552      1.72499119354711
  H   -0.87060532154783      0.34052454348239      2.04351188703430
  N   -0.47368561012583      1.46539974577489     -0.18247287406090
  O   -0.89657165019311      2.19343750656538      0.70497432355556
  O   -0.03744100438032      1.80988502529769     -1.27227717690355
  C   1.80869559232750     -0.44480852100723     -0.52007747749677
  N   2.93167271310145     -0.18356403305320     -0.30424353879519
