13
Coordinates from ORCA-job run
  C   -0.55490242026470     -0.04424692483971      0.15891785767440
  C   0.75079461255947     -0.73114022532712     -0.27168041197407
  Cl  -1.88262722269266     -0.62208388081288     -0.83149293994687
  H   0.62787572748732     -1.80801889924483     -0.13187118489610
  H   1.55065636049567     -0.38150800776443      0.38618001722156
  N   -0.89930728372141     -0.17023965001602      1.53843609050708
  H   -1.22959038599705     -1.10194963951888      1.74966299864536
  H   -0.11605346995066      0.08034409088278      2.12861360231512
  N   -0.33030401154306      1.46427883141407     -0.06494797698550
  O   0.53988360564105      1.92052719630131      0.67265091648349
  O   -0.97212902203414      2.06723582285322     -0.90587057528080
  C   1.11092577568208     -0.45248727367525     -1.65840732243388
  N   1.40277773433809     -0.22071144025226     -2.77119107132980
