13
Coordinates from ORCA-job run
  C   -0.60452512001334     -0.14526148276131      0.13864729324016
  C   0.28897683410400     -0.79314916684931     -0.91259839299246
  Cl  -2.29789288267438     -0.56986161308987     -0.18499418248912
  H   0.16843739100626     -1.87523905244907     -0.82878499202188
  H   -0.01915637903549     -0.47204046118977     -1.90679349987266
  N   -0.25584727332567     -0.51957033073824      1.44330606958592
  H   -0.83778850812944     -0.05476940169304      2.12851507728105
  H   0.71956572287599     -0.32066556400240      1.63532088132642
  N   -0.55164727120013      1.40730786231406     -0.08353524773966
  O   -0.62905130219452      2.09387664542538      0.92720258606676
  O   -0.46129608565069      1.80618814752408     -1.23698945946361
  C   1.68456938654362     -0.42979634647727     -0.68059035961415
  N   2.79265548769379     -0.12601923601324     -0.44070577330678
