13
Coordinates from ORCA-job run
  C   -0.66269980921909     -0.02524958153486      0.15318297064275
  C   0.24859625742120     -0.77713029683402     -0.83396106119825
  Cl  -2.33441489906893     -0.47959151118098     -0.21739505675303
  H   -0.01554433396646     -0.51400854987443     -1.86028667359547
  H   0.08935023465228     -1.85051658764527     -0.70074385303683
  N   -0.42811491977621     -0.18835212628078      1.53751104155601
  H   -0.54652283060458     -1.15202638192798      1.81931095872976
  H   0.47676666488709      0.17080137091575      1.81344182532058
  N   -0.47736410520590      1.46966550625929     -0.18526769996028
  O   -0.82374470251406      1.81391995480154     -1.30622462091848
  O   0.06628482081586      2.16391926948254      0.66365964261116
  C   1.64738958181081     -0.45387608169423     -0.56930777766065
  N   2.75901804076799     -0.17655498448656     -0.31391969573726
