13
Coordinates from ORCA-job run
  C   -0.42030028759409      0.00531194809483      0.17663930569295
  C   0.80636887155653     -0.75261631652096     -0.31178494858920
  Cl  -1.79077211800076     -0.26578820681147     -0.97719594125927
  H   1.65087330342902     -0.46743631044751      0.31899533592532
  H   0.61185080266084     -1.81894144704629     -0.16113347420670
  N   -0.70179075244618     -0.31410641633724      1.51851773505070
  H   -1.47454263033225      0.24248654088496      1.86488000377602
  H   -0.90680415871582     -1.29844602043181      1.63073966640525
  N   -0.17014625738199      1.51498838204767      0.16136034738959
  O   -1.03344026244916      2.19528974574735      0.69857503532087
  O   0.86368044754543      1.91377475485430     -0.35867788318891
  C   1.13741144213917     -0.53651387212236     -1.71596635253335
  N   1.42761159958927     -0.41700278191147     -2.84594882978327
