13
Coordinates from ORCA-job run
  C   -0.38378608642435      0.00230536667147      0.24668543415702
  C   0.73743521841123     -0.74777468318216     -0.45925651437863
  Cl  -1.93355060264691     -0.24763548488616     -0.65693912166652
  H   1.67924888054645     -0.47356208913365      0.02053054506285
  H   0.56829278421392     -1.81635342186034     -0.29487205158552
  N   -0.42928926353008     -0.34024060956598      1.61163635449356
  H   -0.61497863708769     -1.32640377075264      1.74056474098045
  H   -1.12882067527113      0.21004278236428      2.09615209705934
  N   -0.13436640693719      1.51209421636837      0.21403661501070
  O   0.79487955689630      1.91897822688827     -0.47092658895669
  O   -0.88883982828214      2.18366455616221      0.90431105557790
  C   0.82186444308164     -0.50725422767629     -1.89550803600028
  N   0.91291061702995     -0.36786086139738     -3.05641452975417
