13
Coordinates from ORCA-job run
  C   -0.65669704090989     -0.04009962648403      0.17085541232636
  C   0.24782269384050     -0.78243847804501     -0.83005740741803
  Cl  -2.32477593563575     -0.54468426312081     -0.14705780045963
  H   0.11997738020630     -1.85745283522311     -0.67787130688120
  H   -0.05050233378418     -0.54050519767172     -1.85218985932866
  N   -0.38087465613202     -0.17598101336107      1.55038189690720
  H   0.52321992323204      0.20605725542307      1.79649573348008
  H   -0.47323672212491     -1.13639898077148      1.85158613711910
  N   -0.52094688162851      1.45377381733235     -0.19413215925825
  O   0.02590539088410      2.17496927282154      0.62978429040103
  O   -0.90702466386202      1.77184582030757     -1.30985673058432
  C   1.64404836660661     -0.41965431878577     -0.60634634892802
  N   2.75408447930775     -0.11043145242155     -0.38259185737563
