19

C	0.0	0.0	0.0
C	-0.479991	0.177095	-1.460768
Cl	1.808548	0.0	0.0
H	-1.570909	0.105416	-1.383129
C	-0.435495	1.140961	0.908931
H	-1.52603	1.206228	0.858194
H	0.016049	2.091753	0.621436
H	-0.139	0.920067	1.939017
N	-0.468272	-1.297679	0.440452
H	-1.491179	-1.237973	0.397521
H	-0.219187	-1.422866	1.416905
N	-0.030507	-0.885999	-2.356817
H	0.985264	-0.86802	-2.377284
H	-0.2836	-1.76616	-1.919771
C	-0.13471	1.527432	-2.066954
H	-0.47951	1.528808	-3.102629
H	0.945201	1.706239	-2.062103
H	-0.629914	2.344255	-1.540209
Cl	-3.744873	0.0	0.0
