19

C	0.0	0.0	0.0
C	-0.37413	0.049861	-1.507557
Cl	1.880519	0.0	0.0
H	0.305647	0.783654	-1.955297
C	-0.446138	1.236513	0.747877
H	-1.537284	1.218369	0.80733
H	-0.025802	1.24476	1.757022
H	-0.111801	2.138955	0.232419
N	-0.511262	-1.151453	0.622906
H	-0.121578	-2.009774	0.26384
H	-0.451951	-1.121468	1.630583
N	-1.726239	0.479198	-1.785951
H	-2.432223	-0.047318	-1.267768
H	-1.866584	1.443633	-1.514477
C	-0.153165	-1.297436	-2.186742
H	-0.278411	-1.167859	-3.26253
H	-0.917431	-2.003601	-1.852361
H	0.840381	-1.708023	-1.990097
Cl	-4.472667	0.0	0.0
