19

C	0.0	0.0	0.0
C	-0.38498	0.184242	-1.507468
Cl	1.801126	0.0	0.0
H	0.467571	0.691635	-1.968277
C	-0.417336	1.200949	0.840139
H	-0.015633	1.084561	1.852513
H	-1.507323	1.231795	0.88287
H	-0.054406	2.13643	0.413375
N	-0.491908	-1.254528	0.518673
H	-1.508644	-1.226547	0.411781
H	-0.307544	-1.278891	1.517525
N	-1.509954	1.099866	-1.661358
H	-1.707407	1.185863	-2.652569
H	-2.354715	0.725459	-1.223773
C	-0.551684	-1.163487	-2.214027
H	-1.455839	-1.666688	-1.868482
H	0.302059	-1.82426	-2.044604
H	-0.654668	-0.986057	-3.290707
Cl	-4.035936	0.0	0.0
