19

C	0.0	0.0	0.0
C	-0.300372	-0.008581	-1.524186
Cl	1.831121	0.0	0.0
H	0.204494	-0.917843	-1.898916
C	-0.521468	1.228119	0.70413
H	-0.187034	2.126508	0.189691
H	-1.615922	1.192356	0.690776
H	-0.177344	1.231394	1.73974
N	-0.442468	-1.180274	0.688235
H	-1.439518	-1.087578	0.871273
H	-0.301571	-1.998373	0.105084
N	0.227909	1.204238	-2.15471
H	1.231103	1.133366	-2.264527
H	-0.184553	1.295789	-3.075186
C	-1.775688	-0.113258	-1.858059
H	-1.87649	-0.249193	-2.941836
H	-2.327337	0.77799	-1.567296
H	-2.273161	-0.944788	-1.366208
Cl	-4.505315	0.0	0.0
