19

C	0.0	0.0	0.0
C	-0.336918	0.081953	-1.538288
Cl	1.803515	0.0	0.0
H	0.404575	0.770891	-1.959876
C	-0.466056	1.247852	0.726004
H	-0.093483	1.229598	1.751209
H	-0.098495	2.146875	0.225774
H	-1.558927	1.256693	0.739927
N	-0.496166	-1.146209	0.713642
H	-0.29852	-1.995515	0.198079
H	-1.509837	-1.048854	0.786041
N	-1.6369	0.607859	-1.894876
H	-1.724441	1.568488	-1.590855
H	-2.403763	0.114829	-1.43852
C	-0.170545	-1.273932	-2.215521
H	-0.22775	-1.135007	-3.295995
H	-0.992199	-1.936904	-1.929052
H	0.780942	-1.751265	-1.967261
Cl	-4.158837	0.0	0.0
