19

C	0.0	0.0	0.0
C	-0.322431	0.220339	-1.500757
Cl	1.825992	0.0	0.0
H	0.07152	-0.683443	-2.001253
C	-0.492367	1.12914	0.875405
H	-0.129232	2.08003	0.486424
H	-0.139118	0.982584	1.897987
H	-1.587687	1.13283	0.868993
N	-0.462826	-1.255706	0.512001
H	-0.382662	-1.976326	-0.196871
H	-1.441992	-1.166679	0.768292
N	0.315643	1.440026	-2.004551
H	-0.133375	1.700555	-2.873683
H	1.296542	1.277843	-2.189993
C	-1.808981	0.328023	-1.780568
H	-2.429665	-0.374449	-1.231199
H	-1.986678	0.16485	-2.850357
H	-2.18057	1.318631	-1.516335
Cl	-4.617721	0.0	0.0
