13
Coordinates from ORCA-job run
  C   -0.92320472844215     -0.00543857550600     -0.43693004843327
  C   0.56529288176570     -0.33248809746847     -0.64129798328069
  Cl  -1.82925331776196     -0.40456424585634     -1.93489286873767
  H   0.62406559632344     -1.39268100164135     -0.90214248808395
  H   0.90084881785928      0.24138002842154     -1.50932903227691
  C   -1.47664461238513     -0.79742627270076      0.66550720015452
  N   -1.87216695611009     -1.45213815363710      1.55744791811660
  C   -1.10372286517624      1.42086324386955     -0.15102063499746
  N   -1.19649212519554      2.56969107747821      0.07757524363383
  C   1.40848440044455     -0.01849141317694      0.58839671728341
  H   2.45155308121991     -0.26966648803219      0.38758110666098
  H   1.08612633289220     -0.59990226152851      1.45444789179652
  H   1.36411349456604      1.04186215977837      0.84465697816408
