13
Coordinates from ORCA-job run
  C   -0.89701430527765     -0.16288531786963      0.15577186379886
  C   0.44471710205773     -0.29431743262727     -0.58822867043629
  Cl  -1.00631683070677     -1.39215643654590      1.46290037249324
  H   0.39448719308374      0.38409066913046     -1.44649278252935
  H   0.48948325606201     -1.31553201641260     -0.97692317678001
  C   -1.02846821510249      1.16603964295772      0.75979937785037
  N   -1.09193965184515      2.24247993193421      1.22622208359056
  C   -2.00819224844472     -0.38860738421316     -0.77261085417165
  N   -2.86812382574131     -0.57505594537234     -1.55143145683145
  C   1.65650498788944      0.02464511707289      0.27573185907077
  H   1.72415269080557     -0.64600151316236      1.13292274474396
  H   1.62668199550688      1.05363377553543      0.63996340746588
  H   2.56502785171272     -0.09433309042744     -0.31762476826489
