13
Coordinates from ORCA-job run
  C   -0.81920910154005      0.42528404802327     -0.06099657608085
  C   0.44902691031892     -0.26158464334956     -0.60032590893230
  Cl  -0.53235849851224      2.18806687959576      0.14426669012534
  H   0.17198072427068     -1.29646956319071     -0.82746020085411
  H   0.69407479585004      0.22964205411944     -1.54614008008933
  C   -1.92317126301730      0.25324125542083     -1.00925870910695
  N   -2.78000929632473      0.09000036625514     -1.79674126478364
  C   -1.20089248447667     -0.13464614864732      1.23861130836132
  N   -1.47026408535873     -0.61253895749147      2.27746572534105
  C   1.62377872138453     -0.22205798747895      0.36659076664266
  H   1.38932387258194     -0.73784942865726      1.29997539809348
  H   1.91593898528635      0.80241252214608      0.59915647282037
  H   2.48178071953726     -0.72250039674526     -0.08614362153704
