13
Coordinates from ORCA-job run
  C   -0.84402660712470      0.08187939229974     -0.37131602113175
  C   0.59520296291027      0.52243769466277     -0.04607870535649
  Cl  -0.87071661044663     -0.88611648722338     -1.88603443527619
  H   0.52710067828746      1.21437481021964      0.79996117419150
  H   0.95186376944754      1.09101587972216     -0.90940566123052
  C   -1.39381598654057     -0.73889968556597      0.71136263471995
  N   -1.79440047643104     -1.38897586265193      1.60438744928303
  C   -1.69357670218385      1.25930215736624     -0.57014446748157
  N   -2.33456640765519      2.23299365305671     -0.71698796265140
  C   1.52924708958888     -0.63347546931915      0.28196199961549
  H   1.19207821755158     -1.17974054749470      1.16509882784922
  H   2.52747136276322     -0.24387127347275      0.48996543994500
  H   1.60813870983302     -1.33292426159940     -0.55077027247628
