13
Coordinates from ORCA-job run
  C   -0.86215803472614      0.04667938414392     -0.31940602670582
  C   0.58685212920985      0.52729790360421     -0.12209315666770
  Cl  -0.97199692206537     -1.01870359017572     -1.76351355863018
  H   0.56383486063823      1.27304791915486      0.67950224974399
  H   0.87570420221347      1.04165352573822     -1.04289781122925
  C   -1.32575292855394     -0.70821958552462      0.84820306530206
  N   -1.68743470953910     -1.28798487531996      1.80401477029420
  C   -1.74747972375579      1.19467094981518     -0.53390661504961
  N   -2.44621886831666      2.12807924478393     -0.67874777534485
  C   1.56092034167052     -0.59207205828851      0.21662391357230
  H   1.28998637648263     -1.08639977883141      1.15174146510500
  H   1.59956002738948     -1.34153056077395     -0.57440270257743
  H   2.56318324935281     -0.17651847832617      0.33588218218731
