13
Coordinates from ORCA-job run
  C   -0.81544217076071      0.43621240412005     -0.05200373826934
  C   0.48166720075686     -0.18564008937567     -0.60178199049910
  Cl  -0.54277416376394      2.15785453052397      0.38700886694159
  H   0.77880261565531      0.41884544703735     -1.46315737502576
  H   0.21803837344817     -1.18188445472408     -0.97205622419814
  C   -1.86369514156221      0.38925809313329     -1.07509615303948
  N   -2.67080756251599      0.32670554694752     -1.92664332267988
  C   -1.26811361199736     -0.28036710475018      1.14379725334530
  N   -1.59187887190088     -0.88869528685716      2.09537573018682
  C   1.60020097074480     -0.27627850323847      0.42630845355644
  H   1.87435375468030      0.70782417443035      0.80740715256102
  H   1.31604854090692     -0.90963339874454      1.26898792171552
  H   2.48460006630873     -0.71520135850244     -0.03914657459501
