13
Coordinates from ORCA-job run
  C   -0.92120338333936     -0.04100538964224     -0.43861336262733
  C   0.57661812388798     -0.33137778728581     -0.63129514866952
  Cl  -1.81163353299131     -0.50481377486405     -1.92726014239048
  H   0.66634632054226     -1.39440433069660     -0.87177453569348
  H   0.89937020471081      0.23544081612449     -1.50909026201449
  C   -1.45678294766249     -0.81735456371918      0.68305551116921
  N   -1.83791657305393     -1.45950364142377      1.59027133777003
  C   -1.14010461959481      1.38731799653522     -0.19357598227925
  N   -1.26186504936461      2.54011389323555     -0.00085934144220
  C   1.40558037177035      0.03004257612683      0.59517597945150
  H   1.09537834026972     -0.54272820380685      1.47156682068559
  H   2.45601628131732     -0.19657627837001      0.40332952679011
  H   1.33119646350807      1.09384868778643      0.83006959925031
