13
Coordinates from ORCA-job run
  C   -0.84695174207574      0.34496706986373     -0.14623799473351
  C   0.62183103215315      0.03839029532738     -0.49266563749968
  Cl  -0.96379130502445      1.90430347560389      0.74078175633041
  H   0.98814160139370      0.88384622215728     -1.08162593906917
  H   0.61292522705466     -0.84027472645572     -1.14615199426373
  C   -1.63661989325225      0.46124389692591     -1.37526410410922
  N   -2.22970000793301      0.53977769597228     -2.38647758585697
  C   -1.41275079818082     -0.71054390088595      0.69874568072809
  N   -1.82146862889269     -1.58031838766511      1.37477901445379
  C   1.49826131152664     -0.21047489055435      0.72643667233897
  H   1.51615762578564      0.65464210625364      1.38983471884359
  H   2.52168585231373     -0.40713782585153      0.40202151887404
  H   1.15427972513146     -1.07742103069144      1.29382389396339
