13
Coordinates from ORCA-job run
  C   -0.91279690301712     -0.15220946832035      0.03705988686579
  C   0.55238942641438     -0.48530242923065     -0.29992291196175
  Cl  -1.30860565496762     -0.70395113855554      1.70163006626256
  H   0.68993056719753     -0.25517802472766     -1.36166872055893
  H   0.66387407633144     -1.56647665133349     -0.17956880245046
  C   -1.14789330918553      1.29251512932922     -0.03881775952047
  N   -1.28754253155682      2.45684952147001     -0.11206063481685
  C   -1.80921410335168     -0.84146831651244     -0.89513401462415
  N   -2.48764320999312     -1.40922888780159     -1.66831715142163
  C   1.56251594271037      0.27495374960543      0.54740059192790
  H   2.57255297463327     -0.02268372325295      0.25997600709403
  H   1.43758330849164      0.05915574440212      1.60886005915473
  H   1.47584941629326      1.35302449492788      0.39856338404924
