13
Coordinates from ORCA-job run
  C   -0.92649272599782     -0.03773734183139     -0.42703007236558
  C   0.57083971772080     -0.31024743573568     -0.64761392316973
  Cl  -1.83284001579018     -0.46564750539555     -1.91693330445907
  H   0.87599397384966      0.27834600666423     -1.51723475902243
  H   0.66545977481719     -1.36691719412114     -0.91281743076200
  C   -1.44046876172782     -0.85162465120432      0.67830658587443
  N   -1.80676371445444     -1.52217203945778      1.57095979592823
  C   -1.15471634282701      1.38048417092318     -0.13613363031738
  N   -1.28485788490765      2.52503610198820      0.09590208344669
  C   1.41446714047430      0.03009667986001      0.57472866373035
  H   2.46456594884459     -0.17739904023610      0.36079829354462
  H   1.33036886058493      1.08619827779199      0.83876924252956
  H   1.12544402941341     -0.56941602924562      1.44029845504242
