13
Coordinates from ORCA-job run
  C   -0.92665650839449     -0.03469725315119     -0.42705108322404
  C   0.56939759704532     -0.31429960275597     -0.64693866621664
  Cl  -1.83525926008922     -0.46230307641023     -1.91571289100576
  H   0.87750478894662      0.27139578313623     -1.51742398630528
  H   0.65942503819090     -1.37178828788261     -0.91025342192740
  C   -1.44445675282429     -0.84331165670623      0.68021618858044
  N   -1.81175959963215     -1.51227306777182      1.57364546154798
  C   -1.14821229440533      1.38544805731005     -0.14003526964142
  N   -1.27292600995478      2.53086365784868      0.09041034380261
  C   1.41429375184180      0.02535609323454      0.57474729258534
  H   1.33995647400772      1.08408520734955      0.83147998562802
  H   2.46266649265267     -0.19401011366409      0.36394972949851
  H   1.11802628261524     -0.56546574053691      1.44396631667764
