13

C	-0.431086	0.059254	-1.445485
C	0.0	0.0	0.0
F	-1.817181	0.272899	-1.530344
H	1.094856	0.0	0.0
H	0.064628	0.909261	-1.919346
H	-0.199395	-0.862887	-1.972871
N	-0.45198	-1.348139	0.57089
O	-1.060654	-1.379168	1.633143
O	-0.155383	-2.341174	-0.092682
N	-0.477383	1.067162	0.803449
H	-1.282786	1.530758	0.41286
H	0.26607	1.705832	1.038548
Br	3.46194	0.0	0.0
