13

C	-0.494949	0.105074	-1.414825
C	0.0	0.0	0.0
F	-1.897208	0.134427	-1.420706
H	1.091603	0.0	0.0
H	-0.17182	-0.74482	-2.011931
H	-0.134803	1.0427	-1.837526
N	-0.400879	-1.38681	0.527473
O	-0.933921	-1.449927	1.635125
O	-0.146647	-2.355462	-0.182133
N	-0.483516	1.059992	0.812413
H	-1.470832	0.949233	0.998164
H	0.017761	1.076082	1.689358
Br	3.48304	0.0	0.0
