13

C	-0.466397	0.009413	-1.429946
C	0.0	0.0	0.0
F	-1.868693	0.015544	-1.468963
H	1.09289	0.0	0.0
H	-0.115481	-0.871079	-1.963739
H	-0.110387	0.92411	-1.903081
N	-0.425999	-1.352752	0.592269
O	-1.086002	-1.345576	1.630678
O	-0.078916	-2.364401	-0.008074
N	-0.502623	1.107769	0.730892
H	-1.500034	1.016847	0.869808
H	-0.049504	1.162956	1.631082
Br	3.493595	0.0	0.0
