15

C	0.0	0.0	0.0
C	-0.57628	-0.124087	-1.401388
F	1.386013	0.0	0.0
H	-1.680312	-0.222052	-1.178066
H	-0.328523	0.749568	-2.001585
C	-0.411242	1.333117	0.494977
N	-0.571473	2.416139	0.920485
C	-0.461975	-1.068266	0.976277
H	-0.070011	-0.823618	1.96724
H	-1.555442	-1.03557	0.949774
H	-0.073619	-2.03561	0.659706
N	-0.017461	-1.278968	-2.13453
O	-0.203563	-2.40906	-1.682905
O	0.594428	-1.050871	-3.183829
F	-2.801383	0.0	0.0
