15

C	0.0	0.0	0.0
C	-0.599369	-0.116824	-1.389158
F	1.385904	0.0	0.0
H	-0.359731	0.754575	-1.995959
H	-1.712502	-0.183787	-1.132956
C	-0.402747	1.341345	0.485969
N	-0.560751	2.43068	0.894413
C	-0.464045	-1.047856	0.998608
H	-0.068712	-0.786187	1.983747
H	-1.556925	-1.008383	0.976066
H	-0.084183	-2.022616	0.699011
N	-0.120275	-1.278461	-2.160639
O	-0.099962	-2.389174	-1.627917
O	0.192564	-1.07869	-3.338426
F	-2.818316	0.0	0.0
