15

C	0.0	0.0	0.0
C	-0.608318	-0.019726	-1.376884
F	1.389205	0.0	0.0
H	-0.388361	-0.956442	-1.886898
H	-1.72427	0.072855	-1.117094
C	-0.404713	1.186449	0.785489
N	-0.573583	2.083999	1.52315
C	-0.464434	-1.249623	0.736785
H	-1.558549	-1.205422	0.73355
H	-0.055217	-1.245124	1.749066
H	-0.089681	-2.130579	0.205298
N	-0.137534	1.052709	-2.265665
O	0.101348	2.160725	-1.782706
O	-0.0492	0.78552	-3.46851
F	-2.828792	0.0	0.0
