15

C	0.0	0.0	0.0
C	-0.572914	-0.006311	-1.396127
F	1.389053	0.0	0.0
H	-0.362433	-0.952449	-1.892574
H	-1.678084	0.136477	-1.198132
C	-0.409286	1.191134	0.77604
N	-0.584279	2.095446	1.501107
C	-0.4849	-1.246851	0.72053
H	-0.088967	-2.124068	0.201489
H	-0.115658	-1.233749	1.747958
H	-1.579328	-1.195856	0.67619
N	0.003704	1.033285	-2.265461
O	0.267957	0.708227	-3.426598
O	0.165103	2.164148	-1.809741
F	-2.812157	0.0	0.0
