15

C	0.0	0.0	0.0
C	-0.50059	0.312771	-1.416931
F	1.38543	0.0	0.0
H	0.37038	0.57573	-2.030553
H	-1.234504	1.104048	-1.391838
C	-0.406569	1.133979	0.85685
N	-0.502341	2.069624	1.561161
C	-0.383987	-1.319311	0.663701
H	-1.467976	-1.392465	0.619212
H	-0.029654	-1.270599	1.697031
H	0.12674	-2.132877	0.151435
N	-1.174356	-0.78133	-2.166609
O	-2.034852	-0.438287	-2.97118
O	-0.754008	-1.929813	-2.043856
F	-2.519874	0.0	0.0
