15

C	0.0	0.0	0.0
C	-0.232635	-0.069673	-1.519961
F	1.392951	0.0	0.0
H	0.248429	0.806655	-1.956662
H	0.276979	-0.971731	-1.860177
C	-0.471363	1.252005	0.599227
N	-0.556486	2.304048	1.117296
C	-0.389094	-1.238437	0.786399
H	0.028614	-1.147808	1.794059
H	-1.478011	-1.274585	0.790446
H	0.061177	-2.107991	0.297415
N	-1.592707	-0.127345	-2.122197
O	-2.073661	0.933659	-2.502584
O	-2.032557	-1.243576	-2.382227
F	-2.480685	0.0	0.0
