15

C	0.0	0.0	0.0
C	-0.616872	0.008816	-1.373115
F	1.383488	0.0	0.0
H	-1.733771	0.092904	-1.107927
H	-0.403442	-0.917532	-1.905709
C	-0.402337	1.174058	0.807829
N	-0.579298	2.061433	1.555438
C	-0.470759	-1.260267	0.713951
H	-0.066002	-1.273857	1.728212
H	-0.098059	-2.133358	0.169698
H	-1.564552	-1.21036	0.708641
N	-0.159539	1.100657	-2.246994
O	-0.173176	0.884197	-3.461419
O	0.166424	2.174003	-1.740713
F	-2.838538	0.0	0.0
