18

C	-0.491462	-0.037145	-1.459866
C	0.0	0.0	0.0
Br	-0.006694	1.681601	-2.299159
H	1.094758	0.0	0.0
C	0.250629	-1.135987	-2.202184
H	1.328499	-0.988211	-2.106409
H	-0.030092	-1.142079	-3.258454
H	-0.012488	-2.094977	-1.749656
C	-2.000316	-0.178593	-1.553003
H	-2.292257	-1.13	-1.101053
H	-2.319748	-0.175353	-2.597365
H	-2.506986	0.638502	-1.034
N	-0.400104	-1.247192	0.670215
H	0.350123	-1.512822	1.301077
H	-1.242728	-1.108875	1.218701
C	-0.505853	1.173156	0.723804
N	-0.965833	2.036622	1.375923
Cl	3.360549	0.0	0.0
