18

C	-0.491282	0.009116	-1.463044
C	0.0	0.0	0.0
Br	0.125389	-1.673914	-2.284332
H	1.094651	0.0	0.0
C	-2.006314	0.02565	-1.552856
H	-2.332524	-0.043339	-2.592998
H	-2.41997	-0.816926	-0.996677
H	-2.38941	0.959907	-1.127949
C	0.170237	1.151595	-2.217056
H	-0.080834	1.108747	-3.279608
H	1.254131	1.097311	-2.095111
H	-0.181595	2.107516	-1.81504
N	-0.490518	-1.156707	0.755297
H	0.31434	-1.63262	1.142512
H	-1.086979	-0.870251	1.519359
C	-0.435197	1.253248	0.633508
N	-0.83634	2.226357	1.157746
Cl	3.337242	0.0	0.0
