18

C	-0.284678	0.026898	-1.515191
C	0.0	0.0	0.0
Br	-2.25568	-0.074909	-1.825913
H	1.099475	0.0	0.0
C	0.230078	1.316403	-2.127811
H	1.299308	1.384257	-1.89924
H	-0.277585	2.188154	-1.71318
H	0.090553	1.310044	-3.211131
C	0.352688	-1.184349	-2.174447
H	1.426675	-1.152822	-1.957389
H	-0.062135	-2.116004	-1.787791
H	0.195288	-1.158604	-3.254986
N	-0.437657	-1.172071	0.737122
H	0.259032	-1.898787	0.639106
H	-1.331477	-1.500247	0.388343
C	-0.503425	1.212981	0.653503
N	-0.935402	2.178995	1.163195
Cl	3.33089	0.0	0.0
