18

C	-0.434102	-0.036365	-1.488245
C	0.0	0.0	0.0
Br	0.146317	1.657269	-2.316174
H	1.095869	0.0	0.0
C	0.307749	-1.15961	-2.196569
H	1.382036	-1.058079	-2.025282
H	-0.025079	-2.124929	-1.802059
H	0.102295	-1.138249	-3.269282
C	-1.941408	-0.120938	-1.675023
H	-2.319577	-1.067452	-1.273739
H	-2.447732	0.704635	-1.17114
H	-2.194516	-0.088079	-2.736954
N	-0.368497	-1.19134	0.761561
H	-1.280784	-1.550676	0.514574
H	0.339037	-1.901741	0.626814
C	-0.555407	1.175335	0.681254
N	-1.079528	2.071819	1.230153
Cl	3.347287	0.0	0.0
