14
Coordinates from ORCA-job run
  C   -0.88829633782027     -0.40601072583249     -0.08918587358376
  C   0.47369068170405      0.26958464223495     -0.27525031795077
  F   -0.92246364344341     -0.92218567039602      1.21842800888279
  H   0.45529665090850      0.72555525345960     -1.26942873852502
  H   -0.95720426771958     -1.27117025838226     -0.75397765322400
  N   -1.95492627282498      0.47959810197472     -0.36327640196932
  H   -1.96087752761184      1.26073181340175      0.28181959058245
  H   -2.84617637073235      0.00328278928872     -0.32974452417192
  C   1.62295516611274     -0.73731459386406     -0.17067743124962
  H   1.65464869814484     -1.35211914729420     -1.07299167149729
  H   1.47966461312716     -1.38537272628308      0.69328990031984
  H   2.58413397738563     -0.23109743512552     -0.07406084509573
  C   0.59704236213068      1.34348957590431      0.71502913306158
  N   0.66251227063882      2.22302838091359      1.49002682442077
