14
Coordinates from ORCA-job run
  C   -0.88513457777745     -0.41002380196740     -0.20616981681480
  C   0.48784381674920      0.25982695801013     -0.27406241735557
  F   -0.96715795372054     -1.07542160150283      1.03259046854851
  H   0.57133993268176      0.69290281237156     -1.27635032165730
  H   -0.94273865728833     -1.19336053449030     -0.96711882362096
  N   -1.93055769389629      0.51708812776673     -0.40375377892620
  H   -1.93834746024250      1.22270010896357      0.32325875224964
  H   -2.82970764250809      0.05532517421133     -0.42562372660843
  C   1.62661711638437     -0.73225407064735     -0.03091779527988
  H   1.57385953216036     -1.54114284275712     -0.76350823239198
  H   2.59474342165215     -0.23960772080717     -0.13109686473600
  H   1.54981968600581     -1.16093041678774      0.96732451182953
  C   0.53649269451463      1.36358042276277      0.68871620714479
  N   0.55292778528493      2.24231738487382      1.46671183761864
