14
Coordinates from ORCA-job run
  C   -0.90852461638095     -0.43475757621469     -0.05859013009214
  C   0.43823682445632      0.27242676327222     -0.20335810473675
  F   -0.89449106101878     -1.17340236176550      1.11857124814055
  H   0.44194642925666      0.76634586979053     -1.18348895191559
  H   -0.99545828490063     -1.18509422179115     -0.85748215613101
  N   -1.97977965888263      0.49857819169570      0.00744446151247
  H   -2.87333936892710      0.07858833173597     -0.20373395428172
  H   -1.83366504498471      1.32018785443210     -0.55914332232094
  C   1.60250134973332     -0.71896363109590     -0.13458750497970
  H   1.61505344936747     -1.21413403252699      0.83533420182086
  H   2.55377012104224     -0.20568088615121     -0.28030688544794
  H   1.49352939281787     -1.47690856991027     -0.91351160263480
  C   0.58710365879443      1.31674319618828      0.81489948442826
  N   0.75411680962649      2.15507107234092      1.61895321663846
