14
Coordinates from ORCA-job run
  C   -0.92308584707899     -0.19596291299701     -0.59589579075909
  C   0.53956084075025      0.25530943384991     -0.49720869855006
  F   -0.92950703326808     -1.46255786102162     -1.16065391683242
  H   0.93185512804172      0.25954601676496     -1.52002580795271
  H   -1.46069855523341      0.44011580066416     -1.31263496274878
  N   -1.52188742563759     -0.29090765720305      0.69949085619181
  H   -2.51276824083619     -0.47927419901246      0.61743858128360
  H   -1.39841283215548      0.56837977418045      1.22052595143155
  C   1.38057398901072     -0.68400348202414      0.37098972239458
  H   1.30284347232769     -1.69703966611494     -0.02324934219615
  H   2.42732498391789     -0.37630273226620      0.35614329224544
  H   1.02278362720460     -0.68684363676915      1.39927678763092
  C   0.57529435811384      1.62984075747414      0.00458933332619
  N   0.56512353484304      2.71970036447496      0.44221399453511
