14
Coordinates from ORCA-job run
  C   -0.90514803170994     -0.16743934868088     -0.63093683350009
  C   0.56481096673297      0.24238351568823     -0.47533559130753
  F   -0.92453475118500     -1.43079302485207     -1.20311148683919
  H   0.99398960573894      0.23961795468680     -1.48316587484800
  H   -1.39780358056160      0.48672421613700     -1.36356296671982
  N   -1.55505572199649     -0.25179432489701      0.64028885611494
  H   -1.42873910751349      0.60178754160920      1.17002487906557
  H   -2.54672786503651     -0.41337210801863      0.51955595520053
  C   1.34631541739104     -0.72356417825687      0.41890270220994
  H   1.26010840863529     -1.73189945285239      0.01455931896037
  H   2.40007082787071     -0.44190935348263      0.44915675240376
  H   0.94628701533367     -0.72330593913386      1.43147170555080
  C   0.62100866447916      1.61316893924529      0.03477535411211
  N   0.62741815182124      2.70139556280782      0.47637722959661
