14
Coordinates from ORCA-job run
  C   -0.99161454531820      0.26308406310944     -0.07611515317088
  C   0.50264090067583      0.18170754504876     -0.38733563377312
  F   -1.59929302713468      0.95605114637021     -1.13568296173903
  H   0.60935719039306     -0.39809571331410     -1.31314820510419
  H   -1.16499158196185      0.86479963280067      0.81996399587320
  N   -1.53858085477609     -1.02916971460426      0.10935373303628
  H   -1.48452009442453     -1.56491404168549     -0.74879236189448
  H   -2.50651404527670     -0.97455519105873      0.39771570676063
  C   1.28757328173202     -0.48764717343432      0.74337121613947
  H   2.35090189612807     -0.52328766041503      0.50192262743249
  H   1.16726878460058      0.07424739175297      1.67223295146157
  H   0.91736403989931     -1.49920668921982      0.90169435974365
  C   1.02079906220297      1.52601204770780     -0.65245837982531
  N   1.42960899326021      2.61097435694192     -0.83372189494028
