14

C	-0.387107	-0.009951	-1.448829
C	0.0	0.0	0.0
Br	-2.357132	-0.15497	-1.747986
H	1.094743	0.0	0.0
H	-0.379452	-0.911793	0.468363
C	0.045194	1.187934	-2.155373
N	0.36656	2.152492	-2.743702
N	0.19364	-1.24506	-2.135482
O	0.054198	-2.301888	-1.536101
O	0.730791	-1.094572	-3.226596
N	-0.455695	1.24404	0.609374
H	0.349732	1.656119	1.06316
H	-1.174466	1.081986	1.300133
F	2.570394	0.0	0.0
