14

C	-0.556124	0.006699	-1.406744
C	0.0	0.0	0.0
Br	0.207509	-1.448582	-2.457385
H	1.091225	0.0	0.0
H	-0.342694	-0.932379	0.464752
C	-2.010904	-0.115314	-1.447153
N	-3.174418	-0.278675	-1.390045
N	-0.186074	1.304571	-2.133652
O	0.855541	1.844839	-1.808056
O	-0.961383	1.674437	-3.013182
N	-0.522405	1.199509	0.659158
H	-1.110995	0.963736	1.445872
H	0.281148	1.714846	0.999402
F	2.609906	0.0	0.0
