14

C	-0.494753	0.018879	-1.427053
C	0.0	0.0	0.0
Br	-2.46386	0.203551	-1.551178
H	1.091935	0.0	0.0
H	-0.337046	0.939326	0.458178
C	0.074335	1.120458	-2.193257
N	0.476323	2.045062	-2.796866
N	-0.093546	-1.294774	-2.112202
O	-0.903174	-2.205112	-2.175512
O	1.071683	-1.31722	-2.489226
N	-0.441623	-1.205031	0.677412
H	0.352595	-1.55431	1.198088
H	-1.21087	-1.038021	1.310313
F	2.574088	0.0	0.0
