14

C	-0.52606	0.010297	-1.423043
C	0.0	0.0	0.0
Br	0.238202	-1.458536	-2.452092
H	1.090212	0.0	0.0
H	-0.353593	-0.929857	0.464025
C	-1.981478	-0.089491	-1.50019
N	-3.148931	-0.229645	-1.468792
N	-0.109534	1.310277	-2.122152
O	-0.965464	1.864642	-2.809354
O	1.038325	1.675802	-1.953694
N	-0.500007	1.217343	0.632851
H	0.284316	1.654204	1.099531
H	-1.229182	1.03158	1.308079
F	2.605397	0.0	0.0
