11
Coordinates from ORCA-job run
  C   1.02550510331785      0.30202932556479     -0.48626303040181
  C   -0.16420783005303      0.11333344732539      0.13838452215765
  H   1.42365999494135      1.29928396740518     -0.60844463407274
  C   1.73172469036215     -0.82823686292959     -0.96569880870657
  N   2.26889581615765     -1.80515739474615     -1.34805606729705
  N   -0.77894015549617     -1.04744249208236      0.46550137465032
  H   -1.76787939827326     -0.98642226776138      0.64883974793153
  H   -0.44921441009422     -1.88186360341642      0.00505693650150
  N   -0.90301873937672      1.31384195457205      0.60233134464356
  O   -2.05743293786707      1.12590278838734      0.98739712281096
  O   -0.32809213361853      2.39473113768114      0.56195149178267
