11
Coordinates from ORCA-job run
  C   0.75215304232215     -0.55785473773553     -0.67859126797227
  C   -0.32682502046931     -0.13719154382703      0.02715991551515
  H   0.69347982745116     -1.54449405709149     -1.13041108909953
  C   1.96167002136134      0.15135753027723     -0.88302849339965
  N   3.01037031170342      0.64177861312535     -1.10020743871149
  N   -1.51361910221289     -0.78922360680966      0.17421804282024
  H   -1.50841905490366     -1.77569460993169     -0.02890918671061
  H   -2.04418802869761     -0.51758123144949      0.98814463796764
  N   -0.33462531991233      1.18269136699291      0.70224233762809
  O   0.46269841649845      2.02929972881429      0.31825375473962
  O   -1.15269509314071      1.31791254763512      1.61312878722281
