11
Coordinates from ORCA-job run
  C   0.76713957853005     -0.58055316763946     -0.64208005047075
  C   -0.32325692640828     -0.14373333244973      0.03556350504326
  H   0.73554183217722     -1.59619470498690     -1.02742842004320
  C   1.95812359319545      0.14552797801604     -0.89128948206757
  N   2.99351434113497      0.64967817998862     -1.13877064395733
  N   -1.49299760027949     -0.81590095763427      0.22431884795934
  H   -1.46112264634137     -1.81285329689269      0.08438668610212
  H   -2.02957073440041     -0.50813422661703      1.02143353678208
  N   -0.36698191698909      1.21640634467526      0.62352269570322
  O   0.40736609822149      2.05747120997667      0.18448300716737
  O   -1.18875561884055      1.38828597356350      1.52486031778146
