11
Coordinates from ORCA-job run
  C   1.07467731742752      0.27651749396592     -0.38208158615395
  C   -0.16308154301893      0.10518211016351      0.14698565187307
  H   1.56028904966214      1.24025345072686     -0.32605297086516
  C   1.71378157054014     -0.82750997741886     -0.99751309722618
  N   2.19464532425748     -1.77740390763125     -1.50301988635021
  N   -0.89148228709771     -1.03066882482897      0.25739248734937
  H   -0.60327258403071     -1.81094256343474     -0.31287932106452
  H   -1.88181768588662     -0.90784812247978      0.39783609272676
  N   -0.82659160504212      1.28368349095881      0.75723368220723
  O   -2.01464774627483      1.14693931799757      1.04976094776109
  O   -0.16249981053635      2.30079753198094      0.91433799974249
