11
Coordinates from ORCA-job run
  C   1.04509243178547      0.10703221768825     -0.52431983573162
  C   -0.20276600343267      0.13467302363404      0.00826361048754
  H   1.46497379743379      0.99617463359887     -0.97287452451465
  C   1.77829992348907     -1.10419870224410     -0.48387196631480
  N   2.34441817834796     -2.13563108137103     -0.41380180906770
  N   -0.92906409002017     -0.88348151988224      0.52545579580750
  H   -0.42967251069856     -1.72864148838197      0.75602322035610
  H   -1.69173459259231     -0.62111098261432      1.12940618450040
  N   -0.93832780584399      1.42326289178453     -0.01080744597426
  O   -0.46159372914065      2.34812427395428     -0.65731267665270
  O   -1.97962559932793      1.46379673383368      0.64483944710419
