11
Coordinates from ORCA-job run
  C   0.98667503054626      0.24567001267183     -0.58724675457709
  C   -0.19720412702350      0.12636052164711      0.06499785364255
  H   1.37288881693748      1.22314219495962     -0.83893803749967
  C   1.69435480539923     -0.92971988860620     -0.93869470446756
  N   2.24092720899582     -1.94115534295087     -1.19838321417461
  N   -0.88535184411557     -0.99629455758195      0.38011576435385
  H   -1.57265003019408     -0.90194805987136      1.11102283079128
  H   -0.37709612222662     -1.86633715224707      0.33904436893862
  N   -0.90629251742440      1.37116784687075      0.45144774739276
  O   -0.48600827992969      2.43360961630143      0.00963178459852
  O   -1.86824294096494      1.23550480880671      1.20800236100136
