11
Coordinates from ORCA-job run
  C   0.89380984707839     -0.66566648882453     -0.31072334176616
  C   -0.29633461089276     -0.16568636839054      0.10493799797140
  H   0.93959025268633     -1.73351373914292     -0.50704299700363
  C   2.08898267389600      0.06229845889614     -0.53252677261723
  N   3.12804442967319      0.56694528523875     -0.76316722783903
  N   -1.43073414901993     -0.86958274705950      0.37296742130412
  H   -1.48398794346161     -1.79688845115421     -0.01611273509096
  H   -2.28181137922700     -0.33005729657623      0.32682934253033
  N   -0.46763022404144      1.28180930265551      0.37639063501962
  O   0.53774741712734      1.95171739327366      0.57739063912902
  O   -1.62667631381850      1.69862465108386      0.37105703836251
