11
Coordinates from ORCA-job run
  C   0.77832051979672     -0.58584119744381     -0.61352495709675
  C   -0.28057641511744     -0.16892085341616      0.12695324364380
  H   0.73908510347800     -1.60914279022655     -0.98155585520091
  C   1.94411445217745      0.14347519985239     -0.95696551304138
  N   2.95405633997556      0.63528728407823     -1.31430915853524
  N   -1.35203122863401     -0.92424606730412      0.49496066387868
  H   -2.15476611503218     -0.39675221410310      0.80083720943844
  H   -1.54168040469774     -1.74303150706665     -0.05850468423927
  N   -0.33954678405883      1.20671034070406      0.68851628552891
  O   -1.43239769486800      1.56658402814027      1.12895305277272
  O   0.68642222698047      1.87487777678544      0.68263971285101
