11
Coordinates from ORCA-job run
  C   0.96939313480749     -0.62015531360647     -0.11735456452847
  C   -0.27552800512071     -0.15868479364335      0.15926665327240
  H   1.14459238193221     -1.68355186281712      0.02222312149437
  C   2.07079000751403      0.13810614499617     -0.58600213047267
  N   3.04284702897989      0.66569254278914     -0.99139834062470
  N   -1.31938655716007     -0.87272670937866      0.66433789578553
  H   -2.22856651839488     -0.47719511194670      0.47831259014302
  H   -1.25804532101557     -1.87436688823711      0.57962736143417
  N   -0.62125981759223      1.27151493781826     -0.02237492876455
  O   0.29480579376720      2.08349745940269     -0.06187892309509
  O   -1.82164212771739      1.52786959462314     -0.12475873464400
