11
Coordinates from ORCA-job run
  C   0.84813059407967     -0.64187538901924     -0.45590211336131
  C   -0.30317077567358     -0.16789998766500      0.08160488295141
  H   0.82955009404259     -1.65368370924612     -0.85192388911172
  C   2.07793748450939      0.05224807386095     -0.57277179037653
  N   3.13773864398774      0.53935929044664     -0.73717435170560
  N   -1.47093539324525     -0.84867699975156      0.24786039281473
  H   -1.58519468166956     -1.68117918034351     -0.30728183182773
  H   -2.28983045922858     -0.26441110011883      0.32430251945476
  N   -0.38566640919819      1.20967542820674      0.62404564974141
  O   0.65956778420053      1.77227941090885      0.92549527803500
  O   -1.51812688180474      1.68416416272107      0.72174525338558
