11
Coordinates from ORCA-job run
  C   1.11387067097172      0.25557718548686     -0.26651351544226
  C   -0.16976003177511      0.09803547979424      0.14406917241961
  H   1.63573288717909      1.18256409100757     -0.07542127146528
  C   1.75257606248549     -0.81326071933417     -0.94152533874141
  N   2.23264534560020     -1.73067839502641     -1.50467554548883
  N   -0.95412397366722     -1.00343182340739      0.08204895233435
  H   -0.65427806894274     -1.74005000455860     -0.53794353393876
  H   -1.94623608592506     -0.84378173490698      0.15743948771968
  N   -0.83002410994452      1.24511145489824      0.81564704468970
  O   -0.13631268215588      2.20385633076953      1.13169096080335
  O   -2.04409001382597      1.14405813527710      0.99418358710986
