11
Coordinates from ORCA-job run
  C   0.78185119639976     -0.59852181021373     -0.60707300902207
  C   -0.32237403453525     -0.14532212361401      0.03675936794765
  H   0.76499424926166     -1.62893788686195     -0.95189287116727
  C   1.97037140808208      0.12767557642827     -0.86735988712875
  N   3.00542751897009      0.62986950784899     -1.12035271679524
  N   -1.48772930833589     -0.82094019370599      0.23742671333193
  H   -1.44531237853080     -1.82249106728286      0.14067670093316
  H   -2.04122076967983     -0.48339782967002      1.01037812072226
  N   -0.38730212666026      1.23736449709349      0.56758584215070
  O   -1.22549483645025      1.43882860458245      1.44740910205929
  O   0.38678908147871      2.06687272539538      0.10644263696833
