11
Coordinates from ORCA-job run
  C   0.91846363191885      0.12492903408757     -0.72051010500257
  C   -0.20244247144238      0.12701897505076      0.04424781222363
  H   1.20421022438148      1.01156383789877     -1.26866652535884
  C   1.69537478530381     -1.05722366087009     -0.79183336690209
  N   2.30598640160073     -2.06522707414602     -0.80763986416337
  N   -0.77052560369930     -0.89606142210680      0.72413157729185
  H   -1.41420100259671     -0.63846812468295      1.45526474114353
  H   -0.19940424788040     -1.71231645365748      0.88036568433170
  N   -0.98193869090911      1.38700171619227      0.13064058705936
  O   -0.68317221138537      2.30154057168838     -0.62753532057980
  O   -1.87235081529161      1.41724260054560      0.98053477995659
