11
Coordinates from ORCA-job run
  C   1.10784281400572      0.25283615855907     -0.29228148029773
  C   -0.18127777137350      0.11935389787744      0.10940102380187
  H   1.56943018644095      1.22975282914350     -0.32043280768937
  C   1.83268641790061     -0.90608144144700     -0.66321263982197
  N   2.38564897060275     -1.90166951111045     -0.96696592843063
  N   -0.90104677828786     -1.01116328271696      0.30020068578677
  H   -1.90261119670070     -0.89977997980177      0.30721757848765
  H   -0.53668477942354     -1.85611557765929     -0.11237934248660
  N   -0.92995503157933      1.35157015881200      0.46176733758237
  O   -0.30325261543059      2.40041545075741      0.54910079876538
  O   -2.14278021615449      1.22088129758604      0.62858477430224
