11
Coordinates from ORCA-job run
  C   0.84803766005740     -0.67905580699051     -0.46090303075454
  C   -0.29136810878697     -0.18358496730128      0.07794063035409
  H   0.88168798198371     -1.73934999211339     -0.69435429883586
  C   1.99718472562014      0.09677440882185     -0.75634790204960
  N   2.98561158900753      0.68341926071604     -1.01213901471273
  N   -1.43628426890642     -0.86527102901817      0.34927965104660
  H   -1.68033467009452     -1.64617721020574     -0.23398372239060
  H   -2.18971187917186     -0.37058272218289      0.79366051898186
  N   -0.34803337637128      1.21971884289442      0.53011069628368
  O   0.03935070487019      2.08273626606216     -0.25066231222682
  O   -0.80614035820792      1.40037294931750      1.65739878430395
