11
Coordinates from ORCA-job run
  C   0.88472775500366      0.18561893421740     -0.76418722388603
  C   -0.16540085812581      0.14546879106321      0.09716630162046
  H   1.07468539809872      1.06578376472823     -1.36289329489694
  C   1.70601198676208     -0.96440950640275     -0.86459423677244
  N   2.35107766460321     -1.95136072890434     -0.87881813233517
  N   -0.51495422031357     -0.84650849548420      0.94660420257917
  H   -0.12638730034733     -1.76257417405257      0.79169253426611
  H   -1.44101123391183     -0.78174086880499      1.34267840470221
  N   -1.03438244298363      1.33839454244791      0.19883355741688
  O   -2.01760985932970      1.23833579591803      0.93422381157374
  O   -0.71775688945581      2.33399194527408     -0.44170592426799
