11
Coordinates from ORCA-job run
  C   1.07874952436544      0.19238828583752     -0.42064577648250
  C   -0.15373823846344      0.12301628861652      0.14254528819573
  H   1.61880240635737      1.12849193665373     -0.43341646773981
  C   1.64260306790283     -0.98117411330299     -0.97832255247434
  N   2.05805558925192     -1.98646446591508     -1.43209927861273
  N   -0.93997584637999     -0.96133081255965      0.33855378135503
  H   -1.91824847497099     -0.77487276051986      0.49221747940271
  H   -0.70820403881362     -1.79150085054504     -0.18487608363669
  N   -0.73806482953787      1.37206159360734      0.69095291582290
  O   -1.92607515685988      1.32118919350190      1.01038248364800
  O   -0.01490400285177      2.35719570462559      0.77470821052172
