11
Coordinates from ORCA-job run
  C   1.09557738248034      0.14728190464793     -0.39296108640650
  C   -0.16341133966482      0.14122916575225      0.11278515742029
  H   1.62007345716153      1.08156174527088     -0.53566129868336
  C   1.70828501298747     -1.08758851599019     -0.71877920572953
  N   2.16666304989249     -2.14232149418431     -0.97652308363391
  N   -0.94024311033268     -0.91516510424598      0.44900805637945
  H   -0.66565798176016     -1.81476757532528      0.08527549266168
  H   -1.92862489760719     -0.73131190602025      0.51793461895537
  N   -0.79742981963188      1.44840336974479      0.41389364092322
  O   -2.00194116893968      1.42185339657518      0.66758484074035
  O   -0.09429058458543      2.45082501377499      0.37744286737293
