11
Coordinates from ORCA-job run
  C   1.14607127084119      0.18292379572592     -0.17547054268014
  C   -0.17796733606119      0.11979648312837      0.11427239864024
  H   1.69029760722416      1.10562518674962     -0.03279976568834
  C   1.79565066474086     -0.97783008268320     -0.66203111887194
  N   2.28226685303251     -1.97059595927787     -1.07048657653321
  N   -1.00503652925016     -0.95156168180904      0.08849448551504
  H   -0.68282019251122     -1.76301871520014     -0.41600275359521
  H   -1.99087464505810     -0.74654079442471      0.04533802678713
  N   -0.84443467859080      1.35810725368930      0.58868986098371
  O   -0.13962156353748      2.32062355877481      0.86681885367851
  O   -2.07353145082977      1.32247095532694      0.65317713176420
