11
Coordinates from ORCA-job run
  C   0.84404708606065     -0.58049122208378     -0.53759424942297
  C   -0.28851050968555     -0.18485847960270      0.09484009985902
  H   0.84698766334738     -1.57795783108301     -0.96883376351830
  C   2.02818203979535      0.17814874544698     -0.71050318119669
  N   3.05039676849379      0.72209120157937     -0.92654404296368
  N   -1.40747613386189     -0.93020234570597      0.31187060799281
  H   -1.51919107193284     -1.74647931828466     -0.26719881616328
  H   -2.24619247090921     -0.39242170141102      0.46993870178125
  N   -0.39971854187954      1.16595001823844      0.69537950829072
  O   -1.54409944364049      1.57516230348326      0.89560617057010
  O   0.63557461421235      1.77205862942310      0.94203896477103
