11
Coordinates from ORCA-job run
  C   0.92527542052204      0.16472538921034     -0.70384900496441
  C   -0.15775435649020      0.14618398979454      0.11357901049027
  H   1.20360977256923      1.07420598966088     -1.21705173872573
  C   1.68280257433021     -1.02165657145900     -0.86132940603943
  N   2.27043334344387     -2.03865749492020     -0.95911549981625
  N   -0.60897578530715     -0.85491228936732      0.90505173093185
  H   -1.57058007100579     -0.78641490663270      1.19849813074619
  H   -0.25085775414534     -1.77888050084908      0.71815771178279
  N   -0.95619161247423      1.39067500171981      0.23712912135802
  O   -0.50150299801377      2.41698330042337     -0.25325278579316
  O   -2.03525853342887      1.28774809241936      0.82118273002986
