11
Coordinates from ORCA-job run
  C   0.93527698212921     -0.65940117214718     -0.16824056605050
  C   -0.31358383409894     -0.16694234021044      0.02514343713414
  H   1.06306474836866     -1.73386564554684     -0.07056632349487
  C   2.10676228366403      0.08427652833382     -0.45316225690932
  N   3.14237134127612      0.60168721992153     -0.67141436056082
  N   -1.44720343331567     -0.88408905152255      0.25674686044748
  H   -1.32194522981888     -1.83040749174638      0.57680095241709
  H   -2.18955045415152     -0.36714267427142      0.70279282710049
  N   -0.58444546420174      1.28755225469671     -0.05270064220681
  O   -1.61955374614663      1.67451194811910      0.49165788721023
  O   0.22880680629535      1.99282042437364     -0.63705781508712
