11
Coordinates from ORCA-job run
  C   0.84921972951573     -0.66643500355934     -0.41654246233332
  C   -0.30905826189252     -0.15813573269421      0.07318218922017
  H   0.82336301684070     -1.68808176541029     -0.78619142497164
  C   2.09644390611805     -0.00035869043176     -0.50918636107901
  N   3.17283731446362      0.45863756107374     -0.64425618464422
  N   -1.49261679221612     -0.81433126780026      0.22071730323369
  H   -2.30423295987838     -0.21764441870850      0.26701114985172
  H   -1.60443522019909     -1.66308615136654     -0.30962092576990
  N   -0.38346737887985      1.23410382194237      0.57741141649616
  O   -1.51118097900949      1.72531491849306      0.64194938366026
  O   0.66312762513736      1.79101672846174      0.88452591633608
