11
Coordinates from ORCA-job run
  C   1.12845034837355      0.17067455436823     -0.27566920427728
  C   -0.19852135033302      0.14097440530729      0.00670391350578
  H   1.64107033156209      1.11613777463067     -0.38252768647496
  C   1.82037257904853     -1.05502280613964     -0.43410549953086
  N   2.34529471314089     -2.10428526372386     -0.54678286596630
  N   -1.02762535562107     -0.92591942499584      0.08519891923162
  H   -0.59547687662587     -1.83348741039698      0.16627254792299
  H   -1.88827357258903     -0.78068146491458      0.58894908947290
  N   -0.89584894852576      1.43554665496180      0.20583356111715
  O   -0.28963857623756      2.46361214094147     -0.06988911197239
  O   -2.04080329219274      1.37245083996142      0.65401633697133
