11
Coordinates from ORCA-job run
  C   0.83697894256936     -0.60436815820461     -0.52303925412803
  C   -0.33468016092795     -0.10792527267099     -0.05406864410830
  H   0.79995339134663     -1.56919217842362     -1.02175156765672
  C   2.11516268540307     -0.00171569121606     -0.42002257595662
  N   3.22245291088076      0.39659318496229     -0.36847884845405
  N   -1.57302742873003     -0.65575064403844     -0.20031601220053
  H   -2.24718165336598     -0.35758356383149      0.48846507759292
  H   -1.60290453097529     -1.63377232506572     -0.43872799162387
  N   -0.38579344184932      1.18911921070970      0.66186811994609
  O   0.54178827647038      1.97215880582947      0.49903966083350
  O   -1.37174899082163      1.37243663194948      1.37703203575561
