11
Coordinates from ORCA-job run
  C   1.00793865853762      0.15930193068751     -0.58019016384450
  C   -0.18583997269940      0.14334777921524      0.06461834401227
  H   1.48264105549994      1.09905336786662     -0.82355525511072
  C   1.60707830447752     -1.07325180260695     -0.93802021632531
  N   2.06024719398156     -2.12800938710135     -1.20492238455124
  N   -0.97484035958858     -0.91466424648716      0.36728269409490
  H   -0.54598963679714     -1.82639169126029      0.32342999352532
  H   -1.65434047707349     -0.76387444963151      1.09608326717996
  N   -0.78069544658093      1.44456788471826      0.45754108254900
  O   -1.75316263559495      1.39140153429513      1.21081583685420
  O   -0.26403668416215      2.46751908030449      0.02491680161610
