11
Coordinates from ORCA-job run
  C   0.85443191992911     -0.66003538035239     -0.41701254943213
  C   -0.30546096932075     -0.16387466741206      0.08092256471074
  H   0.83900952141679     -1.68431138541693     -0.77975895284024
  C   2.08936847251640      0.02475370373455     -0.53241986493628
  N   3.15466769742491      0.50196336826185     -0.69035264773833
  N   -1.47974562507644     -0.83409345604201      0.24356774718639
  H   -1.58827716104197     -1.68214674985540     -0.28847765710318
  H   -2.29657536521190     -0.24365797369239      0.28918036369210
  N   -0.39209042703750      1.23046139770607      0.57662070018584
  O   0.64994362040310      1.79917633849492      0.87828174254933
  O   -1.52427168400176      1.71176480457380      0.63944855372575
