11
Coordinates from ORCA-job run
  C   1.12439669626842      0.17044160526453     -0.29044282352568
  C   -0.16143316769405      0.11716314207204      0.13995138480366
  H   1.70757672605728      1.06962685901644     -0.15053747059765
  C   1.68480768943873     -0.97112384742890     -0.91404432224779
  N   2.09521613974509     -1.94732875806566     -1.43138182837438
  N   -1.01480371029386     -0.93350356735809      0.14187477031972
  H   -1.99414310847232     -0.70860452659220      0.21807939199155
  H   -0.76940509873948     -1.71903480696353     -0.44087942828437
  N   -0.73792880288088      1.33630531824312      0.75840172860192
  O   -1.95340227300869      1.32257224159396      0.95472551901825
  O   0.01911890957976      2.26448634021829      1.01525307829478
