11
Coordinates from ORCA-job run
  C   0.83900743926024     -0.64873636345082     -0.46259545276570
  C   -0.33494732696668     -0.10557459444124     -0.05501856008964
  H   0.79764795457155     -1.64116676850759     -0.90347446403257
  C   2.12532482050113     -0.06331144202528     -0.36121010430751
  N   3.23811427991760      0.31980087233697     -0.31154299418086
  N   -1.57878989938555     -0.64015755704085     -0.20270709726542
  H   -1.62068995397267     -1.62990117817065     -0.38400644441467
  H   -2.26689316773412     -0.28889149128748      0.44598099369831
  N   -0.38116750093921      1.23306267929132      0.58051926640962
  O   0.56639582547686      1.98780426505265      0.40025385144792
  O   -1.38400247072914      1.47707157824296      1.25280100550051
