11
Coordinates from ORCA-job run
  C   1.17091088329580     -0.05566287751037     -0.06566376177666
  C   -0.15888829772577      0.11793267940718      0.14156927954852
  H   1.88524242524573      0.60921377287554      0.39886966997719
  C   1.60001241192812     -1.12417087554790     -0.89069100770533
  N   1.89868865353876     -2.02376181490164     -1.59112890460952
  N   -1.19209691743464     -0.65357146986487     -0.26946051028623
  H   -2.09853899158459     -0.21365641761271     -0.27489685976085
  H   -1.00005410042780     -1.31984258685373     -1.00167485619424
  N   -0.58725904598755      1.26516503439984      0.97931781054739
  O   -1.79157338738844      1.52117084252733      0.97476303548880
  O   0.27355636654038      1.87818371308132      1.59899610477094
