15

C	0.0	0.0	0.0
C	-0.520604	0.163751	-1.447079
F	1.371493	0.0	0.0
H	-1.624138	0.065281	-1.366008
N	-0.470286	0.935215	0.96269
H	-1.4838	0.811396	1.03466
H	-0.267239	1.870685	0.63449
C	-0.395986	-1.367682	0.43017
N	-0.581911	-2.455206	0.830669
C	0.052167	-0.81692	-2.358736
N	0.532625	-1.612226	-3.076385
N	-0.267799	1.525969	-2.043771
O	-0.715915	1.696602	-3.169999
O	0.34455	2.364254	-1.385185
Cl	-3.422821	0.0	0.0
