15

C	0.0	0.0	0.0
C	-0.517421	0.177476	-1.43952
F	1.370629	0.0	0.0
H	-1.619049	0.144098	-1.386067
N	-0.480478	1.072419	0.791707
H	-0.230024	0.908224	1.760577
H	-1.505673	1.063459	0.720502
C	-0.36381	-1.370039	0.46381
N	-0.572497	-2.463641	0.839899
C	0.033853	-0.825239	-2.337634
N	0.451998	-1.638229	-3.074201
N	-0.108876	1.546642	-1.92171
O	1.049487	1.677942	-2.309148
O	-0.963026	2.422532	-1.875427
Cl	-3.4213	0.0	0.0
