19

C	-0.448835	0.074206	-1.471178
C	0.0	0.0	0.0
Cl	-2.175766	0.517563	-1.593231
H	1.090768	0.0	0.0
C	0.393028	0.987874	-2.335658
H	0.147644	0.826174	-3.387826
H	0.188873	2.022229	-2.069827
H	1.448222	0.77755	-2.146577
N	-0.285136	-1.357786	-2.004118
O	-1.263539	-2.089215	-2.093684
O	0.873068	-1.669542	-2.255493
C	-0.518669	-1.198643	0.761724
H	-1.601551	-1.301191	0.692368
H	-0.236127	-1.101059	1.809191
H	-0.033733	-2.095144	0.374231
N	-0.413615	1.276358	0.671726
O	-1.243514	1.215817	1.577128
O	0.107429	2.31369	0.269845
Br	3.45004	0.0	0.0
