16

C	0.0	0.0	0.0
C	-0.462669	-0.13664	-1.474837
Cl	1.788908	0.0	0.0
H	-1.55846	-0.199392	-1.418496
N	-0.441944	1.300009	0.463969
H	-0.112453	1.437679	1.414217
H	-1.465225	1.242207	0.49335
N	-0.443035	-1.172576	0.707175
H	-0.167129	-1.104749	1.681469
H	-1.465792	-1.159524	0.66775
C	0.034925	-1.389423	-2.055198
N	0.435433	-2.358484	-2.58263
N	-0.112947	0.972076	-2.347921
H	-0.539995	1.799022	-1.944988
H	0.890939	1.112307	-2.293948
Br	-3.702601	0.0	0.0
