16

C	0.0	0.0	0.0
C	-0.485157	0.201193	-1.449867
Cl	1.780391	0.0	0.0
H	-1.575743	0.067713	-1.388403
N	-0.456586	1.146411	0.763001
H	-0.11207	1.067408	1.714034
H	-1.478577	1.07493	0.78369
N	-0.43921	-1.310932	0.412615
H	-1.461423	-1.290181	0.405029
H	-0.132569	-1.481267	1.364722
C	0.046755	-0.846121	-2.330717
N	0.413436	-1.65004	-3.103343
N	-0.097972	1.519043	-1.956129
H	-0.163489	2.146263	-1.159487
H	-0.796352	1.80908	-2.631642
Br	-3.73069	0.0	0.0
