11

C	-0.396505	-0.013079	-1.468432
C	0.0	0.0	0.0
F	-0.123288	1.231722	-2.014387
H	1.093052	0.0	0.0
H	0.217333	-0.749106	-1.998232
H	-0.377148	0.912071	0.469118
C	-1.825119	-0.294723	-1.707834
N	-2.961551	-0.508734	-1.912339
C	-0.498034	-1.174023	0.693576
N	-0.899655	-2.127437	1.251489
H	2.721817	0.0	0.0
