13

C	0.0	0.0	0.0
C	-0.523682	-0.03522	-1.469851
Br	1.943138	0.0	0.0
H	0.338992	-0.002454	-2.148737
H	-0.259991	0.974861	0.417532
N	-0.482722	-1.124589	0.734706
H	-0.214479	-1.004742	1.706705
H	-1.518335	-0.933256	0.641049
C	-1.313352	1.161846	-1.774168
N	-1.732952	2.18868	-2.158461
C	-1.250636	-1.262631	-1.805132
N	-1.71604	-2.256843	-2.22226
F	-2.603	0.0	0.0
