13

C	0.0	0.0	0.0
C	-0.494003	0.072022	-1.475032
Br	2.011701	0.0	0.0
H	0.380052	0.117658	-2.136154
H	-0.226446	0.948629	0.490096
N	-0.472263	-1.171214	0.642613
H	-1.513953	-0.974563	0.553772
H	-0.210962	-1.124712	1.622492
C	-1.255654	1.301433	-1.718301
N	-1.689325	2.342073	-2.047728
C	-1.258758	-1.104287	-1.901025
N	-1.773333	-2.024832	-2.415528
F	-2.583546	0.0	0.0
