13

C	0.0	0.0	0.0
C	-0.50284	0.306563	-1.44202
Br	2.002798	0.0	0.0
H	0.367787	0.449672	-2.094526
H	-0.233072	0.854257	0.637601
N	-0.469059	-1.264109	0.447166
H	-0.205907	-1.377003	1.421187
H	-1.508519	-1.058329	0.393389
C	-1.253537	1.566765	-1.475992
N	-1.669301	2.65841	-1.597984
C	-1.278009	-0.788243	-2.04178
N	-1.756906	-1.641818	-2.68978
F	-2.582914	0.0	0.0
