13

C	0.0	0.0	0.0
C	-0.501418	0.097072	-1.471344
Br	2.003425	0.0	0.0
H	0.370001	0.139245	-2.13633
H	-0.229166	0.938769	0.506723
N	-0.472324	-1.183252	0.625184
H	-0.208562	-1.151582	1.604838
H	-1.5125	-0.985482	0.542382
C	-1.242203	1.343194	-1.687472
N	-1.647419	2.417319	-1.935709
C	-1.280175	-1.067189	-1.909349
N	-1.764318	-1.996414	-2.438523
F	-2.586803	0.0	0.0
