13

C	0.0	0.0	0.0
C	-0.611323	0.019776	-1.401015
Br	1.937586	0.0	0.0
H	-1.740044	0.02876	-1.055684
H	-0.269109	0.956145	0.461935
N	-0.505786	-1.161016	0.675656
H	-1.528712	-0.992098	0.634187
H	-0.206138	-1.13142	1.644307
C	-0.296042	-1.169266	-2.176756
N	-0.071542	-2.116504	-2.8356
C	-0.294675	1.232487	-2.135704
N	-0.057368	2.233111	-2.705803
F	-2.78605	0.0	0.0
