13

C	0.0	0.0	0.0
C	-0.44748	0.199768	-1.483354
Br	1.941963	0.0	0.0
H	0.394438	-0.093478	-2.124087
H	-0.30179	0.864038	0.591614
N	-0.469162	-1.271706	0.464443
H	-0.182238	-1.382267	1.431627
H	-1.502283	-1.076238	0.444586
C	-0.699766	1.622742	-1.7394
N	-0.824242	2.768058	-1.967766
C	-1.575513	-0.623168	-1.949072
N	-2.227654	-1.321932	-2.632347
F	-2.574137	0.0	0.0
