13

C	0.0	0.0	0.0
C	-0.519202	-0.189656	-1.460368
Br	1.942832	0.0	0.0
H	0.345582	-0.263794	-2.13203
H	-0.263834	1.010772	0.316801
N	-0.479956	-1.048298	0.842063
H	-1.51661	-0.864894	0.735572
H	-0.205568	-0.83765	1.796462
C	-1.282361	0.980913	-1.9049
N	-1.71181	1.958326	-2.39416
C	-1.283308	-1.426222	-1.661112
N	-1.768873	-2.441608	-1.995421
F	-2.598486	0.0	0.0
