14
Coordinates from ORCA-job run
  C   -0.74040832425537      0.28522331407611     -0.38248314596372
  C   0.77871963003962      0.08025536836905     -0.41001299058108
  Cl  -1.28621206834093      0.31501460023892     -2.08079632653257
  H   1.02787214583806     -0.84943705971673     -0.92484385992551
  H   -0.94929508393733      1.27154847708530      0.03469973045726
  C   -1.45469909770546     -0.80491684780568      0.39197399487843
  H   -1.19621293573527     -1.79310494700388      0.00618375607180
  H   -2.53294465072927     -0.66932483119593      0.30407857016316
  H   -1.19333323687571     -0.75581438421814      1.45131979262602
  N   1.24060867780719     -0.08824689381578      1.01852507182864
  O   1.62787683432337     -1.20529467042214      1.34291260793517
  O   1.13106502009470      0.89575132101557      1.74179987652240
  C   1.48881437490671      1.20658633395785     -1.00434386007504
  N   2.05814871456968      2.11176021943548     -1.48901321740498
