14
Coordinates from ORCA-job run
  C   -0.62785690490481     -0.15402007254357     -0.72514845401902
  C   0.85205265950240      0.17406867542376     -0.47237257558449
  Cl  -0.72804954200288     -1.78873430858255     -1.43330728818201
  H   1.42688578257160      0.01012134785613     -1.38551490487201
  H   -0.94935413663051      0.53554212652889     -1.50998389021733
  C   -1.53551585460736     -0.03430399931738      0.48323094889514
  H   -1.45191692133720      0.96155684547587      0.92416671506380
  H   -2.56781203181658     -0.19088930531286      0.16813183887833
  H   -1.28740700341382     -0.77435183288823      1.24224377452072
  N   1.45548584425901     -0.75702045575928      0.55326982803877
  O   2.19315604713077     -1.63433441921886      0.12014782356455
  O   1.13911302107226     -0.56848241765205      1.72341565595243
  C   0.99848327308995      1.54984515133287     -0.01077762355896
  N   1.08273576708718      2.67300266465725      0.32149815152009
