18

C	-0.498827	-0.000916	-1.468041
C	0.0	0.0	0.0
Cl	0.332528	1.285258	-2.379125
H	1.097308	0.0	0.0
N	-0.060832	-1.328289	-2.072478
O	1.139906	-1.523156	-2.193091
O	-0.950821	-2.145149	-2.33035
C	-1.990148	0.17355	-1.637431
H	-2.255257	0.138149	-2.694756
H	-2.270277	1.132647	-1.208237
H	-2.53525	-0.61991	-1.126051
N	-0.432441	-1.159881	0.744914
H	0.183068	-1.941387	0.564051
H	-1.392198	-1.414945	0.551348
N	-0.55168	1.192218	0.648045
H	-0.005163	1.988783	0.33421
H	-0.334805	1.067747	1.631142
Cl	3.476355	0.0	0.0
