18

C	-0.419347	0.094734	-1.476148
C	0.0	0.0	0.0
Cl	0.290109	-1.257117	-2.382158
H	1.099377	0.0	0.0
N	-1.94022	-0.029108	-1.546094
O	-2.556374	0.967967	-1.171787
O	-2.45815	-1.075258	-1.911106
C	0.021008	1.397442	-2.10239
H	-0.432358	2.223877	-1.562252
H	1.107373	1.452302	-2.004599
H	-0.255451	1.42343	-3.15883
N	-0.590258	-1.205662	0.596198
H	-0.288939	-2.014935	0.062272
H	-0.157922	-1.304065	1.508333
N	-0.402903	1.187604	0.719482
H	-1.330028	1.057834	1.10527
H	0.261444	1.352402	1.464368
Cl	3.420683	0.0	0.0
