18

C	-0.484907	-0.077414	-1.450456
C	0.0	0.0	0.0
Cl	-2.245148	-0.417319	-1.487967
H	1.093217	0.0	0.0
N	-0.256111	1.291829	-2.086539
O	0.922076	1.544953	-2.304822
O	-1.203252	2.032243	-2.316882
C	0.265123	-1.121017	-2.243134
H	0.048308	-2.09393	-1.805154
H	-0.040453	-1.106029	-3.292099
H	1.333649	-0.916858	-2.150493
N	-0.357156	-1.254973	0.657524
H	-1.279046	-1.192398	1.073069
H	0.323866	-1.432367	1.385638
N	-0.445722	1.244727	0.594904
H	0.164357	1.478241	1.367277
H	-1.400365	1.172876	0.927022
Cl	3.403601	0.0	0.0
