18

C	-0.492193	-0.078304	-1.448583
C	0.0	0.0	0.0
Cl	-2.243349	-0.465553	-1.479503
H	1.093188	0.0	0.0
N	-0.307699	1.301695	-2.074955
O	0.858295	1.58424	-2.32117
O	-1.275761	2.025011	-2.268336
C	0.280357	-1.096324	-2.252602
H	1.343002	-0.859551	-2.17239
H	-0.03907	-1.090543	-3.297524
H	0.100257	-2.075736	-1.812843
N	-0.346036	-1.259854	0.656032
H	-1.26456	-1.204501	1.079803
H	0.342662	-1.435255	1.377314
N	-0.448837	1.239914	0.601984
H	-1.402358	1.16205	0.935955
H	0.162229	1.471172	1.374514
Cl	3.398889	0.0	0.0
