18

C	-0.358974	0.059191	-1.508349
C	0.0	0.0	0.0
Cl	0.300627	-1.373568	-2.323245
H	1.10027	0.0	0.0
N	-1.874313	0.031735	-1.644643
O	-2.433166	1.089297	-1.33542
O	-2.456254	-0.98859	-1.980668
C	0.204731	1.295645	-2.172906
H	-0.234176	2.189812	-1.73463
H	0.001079	1.281942	-3.245528
H	1.284476	1.28991	-2.004964
N	-0.644189	-1.165708	0.590779
H	-0.46252	-1.094208	1.584675
H	-0.180842	-2.003913	0.258639
N	-0.400034	1.156827	0.768003
H	0.28872	1.889559	0.668172
H	-1.316121	1.492973	0.499833
Cl	3.437812	0.0	0.0
