13
Coordinates from ORCA-job run
  C   -0.86207262079526     -0.67022018871947      0.20328981148082
  C   0.63210335102153     -0.51381533758589      0.43570216760244
  Cl  -1.23829272278467     -1.50102042964210     -1.30073204955192
  H   0.75809135641113     -0.14296861588389      1.45686205635109
  H   -1.34491153382771     -1.20733464304907      1.01779457251211
  H   1.06923694409789     -1.51485315367618      0.39260195320310
  N   -1.48160045528280      0.71305543843942      0.23152487149106
  O   -1.55965933007196      1.18661732465102      1.36230710838026
  O   -1.77975040249705      1.27004139412518     -0.81417952627674
  C   1.31467964714040      0.41720022849482     -0.55911615985165
  H   2.39177040583023      0.41962085021744     -0.38315015884510
  H   1.13998088614750      0.10142117755042     -1.58834344757687
  H   0.96042447461077      1.44425595507829     -0.45356119891861
