13
Coordinates from ORCA-job run
  C   -0.71883530662459     -0.45909278778857      0.15605994239264
  C   0.41549709084298      0.50648674245977     -0.11173573448722
  Cl  -1.17047211502509     -1.38623963983305     -1.27927452250886
  H   0.11886856836737      1.15585211730727     -0.93835467795776
  H   -0.50227958785696     -1.16183708181900      0.95835528419752
  H   0.51800790489612      1.13336470936332      0.78143452383143
  N   -1.91934651648992      0.32086283258645      0.63190988068266
  O   -2.39561045668483      1.14372576359153     -0.13942070351518
  O   -2.28637161803698      0.09707820460332      1.78307539109510
  C   1.73033810351438     -0.20541971873034     -0.40559825596971
  H   1.66392748564720     -0.80332131525350     -1.31510222603197
  H   2.01473657742930     -0.86477958289860      0.41814468732966
  H   2.53053987002101      0.52431975641139     -0.54049358905832
