13
Coordinates from ORCA-job run
  C   -0.78443887773298     -0.64828858078394      0.33602553221136
  C   0.46527887192815     -0.59835935269621     -0.51428221298689
  Cl  -1.93419526513355     -1.85683914933124     -0.24288020944334
  H   0.93863927153734     -1.58201662038062     -0.45366345753943
  H   -0.58194822472127     -0.84593981864495      1.38677746344158
  H   0.16188544268618     -0.44071170014694     -1.55182253504111
  N   -1.43609730924359      0.71178825953544      0.31203699105179
  O   -1.83016974885844      1.12573003696552     -0.77059491157705
  O   -1.45572057373551      1.31933249918647      1.37996649127550
  C   1.42528480384737      0.49495558212902     -0.05370454487552
  H   2.35459830687629      0.43903513503852     -0.62307758315533
  H   1.00310764699994      1.48952565220229     -0.20940052907836
  H   1.67277565555006      0.39278805692664      1.00561950571680
