15

C	0.0	0.0	0.0
C	-0.409112	0.284901	-1.468621
Br	1.950223	0.0	0.0
H	0.461937	0.114815	-2.111977
H	-0.326093	0.820375	0.628853
C	-0.428986	-1.246167	0.623692
N	-0.553867	-2.223311	1.266047
C	-0.907653	1.704832	-1.613073
H	-1.102025	1.947065	-2.657962
H	-0.146588	2.391849	-1.226751
H	-1.822659	1.751783	-1.025225
N	-1.38743	-0.703509	-2.035288
O	-2.245093	-0.288544	-2.806111
O	-1.128314	-1.887964	-1.846961
F	-2.331662	0.0	0.0
