15

C	0.0	0.0	0.0
C	-0.536337	0.016264	-1.423538
Br	1.949916	0.0	0.0
H	-1.660276	0.118256	-1.123041
H	-0.331683	0.89652	0.513627
C	-0.434523	-1.193571	0.717708
N	-0.619478	-2.210604	1.276513
C	-0.223181	-1.211718	-2.24113
H	-0.661949	-1.126453	-3.234521
H	0.853005	-1.370765	-2.356683
H	-0.66268	-2.07725	-1.741939
N	-0.073866	1.25708	-2.080257
O	0.239898	1.214894	-3.274646
O	-0.071715	2.294215	-1.412475
F	-2.600192	0.0	0.0
