15

C	0.0	0.0	0.0
C	-0.495982	0.004239	-1.444615
Br	1.943067	0.0	0.0
H	-1.613837	0.096735	-1.20181
H	-0.344545	0.899929	0.497492
C	-0.453018	-1.188446	0.712962
N	-0.614931	-2.190629	1.305415
C	-0.123065	-1.216705	-2.251613
H	-0.501342	-2.102089	-1.73784
H	-0.574372	-1.17009	-3.241966
H	0.959079	-1.310773	-2.376121
N	-0.034483	1.251258	-2.101072
O	-0.001139	2.282286	-1.42745
O	0.237476	1.21529	-3.305832
F	-2.554255	0.0	0.0
