15

C	0.0	0.0	0.0
C	-0.406327	0.235613	-1.479409
Br	1.952406	0.0	0.0
H	0.468813	0.0495	-2.112742
H	-0.321644	0.843832	0.599593
C	-0.433815	-1.223428	0.662828
N	-0.542034	-2.192771	1.32105
C	-0.911029	1.647341	-1.675096
H	-1.080446	1.86523	-2.729317
H	-1.838657	1.705868	-1.110046
H	-0.163404	2.346203	-1.2871
N	-1.37323	-0.779372	-2.016654
O	-1.089718	-1.954105	-1.805651
O	-2.250491	-0.397049	-2.781107
F	-2.322536	0.0	0.0
