15

C	0.0	0.0	0.0
C	-0.223604	-0.240923	-1.540456
Br	1.949657	0.0	0.0
H	0.434846	0.478509	-2.028505
H	-0.349597	0.995843	0.247763
C	-0.52026	-0.962043	0.956856
N	-0.644137	-1.726999	1.843105
C	-1.564764	-0.192052	-2.255619
H	-1.350326	-0.362506	-3.32013
H	-2.251264	-0.918104	-1.839266
H	-2.02108	0.781845	-2.110615
N	0.379416	-1.563101	-1.940406
O	0.05846	-2.559156	-1.299232
O	1.094433	-1.572131	-2.944806
F	-2.367648	0.0	0.0
