14

C	-0.478419	0.033002	-1.425107
C	0.0	0.0	0.0
F	0.112702	-0.88132	-2.217582
H	1.090561	0.0	0.0
H	-0.312068	0.891443	0.537802
C	-1.94021	-0.051457	-1.583385
N	-3.106844	-0.092283	-1.716997
N	-0.088822	1.425521	-1.986857
O	0.616285	1.447399	-2.980836
O	-0.553438	2.38446	-1.381926
N	-0.485713	-1.15645	0.709631
O	-0.831682	-2.155878	0.057096
O	-0.41614	-1.114589	1.944549
H	2.505084	0.0	0.0
