14

C	-0.602866	0.047138	-1.368207
C	0.0	0.0	0.0
F	-1.974437	0.089515	-1.334326
H	1.089997	0.0	0.0
H	-0.306047	0.891479	0.547274
C	-0.130255	1.240526	-2.086998
N	0.207628	2.230668	-2.621952
N	-0.227467	-1.156507	-2.257029
O	0.959584	-1.236664	-2.527802
O	-1.135126	-1.876749	-2.637202
N	-0.427972	-1.151075	0.751959
O	-0.587275	-1.006066	1.973357
O	-0.461269	-2.243025	0.161299
H	2.484171	0.0	0.0
