14

C	-0.478826	-0.030533	-1.42007
C	0.0	0.0	0.0
F	-0.021328	0.995348	-2.16554
H	1.089033	0.0	0.0
H	-0.294215	-0.901778	0.531775
C	-0.099495	-1.302626	-2.063264
N	0.162882	-2.315216	-2.597614
N	-2.029038	-0.012538	-1.518897
O	-2.600751	-0.800664	-0.776467
O	-2.541697	0.740301	-2.327128
N	-0.508972	1.13933	0.742635
O	-1.148123	2.014378	0.139316
O	-0.216307	1.182901	1.938272
H	2.540173	0.0	0.0
