14

C	-0.505303	0.06008	-1.405186
C	0.0	0.0	0.0
F	-1.877711	0.057571	-1.478431
H	1.09006	0.0	0.0
H	-0.346658	-0.911218	0.482668
C	-0.004584	1.152532	-2.244429
N	0.343836	1.981991	-2.999186
N	-0.054902	-1.265188	-2.049133
O	0.917605	-1.239737	-2.790936
O	-0.707331	-2.247821	-1.716128
N	-0.438198	1.126112	0.78399
O	-0.564169	2.223191	0.21701
O	-0.540667	0.951602	2.005842
H	2.49485	0.0	0.0
