14

C	-0.476558	-0.026175	-1.417577
C	0.0	0.0	0.0
F	-0.255748	1.212668	-1.966305
H	1.089829	0.0	0.0
H	-0.327617	0.90997	0.495631
C	0.145276	-1.038916	-2.275906
N	0.663719	-1.793775	-3.012906
N	-2.011314	-0.193288	-1.51072
O	-2.46562	-0.838877	-2.447227
O	-2.656846	0.423632	-0.671919
N	-0.472026	-1.139167	0.730444
O	-0.41267	-1.094295	1.963683
O	-0.812031	-2.144801	0.072465
H	2.49208	0.0	0.0
