14

C	-0.505131	0.060392	-1.405665
C	0.0	0.0	0.0
F	-1.878353	0.072995	-1.477485
H	1.090023	0.0	0.0
H	-0.347629	-0.910569	0.482707
C	0.009848	1.144479	-2.246879
N	0.403521	1.974862	-2.978409
N	-0.071422	-1.272944	-2.045552
O	-0.726056	-2.248861	-1.696874
O	0.890566	-1.259877	-2.801985
N	-0.436886	1.126647	0.784553
O	-0.563286	2.22453	0.218739
O	-0.538648	0.951253	2.006016
H	2.498207	0.0	0.0
