14

C	0.0	0.0	0.0
C	-0.285747	0.040874	-1.510093
F	1.351876	0.0	0.0
H	0.45189	-0.63333	-1.94898
H	-0.429169	0.791029	0.59905
N	-0.371674	-1.326113	0.590616
O	-0.42413	-1.366909	1.813597
O	-0.427108	-2.284457	-0.175875
N	0.148197	1.412936	-1.996757
O	0.000323	2.36838	-1.243411
O	0.613434	1.452944	-3.131344
C	-1.555219	-0.273201	-2.165877
N	-2.191811	-0.549805	-3.120962
Cl	-3.007694	0.0	0.0
