14

C	-0.291785	-0.01216	-1.493983
C	0.0	0.0	0.0
Br	0.097974	1.777548	-2.20018
H	1.093014	0.0	0.0
H	-0.409258	0.872882	0.508277
N	0.463461	-0.962993	-2.226052
H	0.117089	-1.891525	-2.014799
H	1.424441	-0.876523	-1.872602
N	-1.789098	-0.247476	-1.717597
O	-2.118744	-1.292756	-2.272092
O	-2.557215	0.581771	-1.242697
C	-0.476405	-1.22961	0.606456
N	-0.848688	-2.23268	1.094976
H	2.687697	0.0	0.0
