14

C	-0.236108	-0.121782	-1.483027
C	0.0	0.0	0.0
Br	-0.008508	1.798222	-2.263416
H	1.104694	0.0	0.0
H	-0.404625	0.915912	0.423388
N	0.609917	-1.060521	-2.019424
H	0.565891	-1.144366	-3.024578
H	1.56416	-0.928814	-1.638865
N	-1.681299	-0.391264	-1.905604
O	-2.560194	-0.023857	-1.135185
O	-1.855258	-0.925424	-2.998191
C	-0.484392	-1.168408	0.712314
N	-0.860952	-2.102118	1.318061
H	2.671026	0.0	0.0
