14

C	-0.57457	-0.311202	-1.35122
C	0.0	0.0	0.0
Br	0.413616	-1.942283	-2.056733
H	1.103824	0.0	0.0
H	-0.263986	-0.832261	0.664765
N	-1.970983	-0.48791	-1.385376
H	-2.279249	-0.775869	-2.305134
H	-2.254709	-1.159484	-0.685737
N	-0.252613	0.768693	-2.372603
O	0.601909	1.593249	-2.076483
O	-0.870303	0.704686	-3.434629
C	-0.547125	1.226842	0.548919
N	-0.979132	2.199545	1.047378
H	2.634332	0.0	0.0
