14

C	-0.459286	0.051224	-1.400056
C	0.0	0.0	0.0
Br	-2.670535	0.302216	-1.42405
H	1.092042	0.0	0.0
H	-0.250582	0.96457	0.454025
N	0.153969	1.022955	-2.137255
H	0.339929	1.881803	-1.645978
H	-0.195349	1.131492	-3.075617
N	-0.358303	-1.246319	-2.17705
O	-0.077103	-2.260933	-1.553224
O	-0.535205	-1.170228	-3.388389
C	-0.569502	-1.031235	0.840441
N	-0.998608	-1.806595	1.611946
H	2.558006	0.0	0.0
