19
Coordinates from ORCA-job run
  C   -0.68511150947617     -0.01641928323065     -0.23737016631844
  C   0.74900659898783      0.27245935268195      0.23858406782941
  Cl  -0.68766472951411     -0.08593374278409     -2.05366629504840
  H   0.65738795924529      0.37929619449084      1.32867527108480
  C   -1.19417439562756     -1.36009468291863      0.26048938573513
  H   -1.12631215663160     -1.39624053780494      1.35284388781471
  H   -2.23991236372846     -1.49143494134512     -0.02411132957552
  H   -0.62525559559166     -2.19148152655948     -0.15469313398887
  C   -1.62702124130140      1.10512671520771      0.17012665285620
  H   -1.26491097999945      2.06155975215811     -0.20016446476955
  H   -1.67698752403762      1.15164155952869      1.26304172803796
  H   -2.63110694547347      0.91639978774790     -0.21499946188624
  N   1.18020499431404      1.57522850364924     -0.26517251527112
  H   2.04631008610818      1.83803035289345      0.19038334032826
  H   1.37258479849335      1.49984217926716     -1.25839308176235
  C   1.73959187846861     -0.85737038475907     -0.04547551637512
  H   1.78949989345263     -1.06717128122774     -1.11660974401674
  H   2.73592307951685     -0.55318084289372      0.28633200656839
  H   1.48694815279472     -1.78125717410158      0.47917936875749
