19
Coordinates from ORCA-job run
  C   -0.71997981980679      0.14829195486066      0.33342109993951
  C   0.81383893269785      0.24414953789750      0.40606030647888
  Cl  -1.36097593205696      1.30330256131511      1.59029478394345
  H   1.07780187218228      0.01348584846636      1.45173864022384
  C   -1.28634490949057      0.58393685021955     -1.00651863333846
  H   -0.93283624504584      1.57902852996270     -1.26983287817624
  H   -0.96960331074340     -0.11393619939476     -1.78626925666779
  H   -2.37760812252785      0.58257032460135     -0.96992089701027
  C   -1.21975551186287     -1.23144940898482      0.73067504369590
  H   -2.30455802250552     -1.21755608418318      0.84983298421885
  H   -0.97367270494598     -1.96100817378417     -0.04425663485356
  H   -0.77562875323661     -1.55363902290792      1.67565138027992
  N   1.24948780903386      1.57859534112173      0.00134982267430
  H   2.26163909890495      1.61969772613187      0.02802758899731
  H   0.90255496534605      2.26400318273070      0.66250053075490
  C   1.50726489829250     -0.77310915678340     -0.49378217604746
  H   2.59115106351944     -0.66441595907511     -0.39191505477631
  H   1.25689035594088     -0.60057820548180     -1.54192784489528
  H   1.26033433630456     -1.80036964671237     -0.22412880544148
