19
Coordinates from ORCA-job run
  C   -0.64746771371337      0.08558145395975      0.38615816082490
  C   0.87244522971132      0.36421469361593      0.25438171001886
  Cl  -1.00903026432337     -0.05301360113798      2.15780180869498
  H   1.07835959165702      1.21052867189136      0.92065403074681
  C   -1.47076148948542      1.25796986818167     -0.12833489217221
  H   -1.39912778285848      1.32711460794887     -1.21647976471195
  H   -2.52253025274018      1.12440240062291      0.13048621055038
  H   -1.12818844464397      2.19767541166301      0.31274427639338
  C   -1.08388063708896     -1.21314704291596     -0.27168303894182
  H   -0.82556706535337     -1.20068698580759     -1.33523348243258
  H   -2.16609472880023     -1.33269289411135     -0.18941733438300
  H   -0.61189453225496     -2.07812179356476      0.19420677646325
  N   1.29573994529444      0.77221063074081     -1.08054879338247
  H   0.82074998975541      1.61078996950499     -1.38632133516795
  H   1.12848465264834      0.03812793996574     -1.75801685542826
  C   1.74405217999475     -0.80949211133078      0.68079319677161
  H   1.67881412557837     -1.62475900232364     -0.04564005939120
  H   1.46110709750900     -1.19489478050822      1.66033835605168
  H   2.78379009911366     -0.48180743639477      0.71411102949558
