15

C	-0.302047	0.057944	-1.494056
C	0.0	0.0	0.0
Cl	-2.101118	0.128071	-1.787031
H	1.093491	0.0	0.0
H	-0.358109	-0.935539	0.434118
N	0.276615	1.276113	-2.003329
H	1.246311	1.314382	-1.689188
H	0.269299	1.264334	-3.017006
C	0.21375	-1.213439	-2.156584
H	0.044148	-1.166681	-3.235339
H	-0.28627	-2.103302	-1.765305
H	1.287921	-1.283065	-1.957863
C	-0.525164	1.129904	0.752523
N	-0.962593	2.007425	1.397744
Br	3.495982	0.0	0.0
