15

C	-0.476224	0.014803	-1.454635
C	0.0	0.0	0.0
Cl	0.045877	-1.623198	-2.147417
H	1.093155	0.0	0.0
H	-0.343109	-0.906177	0.507976
N	-1.89075	0.17519	-1.536088
H	-2.363501	-0.563861	-1.02778
H	-2.192127	0.142713	-2.502818
C	0.244406	1.079627	-2.255074
H	1.322552	0.947652	-2.150114
H	-0.040577	2.061344	-1.867575
H	-0.03186	1.018918	-3.311558
C	-0.48871	1.171116	0.722108
N	-0.88136	2.106442	1.312294
Br	3.547954	0.0	0.0
