17

C	-0.692134	-0.011996	-1.504072
C	0.099843	-0.018553	-0.197828
Br	0.053639	-1.20812	-2.806183
H	1.150221	0.097545	-0.490506
N	-2.172155	-0.346629	-1.32715
O	-2.818127	-0.646504	-2.321661
O	-2.620064	-0.237163	-0.189525
N	-0.679431	1.409043	-2.066503
O	-1.733235	2.031498	-2.036006
O	0.401814	1.814064	-2.45654
N	0.0098	-1.315093	0.437291
H	0.82224	-1.269415	1.077323
H	-0.820737	-1.317943	1.020768
N	-0.204012	1.170404	0.574467
H	-1.038918	0.994733	1.12239
H	0.596916	1.186578	1.225706
H	2.100666	-0.004507	1.722757
