8
Coordinates from ORCA-job run
  C   -1.22918826690756     -0.00017141117748     -0.08451985652959
  C   -0.00896693061162      0.51763306897455      0.02039084598526
  H   -1.37274063251793     -1.07182735919983     -0.13789218306016
  H   -2.09136508164910      0.65363792476737     -0.11874138593875
  H   0.24773904874756      1.56668114524368      0.07924963702474
  N   1.17618063297040     -0.34577458521708      0.06738692717021
  O   1.02560400858514     -1.56124328609168      0.00963300434162
  O   2.25373722138312      0.24206450270048      0.16449301100667
