8
Coordinates from ORCA-job run
  C   -1.16481613619398      0.06519677828125     -0.39638258145427
  C   -0.11844034865121      0.33221215022781      0.37941915585582
  H   -2.12071919207233      0.53043294900524     -0.19170434108935
  H   -1.07450348048025     -0.61317596974406     -1.23517978425129
  H   -0.09787616888219      0.98974911629693      1.23796372504011
  N   1.18812043944479     -0.28403254361741      0.12354362274652
  O   1.30291354258756     -1.05816058705802     -0.82035489443466
  O   2.08532134424761      0.03877810660825      0.90269509758711
