8
Coordinates from ORCA-job run
  C   -1.22102075588616      0.04346938863995     -0.15830941167813
  C   0.04300808299472      0.44142033525718     -0.26753854389065
  H   -1.47247830191293     -0.86433142634892      0.37516287975302
  H   -2.01226961935262      0.63176370830404     -0.60543682535529
  H   0.40358552794922      1.32570476213526     -0.77537811158164
  N   1.13395809427536     -0.33672928477463      0.32965423088012
  O   2.26279975951084      0.12837386141621      0.16950245828515
  O   0.86341721242158     -1.36967134462909      0.93234332358742
