8
Coordinates from ORCA-job run
  C   -1.12107416902295      0.06352254000200     -0.50701468172641
  C   -0.03033178558650      0.50471585382692      0.11252952315514
  H   -1.20692309579347     -0.97306724305101     -0.80708350967062
  H   -1.93610662390462      0.74501945660461     -0.71524389600532
  H   0.15891687437188      1.51341990842927      0.45401703984118
  N   1.08814590117563     -0.39768229752513      0.40725011718451
  O   2.04524481377507      0.11896247364740      0.98455725851243
  O   1.00412808498496     -1.57389069193406      0.07098814870908
