8
Coordinates from ORCA-job run
  C   -1.15261696586743      0.12923282525814     -0.41578421322452
  C   -0.10856102359404      0.33311028241638      0.38204319374475
  H   -2.08818614203344      0.63838245104506     -0.22199674119355
  H   -1.08088612040935     -0.54314640181787     -1.26119892634036
  H   -0.07041219130420      0.97906291462379      1.24872335374753
  N   1.16953447865029     -0.34558937739586      0.14056356338702
  O   1.26347139732498     -1.10921710657039     -0.81412560123523
  O   2.06665656723319     -0.08183558755925      0.94177537111437
