13
Coordinates from ORCA-job run
  C   -0.44949232245443     -0.66340609846023      0.35386367960460
  C   0.18291540537229      0.55912060140021     -0.31168646222502
  Br  -2.20580137771332     -0.06686556363324      1.10763792517522
  H   -0.46032183142794      0.95721612788337     -1.09949102562753
  H   0.14036891963063     -0.94101935142425      1.22595078897211
  N   -0.52347825491038     -1.72619643606988     -0.56712842979590
  H   -1.17712045039762     -1.54850547037119     -1.31897624744466
  H   -0.75271464796914     -2.60374598586186     -0.12171573579958
  C   1.50660134425750      0.22982213647014     -0.83334594379655
  N   2.57576941763934     -0.01748005344537     -1.25136314010198
  N   0.34455275126335      1.67444319794695      0.69698493538843
  O   0.93538597401660      1.38083946481735      1.72893596747030
  O   -0.11666492730689      2.76577743074801      0.38933368818054
