13
Coordinates from ORCA-job run
  C   -0.39730377176193     -0.76734934800437     -0.44616346806755
  C   0.69158272673048      0.30102477512262     -0.35114733054693
  Br  0.56474444807129     -2.51574664014974     -0.67995719874938
  H   1.34904072195074      0.25034615842477     -1.22111357746621
  H   -0.93343424654381     -0.63642427593191     -1.38402137043339
  N   -1.27299580772577     -0.67813954116735      0.64683013270806
  H   -2.10360877910128     -1.24159813309256      0.53094052238399
  H   -0.83185548948043     -0.88763751873080      1.53417240937241
  C   1.45050218398470      0.20303510384325      0.88815608274876
  N   2.04322695659710      0.08217061433837      1.89463091766869
  N   -0.01022269301295      1.64831329623249     -0.43727226700016
  O   -0.57915396411001      1.84823787392416     -1.50404161411718
  O   0.03147771440188      2.39476763519107      0.52898676149890
