13
Coordinates from ORCA-job run
  C   -0.53674031874871     -0.62991355924152      0.29826181450184
  C   0.13574870482105      0.65459746870698     -0.19826338414054
  Br  -2.09953820353643     -0.13757431341372      1.33978877077363
  H   -0.58190856743878      1.26108826272020     -0.75159597233935
  H   0.13502703587505     -1.13463718678038      0.99960236146485
  N   -0.95161179332113     -1.38537708605209     -0.86035136798172
  H   -1.61977033695904     -2.09779354004354     -0.59491949435965
  H   -0.14575390937481     -1.84485985452301     -1.27335227589480
  C   1.28885159813831      0.31236265540973     -1.02545728482081
  N   2.19377594117324     -0.01840791040186     -1.69727015404138
  N   0.61376501730534      1.47809458616653      0.97064926292752
  O   1.37776420910248      0.91576714241983      1.74782390015654
  O   0.19239062296343      2.62565333503286      1.04608382375387
