13
Coordinates from ORCA-job run
  C   -0.32908980179646     -0.79468927408836     -0.45373438568909
  C   0.69068777652292      0.33563197241842     -0.31935454005304
  Br  0.74264067000160     -2.48790821009479     -0.60795125712321
  H   1.39444460382954      0.31173897168069     -1.15346821846755
  H   -0.82089298177383     -0.70812944811215     -1.42053761280947
  N   -1.26554599495395     -0.74205609168141      0.58986593056924
  H   -0.86132323603169     -0.91303480603271      1.50274406900520
  H   -2.05461532200480     -1.35491105233338      0.43988904140720
  C   1.38810088632942      0.29831703916958      0.95865100528622
  N   1.93477906282755      0.22635930320897      1.99543521447346
  N   -0.08158658451310      1.63872861128605     -0.46301260477345
  O   -0.59926152624701      1.79425357088087     -1.56280081196310
  O   -0.13933755219020      2.39569941369822      0.49427417013761
