13
Coordinates from ORCA-job run
  C   -0.53170291805418     -0.61102771174765      0.34289046946772
  C   0.12229820758009      0.62564460380298     -0.28305724027398
  Br  -2.20763874039203     -0.06855596496837      1.15871779453229
  H   -0.56814100566646      1.09825186381504     -0.98240011154175
  H   0.09442703961734     -0.96544779527077      1.16762460596108
  N   -0.79798417585157     -1.55256182979714     -0.71956627616433
  H   -1.45654218960004     -2.25568796595392     -0.40905996011198
  H   0.06415110288761     -2.02061131374624     -0.98236727377429
  C   1.36324096432012      0.23755543632474     -0.94657411106789
  N   2.34332906460901     -0.13142438779589     -1.47845387376159
  N   0.44755810336328      1.63969865593792      0.78385897145761
  O   -0.03485229021401      2.75725372552535      0.64820699401301
  O   1.16085683740084      1.24591268387395      1.70018001126409
