13
Coordinates from ORCA-job run
  C   -0.40770217908649     -0.76246631696891     -0.44516334984759
  C   0.68401867367850      0.30358534653134     -0.36189640372382
  Br  0.54680019343674     -2.50965009464955     -0.71614071737331
  H   1.32341380201171      0.26096275924879     -1.24564180311324
  H   -0.96288052143477     -0.62184425350605     -1.37040982078334
  N   -1.26070766806403     -0.68353860247111      0.66653532839226
  H   -2.09133025338790     -1.24968711650339      0.56354099209422
  H   -0.80039913594452     -0.90052791048778      1.54220835511959
  C   1.46809231801887      0.19376354222032      0.86045045359420
  N   2.08312432335847      0.06353917266449      1.85220667238399
  N   -0.01784916080538      1.65261649588813     -0.42111162173061
  O   0.04034624590670      2.38820783241738      0.55264518766286
  O   -0.60392663768791      1.86503914561635     -1.47622327267520
