13
Coordinates from ORCA-job run
  C   -0.32248929634089     -0.92880414366586     -0.41820793003308
  C   0.67597974617950      0.24061901738562     -0.34089923480148
  Br  0.77489642587732     -2.55376275198502     -0.44551170063275
  H   1.39747074349879      0.19711051437429     -1.16254286494611
  H   -0.81940364447480     -0.88851012394553     -1.38532791940698
  N   -1.29574096671364     -0.99820334498722      0.61102877536732
  H   -0.90612478406724     -0.92958016232680      1.54194771317179
  H   -2.04459131213544     -0.33547224721884      0.46675347037626
  C   1.36392319595373      0.28263805874383      0.94245787553124
  N   1.87424724888220      0.26781041134610      1.99984533776591
  N   -0.06311343153607      1.56295620971559     -0.53738317961005
  O   0.47230333880877      2.56855988613118     -0.09327493518552
  O   -1.10835726393223      1.51363867643266     -1.17788540759653
