13
Coordinates from ORCA-job run
  C   -0.19309080095763     -0.91666303763051     -0.11313886144128
  C   0.49222093666147      0.43172648730882     -0.36826229448350
  Br  0.07760034248515     -1.36354903040007      1.82962657823673
  H   0.18948488660190      0.76770609852670     -1.36593431318531
  H   0.39077123114807     -1.68607313678264     -0.61800870267773
  N   -1.52074988542952     -0.93734864234711     -0.57668410976534
  H   -2.10250001008751     -0.25577915398446     -0.10786005203264
  H   -1.92754391547102     -1.85984198772018     -0.50274619279071
  C   1.94207302502222      0.33063637413922     -0.28616894451503
  N   3.10934217292310      0.20438392332997     -0.28415949410098
  N   -0.01741720734685      1.50164870144983      0.57788935648479
  O   -1.23459835507037      1.65781532261002      0.57090305093865
  O   0.79440757952098      2.12433808150041      1.24454397933234
