13
Coordinates from ORCA-job run
  C   -0.19291618320704     -0.94154288698473     -0.01121606987797
  C   0.52236986297890      0.36915708466214     -0.37082959178446
  Br  0.32626577599378     -1.59758945529295      1.74613144333363
  H   0.27956322444274      0.60998380610836     -1.41049366042704
  H   0.19171918395156     -1.70265386797304     -0.70168445867488
  N   -1.61069455732672     -0.71940051435579     -0.02229043653107
  H   -1.91708151565757     -0.32820445038516     -0.90620596046622
  H   -2.10937216507241     -1.58099353772888      0.15746369746397
  C   1.96644643250672      0.29922421298555     -0.20849967814565
  N   3.13626253240579      0.23516402399167     -0.13267510641711
  N   -0.04965396476463      1.51517217514044      0.43080625172901
  O   0.39870267200595      1.69460685205688      1.55441559138024
  O   -0.94161129825707      2.14707655777551     -0.12492202158245
