13
Coordinates from ORCA-job run
  C   -0.15589579902044     -0.92717915771815     -0.08476344091112
  C   0.40987040811003      0.45510829433181     -0.43380349431079
  Br  0.41328485417357     -1.34428654024428      1.79899749821898
  H   -0.05063493191653      0.76705299285349     -1.37740517978850
  H   0.39287639873265     -1.66629572507920     -0.66806105299291
  N   -1.53251992007432     -1.02445929821657     -0.35472733175223
  H   -1.87370720134989     -1.96715065690193     -0.22530927985705
  H   -2.07886766365287     -0.37212908270047      0.19178588682438
  C   1.85995221478274      0.43530343298471     -0.55984667031152
  N   3.02073684478401      0.37627960629857     -0.72584262195335
  N   -0.01830886418998      1.50207408637350      0.57651612160568
  O   0.84425065298814      2.17259194216719      1.12197249057334
  O   -1.23103699336711      1.59209010585135      0.74148707465510
