13
Coordinates from ORCA-job run
  C   -0.43568417598009     -0.66668738488694      0.36440211232199
  C   0.17124143414429      0.56880123021418     -0.30099163302054
  Br  -2.08905020917320     -0.05591782713753      1.31692677057166
  H   -0.53152840139818      1.02504936103250     -1.00165850541167
  H   0.22459869288034     -1.00559937289590      1.16102376220167
  N   -0.63576100844366     -1.67851260602259     -0.59354282874902
  H   -0.85274188633910     -2.57002788062126     -0.17007832873519
  H   -1.34931090080736     -1.44281741848847     -1.27115716184004
  C   1.42510899079078      0.22604868273662     -0.96672350656148
  N   2.43860726800820     -0.03211841178762     -1.50078692040592
  N   0.46915478852411      1.62553873110910      0.73864703342679
  O   1.14689644849277      1.26161825965937      1.69185213345605
  O   0.01846895930111      2.74462463708854      0.53108707274570
