13
Coordinates from ORCA-job run
  C   -0.28696725611487     -0.91856751334213     -0.45889181066839
  C   0.66901619959528      0.28251822019223     -0.33117313289443
  Br  0.86625437920890     -2.50156366581860     -0.56039377653897
  H   1.37955949406924      0.30632596033968     -1.16316369825193
  H   -0.78699466733370     -0.85175023268966     -1.42275711088265
  N   -1.25460560329099     -1.06380402302282      0.56705221999279
  H   -0.86990103358335     -1.00837584917037      1.50071178137102
  H   -2.03633132635771     -0.43594593597276      0.44362377577166
  C   1.37057320110047      0.28500421921349      0.94499810683577
  N   1.89655949873551      0.23492782573967      1.99383756169183
  N   -0.13002293977716      1.57751776508374     -0.45688642447185
  O   0.29929585817800      2.56272186702270      0.12645316708702
  O   -1.11743580442962      1.53099136242484     -1.18341065904187
