13
Coordinates from ORCA-job run
  C   -0.21766496609891     -0.97288155262558     -0.01025846438016
  C   0.48584671698568      0.37878573242247     -0.31817973636731
  Br  0.11565157375998     -1.39648205468863      1.87406040142147
  H   0.17335049838151      0.69189179975197     -1.31964197718678
  H   0.32346185978932     -1.73468760732604     -0.57456225972497
  N   -1.60141198539700     -1.06380199925097     -0.31071975819875
  H   -2.11797924327656     -0.25354598458261      0.00231858439988
  H   -1.76303239610089     -1.23966717729727     -1.29300912211871
  C   1.93575902983998      0.27430567036509     -0.25598081656823
  N   3.10170438360374      0.13458004321077     -0.27146894104548
  N   -0.00972902623211      1.46771269850110      0.60425466955978
  O   -1.20445210590856      1.73161238749435      0.48979753441126
  O   0.77949566065383      1.98217804402535      1.38238988579800
