13
Coordinates from ORCA-job run
  C   -0.39639071155021     -0.75849157902118      0.41733456026369
  C   0.01653264831699      0.61027633669560     -0.16568651113578
  Br  -1.82172955545575     -0.42122234317083      1.70841774410818
  H   -0.84258006721491      1.12404946923758     -0.60202874989303
  H   0.44667680836341     -1.15482555673969      0.98414273730461
  N   -0.82330362434107     -1.71523479581582     -0.54675735318638
  H   -0.04551210564589     -2.10482700993870     -1.06333536311602
  H   -1.53092049477621     -1.35944687026960     -1.17546149885731
  C   1.06981760526917      0.41098939147437     -1.15591665470797
  N   1.90011166324852      0.19042078007252     -1.95720066671062
  N   0.54724097576772      1.51311584397651      0.92147261126635
  O   1.47637066396081      1.06207399012790      1.58157520250335
  O   0.00268619405740      2.60212234337133      1.05344394216094
