13
Coordinates from ORCA-job run
  C   -0.21176572735914     -0.90360777228757     -0.17080550126781
  C   0.50457997373980      0.44253194678299     -0.33730828076666
  Br  0.03123303317436     -1.47422957824856      1.74307603529288
  H   0.21787510200795      0.84603684601779     -1.31446109974623
  H   0.36049588964011     -1.65352460702913     -0.71654714215133
  N   -1.53507232832299     -0.86638052762500     -0.64514116130922
  H   -2.10564484921568     -0.20056986970674     -0.14119107202289
  H   -1.96345484689190     -1.78189617862231     -0.63077475864277
  C   1.95116752425327      0.30446096173490     -0.25115030943880
  N   3.11529262088847      0.15214738788742     -0.24835946030583
  N   0.01017289696881      1.46289470938766      0.66961734566542
  O   -1.20311859568375      1.64719618693227      0.66232154642361
  O   0.82923930680068      2.02394049477628      1.38072385826962
