13
Coordinates from ORCA-job run
  C   -0.20538503827644     -0.97378575354442     -0.06330266735125
  C   0.47693900049150      0.40258118172673     -0.30228961995475
  Br  0.15380766895270     -1.49570042405234      1.79119884635990
  H   0.14988950233242      0.76729072878786     -1.28145300901365
  H   0.33974465754019     -1.69550861536671     -0.67457065745837
  N   -1.59143966677209     -1.06830938660275     -0.35250766081928
  H   -2.11539304609705     -0.28816558892057      0.01912269209974
  H   -1.76214595740853     -1.17964943449326     -1.34274929238927
  C   1.92869981837910      0.31267002562204     -0.26116993728174
  N   3.09563848656773      0.18506497550378     -0.29443283552483
  N   -0.02118043412343      1.43211618903135      0.68451273570259
  O   -1.22097512802397      1.68414317500911      0.59998349027145
  O   0.77180013643787      1.91725292729918      1.47765791535945
