13
Coordinates from ORCA-job run
  C   -0.20474796507046     -0.97644108713513     -0.00209210463111
  C   0.47313444736286      0.38309167093243     -0.33007493006093
  Br  0.17917164465210     -1.38907815654185      1.87621110698407
  H   0.13396660198786      0.68817209583465     -1.32533410634416
  H   0.33347666293098     -1.73346333742948     -0.57554068807676
  N   -1.59346155763212     -1.08599020132472     -0.26915243687294
  H   -2.11347098870956     -0.28029857914202      0.04961672382107
  H   -1.77741859073895     -1.27379103191147     -1.24518495642829
  C   1.92548322153615      0.29994713810728     -0.30050402823820
  N   3.09335345306743      0.18477160551445     -0.34562638139814
  N   -0.01690437366626      1.46884144066366      0.59980791098930
  O   0.78232473605785      1.99532723579608      1.35954865959000
  O   -1.21690729177787      1.71791120663613      0.50932523066610
