13
Coordinates from ORCA-job run
  C   -0.33839919507170     -0.91645657177330     -0.42980035099780
  C   0.66614710294412      0.24847595583941     -0.35652649564254
  Br  0.75088908516321     -2.54389984003573     -0.53111819221154
  H   1.35426301085847      0.22637813097732     -1.20733137776860
  H   -0.86502038743760     -0.85134462430975     -1.37956280055586
  N   -1.27904557857116     -1.00547694731970      0.62727645476059
  H   -2.03364824710534     -0.34239470130363      0.51912379677799
  H   -0.86258236584152     -0.95602623096536      1.54763397589757
  C   1.40453149918973      0.25191722168611      0.89900982491510
  N   1.96006050429762      0.20527457045079      1.93254427610090
  N   -0.08007898533021      1.57428402087168     -0.48944408827825
  O   0.44082464811122      2.56097129979170      0.01084485607559
  O   -1.11894109120684      1.54729771609046     -1.14164987907314
