13
Coordinates from ORCA-job run
  C   -0.21684761154693     -0.91282375512344     -0.10198447510369
  C   0.51455209099983      0.41006066129218     -0.36227526640540
  Br  -0.01254300338581     -1.33026882673422      1.85580872523542
  H   0.24889292437047      0.73650204320418     -1.37360216700712
  H   0.35823088420204     -1.70851227133306     -0.57508552772299
  N   -1.53110228030515     -0.90370247273590     -0.60164448448628
  H   -1.96782531896943     -1.81200924200025     -0.52302269004614
  H   -2.10451936560046     -0.19540769462385     -0.16314685335964
  C   1.95798643347995      0.26878740478683     -0.23801391377407
  N   3.12056916583094      0.10910931432564     -0.20204334746996
  N   0.01095944003488      1.51177961414947      0.55010548890505
  O   -1.20022869910637      1.70428589476083      0.50468119457181
  O   0.82187533999602      2.12219933003159      1.22922331666301
