13
Coordinates from ORCA-job run
  C   -0.60801289306964     -0.59811099510370      0.20091112729107
  C   0.32714045907097      0.53264895437102     -0.22821753279776
  Br  -2.39721955547984      0.23215022833124      0.54609498645751
  H   -0.04553001900067      1.03502033735433     -1.12361350711847
  H   -0.29208184339597     -0.97488722587584      1.17239602803267
  N   -0.59905017365395     -1.62110226588774     -0.76676613740043
  H   -1.04964832841467     -2.46350702527489     -0.43717163197226
  H   -1.01691854671699     -1.33576346236422     -1.64325540337012
  C   1.68035736278278      0.02533338333597     -0.43821721992044
  N   2.77509802883373     -0.36590904213982     -0.60395285898516
  N   0.38923252293992      1.59290937896634      0.84819477962204
  O   0.66615489117152      1.19682953655039      1.97368803599309
  O   0.16947809493278      2.74538819773692      0.49890933416825
