13
Coordinates from ORCA-job run
  C   -0.59840051382661     -0.59625501854017      0.23315220267258
  C   0.32110135322234      0.51848275912742     -0.26521635967734
  Br  -2.42522357561622      0.20320806699770      0.42254839574054
  H   -0.02655256159407      0.92064862099852     -1.21936299796312
  H   -0.31566100575784     -0.86731633243234      1.24905121067913
  N   -0.51756425633427     -1.70652861950416     -0.62918196455692
  H   -0.90219003545320     -1.51886689363269     -1.54635459122394
  H   -0.96127190583344     -2.52682882707666     -0.23950571748115
  C   1.69650066415630      0.03874723237289     -0.36997569252226
  N   2.80882492378190     -0.32855670554778     -0.45237405422538
  N   0.30573451449129      1.67819496428541      0.70549790767575
  O   0.54305975502124      1.40069887947382      1.87463902504702
  O   0.07064264374258      2.78437187347805      0.23708263583509
