13
Coordinates from ORCA-job run
  C   -0.19519300626516     -0.97644706967035     -0.04449315476043
  C   0.46815082274405      0.40280797176043     -0.31583029915124
  Br  0.19931168749510     -1.46657726934750      1.81267906669342
  H   0.12021372763550      0.74807141458169     -1.29475084955707
  H   0.34742499552742     -1.70309565999875     -0.65212834286858
  N   -1.58424103459708     -1.08888414992771     -0.31056335464989
  H   -1.76937467875772     -1.22937391266716     -1.29446972089975
  H   -2.11049312671725     -0.30451651463686      0.04890349107636
  C   1.92119087885757      0.33129494900377     -0.29680698942783
  N   3.08920023609764      0.22095216374263     -0.34985732601642
  N   -0.02706725200312      1.44140957317990      0.66368618915462
  O   0.77091765483810      1.94179530055529      1.44201853845247
  O   -1.23004090485502      1.68156320342463      0.59061275195434
