13
Coordinates from ORCA-job run
  C   -0.48326006628403     -0.64669873747448      0.34036815223051
  C   0.21411489990009      0.54728527642046     -0.31161063273028
  Br  -2.26863340020247      0.00000696926147      0.97357407713810
  H   -0.37049248219727      0.93798152629739     -1.14751575079700
  H   0.04656027223324     -0.91664481607876      1.25243979819720
  N   -0.52365216434164     -1.72819122390611     -0.56121435280069
  H   -1.12556693426545     -1.55253506616051     -1.35575355340405
  H   -0.80337008900741     -2.58964284972734     -0.11207508753961
  C   1.56035972357812      0.18029328300608     -0.74242419698078
  N   2.64852666043252     -0.09568248889544     -1.08704255543413
  N   0.33576485410592      1.68339206309920      0.67887404876131
  O   -0.08288271336810      2.77554556415200      0.31829248519468
  O   0.85353143941649      1.40389050000604      1.75308756816475
