13
Coordinates from ORCA-job run
  C   -0.18803967715508     -0.94070917209518     -0.00510974346558
  C   0.52336304227523      0.36955006336406     -0.37499062518205
  Br  0.32909247418735     -1.58363527750475      1.75641147049967
  H   0.28365002016383      0.59945113236674     -1.41773681942446
  H   0.19747979579905     -1.70612470250764     -0.69037213754626
  N   -1.60702877842317     -0.72002798938223     -0.01868136201641
  H   -1.91534564939018     -0.36769879883394     -0.91847932946484
  H   -2.10334813317581     -1.57485065873938      0.19631521781759
  C   1.96704561978064      0.30672007205674     -0.20569788516227
  N   3.13648550686769      0.24367178483242     -0.12258142140722
  N   -0.05710581074428      1.51996074367717      0.41322390500946
  O   -0.93302127744549      2.15791432528692     -0.16000381704689
  O   0.36677286726021      1.69477847747909      1.54670254738925
