13
Coordinates from ORCA-job run
  C   -0.55433820860144     -0.59026697596775      0.33970801440142
  C   0.14665967647016      0.61757802334341     -0.29221248793883
  Br  -2.23435000102675      0.00918061990408      1.10496260233130
  H   -0.51348701172881      1.09432322689254     -1.01744879957070
  H   0.04336490041865     -0.94518090226368      1.18513542274736
  N   -0.81846700029188     -1.54431323416913     -0.71220353675665
  H   0.03372529457641     -2.04948974476833     -0.93463735395849
  H   -1.51442847214513     -2.21525370317302     -0.41285526614254
  C   1.39344163558930      0.18407715216178     -0.91545424168277
  N   2.37683330569014     -0.22053886347777     -1.41437247021960
  N   0.47076055032963      1.64273528648143      0.76448339182127
  O   0.01405372966210      2.76731973530184      0.60059164396308
  O   1.15623160105763      1.24982937973459      1.70230308100514
