13
Coordinates from ORCA-job run
  C   -0.36101231844677     -0.83506874087522     -0.46508007591073
  C   0.59778841069148      0.35511771626805     -0.42118644677219
  Br  0.69475178164998     -2.36269827892321     -1.16823000959371
  H   1.05980805852076      0.49583920352153     -1.39826714741799
  H   -1.08771872445016     -0.65577111856041     -1.26363680770722
  N   -0.89139618118477     -1.11577961765021      0.81268598636358
  H   -1.77290327863678     -1.60424497373103      0.78978197830590
  H   -0.91131501212144     -0.32684887461801      1.44321526647102
  C   1.60850742936797      0.23450751696103      0.62133088307406
  N   2.44398850984191      0.15492363202249      1.44222481901700
  N   -0.24085486010834      1.59824303928449     -0.18277404280470
  O   -0.66392883706656      2.14890232084230     -1.19244164410324
  O   -0.47571497805728      1.91187817545821      0.98037724107821
