13
Coordinates from ORCA-job run
  C   -0.73648504551116     -0.47842515782028      0.03415802989302
  C   0.37192298380217      0.54983844731265     -0.21588280793625
  Br  -2.44906022137365      0.38390450815648     -0.27051905057388
  H   0.27137913513708      0.97141449758547     -1.21653287408942
  H   -0.73206593109595     -0.75484677295054      1.09313847193256
  N   -0.56343218840274     -1.55182700191250     -0.91655350372841
  H   0.19453123587097     -2.15539486573793     -0.61245764238049
  H   -1.40638941927733     -2.10912783478819     -0.97466095828452
  C   1.67408972329948     -0.08570872588329     -0.03855526131430
  N   2.69524211598326     -0.64937541663326      0.09975503710569
  N   0.25781385352806      1.68776582823792      0.76696733289909
  O   0.14886129594228      2.81356972930450      0.29709957391472
  O   0.27459246209753      1.37721276512897      1.95304365256218
