13
Coordinates from ORCA-job run
  C   -0.32799288710231     -0.93526676315618     -0.33971287331951
  C   0.65880471441359      0.25432563678462     -0.43570298516686
  Br  0.77111540862600     -2.55383188957950     -0.42603829497611
  H   1.24837596102434      0.19346015857662     -1.35231163001174
  H   -0.93168102347150     -0.93120572565767     -1.24832432767085
  N   -1.17085562788398     -0.95639062317785      0.79745527827157
  H   -1.95980888986192     -0.33059607904641      0.71759498344937
  H   -0.67874251672096     -0.82384865595061      1.67094889261400
  C   1.50807403586246      0.35804565760512      0.74071356709562
  N   2.17861086972350      0.40573565600780      1.70358365844124
  N   -0.20210661485984      1.49155309840514     -0.57124000365862
  O   -0.71536608794831      1.63705651313215     -1.67642883659887
  O   -0.37942734180106      2.19096301605678      0.41946257153077
