13
Coordinates from ORCA-job run
  C   -0.19875492883232     -0.93747967888265      0.04964961919407
  C   0.52437704517874      0.34257522270077     -0.39526717004990
  Br  0.31496125537967     -1.47988153347286      1.84676876123956
  H   0.28064986194779      0.51646553870528     -1.44797565575261
  H   0.18157129793934     -1.74451358877707     -0.58913625427353
  N   -1.61505615750614     -0.70743115583412      0.02262154665181
  H   -1.91875389190065     -0.37234741868270     -0.88498953994763
  H   -2.11956252167954     -1.55190839370770      0.25821293133004
  C   1.96815257963266      0.27279188087501     -0.23047824495868
  N   3.13514891088295      0.18506976722578     -0.13645603130542
  N   -0.03850676720785      1.54197825046257      0.33079225497740
  O   0.41399985683701      1.79196036279464      1.43915105217723
  O   -0.92822654067167      2.14172074659307     -0.26289326928234
