13
Coordinates from ORCA-job run
  C   -0.54039511753548     -0.68302920109951      0.38408373869704
  C   0.09621251264125      0.57720638392971     -0.24101490586909
  Br  -2.26917871690453     -0.14600295526814      1.11408131323996
  H   -0.56540179475116      1.02020312198602     -0.98825364210703
  H   0.07292163582739     -0.98761674519249      1.23278615793762
  N   -0.70510031023288     -1.77797817084464     -0.51132141846005
  H   -1.18060692865153     -1.52411293150559     -1.36699430963730
  H   0.17324169335141     -2.23898710550511     -0.71030063423029
  C   1.38664279999241      0.22315561133056     -0.82358396914288
  N   2.40692643953345     -0.12190382472208     -1.29255604296778
  N   0.32118587840676      1.63595754554018      0.81146991794627
  O   0.98784642864894      1.29003964916071      1.78050639766121
  O   -0.18429452032602      2.73306862219040      0.61109739693232
