13
Coordinates from ORCA-job run
  C   -0.43171771541123     -0.76099644363527     -0.42339782468211
  C   0.62342384875098      0.34461575935599     -0.43011674768081
  Br  0.54402447249886     -2.45725622029762     -0.88292716371062
  H   1.14950059450618      0.36031520311169     -1.38646495022281
  H   -1.10193414955015     -0.60905660998525     -1.26707298598241
  N   -1.14267760190735     -0.75854399499229      0.78617296341866
  H   -0.57156192277841     -0.99058173294504      1.58992531704433
  H   -1.96128506692037     -1.35023274339366      0.76059937206617
  C   1.55596752276349      0.22107203478275      0.68163645023494
  N   2.29159237094038      0.07812554341046      1.58564561408224
  N   -0.12869070781912      1.66469342570686     -0.34621385582433
  O   0.02345030535970      2.36565557788512      0.64282378090801
  O   -0.85009195043296      1.89119020099627     -1.31060996965124
