13
Coordinates from ORCA-job run
  C   -0.69913788027724     -0.60873916013671      0.21649253482250
  C   0.22512819007771      0.54500378815101     -0.23065638482251
  Br  -2.51694141570283      0.10097112185610      0.25572194506515
  H   -0.09742107966678      0.95479723167601     -1.19001316928188
  H   -0.44514426430937     -0.86699860807192      1.24506851567124
  N   -0.64475128615453     -1.77255190431957     -0.60201373290871
  H   -0.77331194812197     -1.57404554451511     -1.58523385936525
  H   0.20364820183592     -2.30246356412778     -0.44960476713436
  C   1.59910467300000      0.05823823887838     -0.30125915679421
  N   2.68232058740325     -0.39221646752005     -0.36240019754368
  N   0.17019083822268      1.68233427569223      0.76010636061682
  O   -0.13326778070598      2.78499448161802      0.32268008061099
  O   0.42858316439914      1.38867611081938      1.92211183106391
