13
Coordinates from ORCA-job run
  C   -0.22076478060445     -0.90219441743252     -0.16522151632954
  C   0.51897914266557      0.43147342286798     -0.32990743671582
  Br  -0.03366627784075     -1.45222872938762      1.76061532566923
  H   0.26304395319106      0.82708864738625     -1.31877801508044
  H   0.35393323036223     -1.66672062188091     -0.68759189636068
  N   -1.53115310789732     -0.85197481631000     -0.67316586186579
  H   -1.97321115754276     -1.76100888984073     -0.65805851166359
  H   -2.10427627930304     -0.17195756097357     -0.19162666336975
  C   1.96087283795478      0.27371543397143     -0.20587399757945
  N   3.12216943359481      0.10443633283748     -0.17247410989633
  N   0.01457455474091      1.47097386535325      0.65213456467882
  O   0.82376624492677      2.02879246546485      1.37692936638879
  O   -1.19526779424779      1.67260486794412      0.61201875212456
