13
Coordinates from ORCA-job run
  C   -0.37191038806821     -0.85251459634251     -0.38210891676735
  C   0.59341502449135      0.33539922673635     -0.41807220610636
  Br  0.63926124281356     -2.40762333663223     -0.99547190110567
  H   1.12716670383348      0.36392338178593     -1.36882755072756
  H   -1.13016102247972     -0.69425596665952     -1.16001717349036
  N   -0.85130272478542     -1.10724670603769      0.94299690512038
  H   -1.44750642299325     -1.92483304490836      0.95520153987641
  H   -1.37221567790779     -0.30315939572089      1.27361295117677
  C   1.54322627239047      0.32786015614551      0.68985192018708
  N   2.33600530450070      0.35850791411327      1.55508574327735
  N   -0.17347993997110      1.64815437300969     -0.37434777241911
  O   0.23868999789294      2.53845205364870     -1.10661269559178
  O   -1.13218836971702      1.71633594086176      0.38970915657020
