13
Coordinates from ORCA-job run
  C   -0.22995045935684     -0.90618238150924     -0.12563008115354
  C   0.52204344063692      0.41190067646986     -0.34902064563170
  Br  -0.04159277765893     -1.37538940879711      1.82242455963155
  H   0.26444615653809      0.76834867851425     -1.35215288871642
  H   0.33593125109535     -1.69802270209897     -0.61594983791293
  N   -1.54137500779580     -0.86518312773867     -0.63058713365502
  H   -2.10619454244934     -0.15825680671977     -0.17909733839804
  H   -1.99249353067470     -1.76817551410325     -0.57514171619303
  C   1.96267656698395      0.24521941320834     -0.22552844073657
  N   3.12221265483313      0.06398098001837     -0.19190738449544
  N   0.03163076084958      1.49683328840032      0.59013082139214
  O   0.84827503240785      2.07294599046289      1.29188819322313
  O   -1.17560954540927      1.71198091389298      0.54157189264588
