13
Coordinates from ORCA-job run
  C   -0.56593929987038     -0.67206394763598      0.36420950826114
  C   0.11359553054565      0.56509409499905     -0.26261126938856
  Br  -2.36622756524915     -0.13049719815867      0.88805808990034
  H   -0.47447596029132      0.95403453614459     -1.09633815409211
  H   -0.03659486721206     -0.91935031325636      1.28500049792244
  N   -0.62565529096086     -1.81614583560076     -0.48165670803165
  H   0.27563768315830     -2.26737276973002     -0.57122367988276
  H   -1.02097116848339     -1.61768886129599     -1.39124489697472
  C   1.46178955127084      0.20508461426161     -0.68985306225105
  N   2.53092717140974     -0.14351308183852     -1.02920840424587
  N   0.21405773912998      1.68245818166731      0.74734156494352
  O   0.78706911681711      1.40345218629857      1.79484608545883
  O   -0.29221264026447      2.75450839414517      0.44068042838046
