13
Coordinates from ORCA-job run
  C   -0.20501316795507     -0.97408207230993     -0.04385109595235
  C   0.47903144830924      0.39669160987885     -0.30804369690416
  Br  0.14834658973768     -1.45966112147204      1.82357097568305
  H   0.15409113260537      0.74104485135404     -1.29496240739672
  H   0.34200607709880     -1.70934598966799     -0.63692554550090
  N   -1.58872745413096     -1.07100667437229     -0.33764971081291
  H   -1.75746672738564     -1.22747212493542     -1.32165144529878
  H   -2.11357492906067     -0.27689360291608      0.00120502255476
  C   1.93051977662094      0.31049380559684     -0.25922592154725
  N   3.09809256781796      0.18932857213849     -0.28876447766346
  N   -0.02506138409457      1.44482614085015      0.65681295300364
  O   0.76070232582339      1.93635693735919      1.45298526474126
  O   -1.22294625538649      1.69971966849620      0.55550008509381
