13
Coordinates from ORCA-job run
  C   -0.21415228009997     -0.97291172266244     -0.01628351774065
  C   0.48890445103021      0.38215643184059     -0.30951653051341
  Br  0.09709576178605     -1.40242924873705      1.87237473294815
  H   0.18804983319529      0.69691522633598     -1.31399510843811
  H   0.33744537717242     -1.73123032731755     -0.57513472721876
  N   -1.59263247371910     -1.06543776670012     -0.33563598843667
  H   -1.74303342944013     -1.25610490353966     -1.31668028100310
  H   -2.11558629386482     -0.25389980630596     -0.03717193512228
  C   1.93815794052680      0.28329115407046     -0.22883933359266
  N   3.10496341374688      0.14973839982645     -0.23246048960259
  N   -0.02354241258982      1.46529981313940      0.61038546012254
  O   0.75166753276657      1.97478918581314      1.40585273752174
  O   -1.21633742051038      1.72882356423676      0.47710498107580
