16

C	0.0	0.0	0.0
C	-0.138391	-0.197348	-1.529558
Cl	1.864877	0.0	0.0
H	0.223098	-1.184751	-1.806023
H	0.454265	0.571372	-2.02278
N	-0.543779	1.21313	0.467271
H	-0.931941	1.753883	-0.29411
H	-1.311736	1.020511	1.099509
C	-0.468208	-1.194423	0.800854
H	-0.239591	-1.035779	1.857046
H	-1.552912	-1.267895	0.669394
H	0.022738	-2.109668	0.466605
N	-1.486145	-0.049423	-2.147951
O	-1.878149	1.105772	-2.302948
O	-2.038915	-1.064567	-2.555932
Cl	-3.790309	0.0	0.0
