16

C	0.0	0.0	0.0
C	-0.495131	0.048987	-1.435584
Cl	1.857683	0.0	0.0
H	-0.243765	-0.864479	-1.968687
H	-1.584611	0.19773	-1.375893
N	-0.487117	1.082115	0.747398
H	-0.224692	1.03787	1.71987
H	-0.29256	1.98044	0.333647
C	-0.454369	-1.307677	0.61785
H	-0.12611	-1.354624	1.659274
H	-1.548382	-1.315345	0.580249
H	-0.033581	-2.162	0.084847
N	0.091477	1.152218	-2.240752
O	0.54933	0.864672	-3.345809
O	0.069391	2.290622	-1.772476
Cl	-3.832984	0.0	0.0
