16

C	0.0	0.0	0.0
C	-0.465301	-0.136345	-1.455563
Cl	1.804455	0.0	0.0
H	-1.555378	-0.011229	-1.447216
H	-0.175086	-1.094898	-1.880793
N	-0.472361	1.157533	0.704124
H	-1.48431	1.033979	0.797232
H	-0.32526	1.978455	0.127197
C	-0.448547	-1.248001	0.746001
H	-0.120015	-1.159078	1.782301
H	-1.539169	-1.303265	0.711873
H	-0.010682	-2.145269	0.305021
N	0.115579	0.887643	-2.360913
O	0.69941	0.49242	-3.370349
O	-0.021071	2.073363	-2.057473
Cl	-3.66201	0.0	0.0
