12

C	0.0	0.0	0.0
C	-0.358974	0.251067	-1.463551
Br	1.940258	0.0	0.0
H	-0.052079	-0.64713	-2.011397
H	-0.376253	-0.917113	0.426349
H	0.267111	1.066757	-1.832829
N	-0.414163	1.119135	0.901862
O	-0.53838	0.847045	2.089698
O	-0.494122	2.236648	0.407535
C	-1.75388	0.562443	-1.823938
N	-2.539255	0.919873	-2.632746
F	-2.345348	0.0	0.0
