15

C	-0.405798	-0.106554	-1.457571
C	0.0	0.0	0.0
Cl	-2.152124	-0.335996	-1.698688
H	1.095559	0.0	0.0
H	0.113895	-0.942792	-1.91996
N	0.02707	1.107014	-2.247373
O	0.97422	0.937097	-3.0075
O	-0.578053	2.153447	-2.057507
C	-0.39661	-1.260784	0.776493
H	0.064739	-1.21809	1.764808
H	-8.7e-05	-2.141	0.264481
H	-1.478532	-1.356171	0.885379
C	-0.526511	1.1889	0.659716
N	-0.954847	2.097862	1.268462
Br	3.400331	0.0	0.0
