15

C	-0.382503	0.048047	-1.476814
C	0.0	0.0	0.0
Cl	0.135897	-1.389157	-2.349339
H	1.095997	0.0	0.0
H	0.066135	0.916005	-1.955265
N	-1.873528	0.224349	-1.645482
O	-2.246189	1.354098	-1.958676
O	-2.602003	-0.734483	-1.411548
C	-0.484609	-1.219693	0.781987
H	-0.054683	-1.170435	1.783766
H	-1.572173	-1.261052	0.855681
H	-0.120284	-2.12997	0.306547
C	-0.452725	1.238412	0.630944
N	-0.817233	2.226721	1.151822
Br	3.410271	0.0	0.0
