15

C	-0.376531	-0.031735	-1.461883
C	0.0	0.0	0.0
Cl	-2.136126	-0.025094	-1.752087
H	1.095183	0.0	0.0
H	0.030443	-0.925464	-1.930636
N	0.200372	1.114801	-2.254256
O	0.532153	0.847394	-3.406094
O	0.255871	2.211236	-1.714341
C	-0.410833	-1.307538	0.687621
H	-1.494899	-1.431498	0.723411
H	0.038991	-2.151169	0.158775
H	-0.01568	-1.306449	1.704153
C	-0.547081	1.137739	0.727334
N	-1.04868	1.972538	1.384223
Br	3.396537	0.0	0.0
