15

C	-0.402556	0.029955	-1.471649
C	0.0	0.0	0.0
Cl	0.233815	-1.347165	-2.359557
H	1.095958	0.0	0.0
H	-0.046071	0.940675	-1.94918
N	-1.909514	0.07124	-1.605885
O	-2.538917	-0.976717	-1.496793
O	-2.395199	1.193444	-1.753962
C	-0.472674	-1.226554	0.780123
H	-1.559143	-1.263972	0.880914
H	-0.020164	-1.191258	1.772643
H	-0.126615	-2.134322	0.286121
C	-0.45599	1.231404	0.64069
N	-0.816562	2.212705	1.177167
Br	3.422371	0.0	0.0
