14

C	-0.450515	-0.083976	-1.445826
C	0.0	0.0	0.0
F	-0.109484	1.066164	-2.140934
H	1.095622	0.0	0.0
H	-1.54039	-0.187384	-1.534541
C	0.159861	-1.240312	-2.131299
N	0.576926	-2.167183	-2.719591
C	-0.394037	-1.262786	0.768463
H	0.16392	-2.109721	0.36267
H	-0.091672	-1.149364	1.811009
H	-1.46954	-1.481687	0.737726
C	-0.581011	1.181855	0.604852
N	-1.063399	2.118517	1.129129
F	2.534491	0.0	0.0
