14

C	-0.326755	-0.016035	-1.485342
C	0.0	0.0	0.0
F	0.124418	-1.199762	-2.050779
H	1.096187	0.0	0.0
H	0.203065	0.806188	-1.974264
C	-1.773614	0.075489	-1.780234
N	-2.925474	0.141807	-1.998553
C	-0.524166	-1.227482	0.734032
H	-0.200101	-1.185175	1.775736
H	-0.076928	-2.114343	0.284714
H	-1.616154	-1.316234	0.706717
C	-0.491923	1.239662	0.568149
N	-0.887698	2.244815	1.035255
F	2.541175	0.0	0.0
