14

C	-0.328574	-0.009658	-1.484853
C	0.0	0.0	0.0
F	0.120323	-1.191881	-2.05572
H	1.096166	0.0	0.0
H	0.202188	0.813683	-1.970964
C	-1.77571	0.084891	-1.777249
N	-2.92895	0.148805	-1.990491
C	-0.525745	-1.22906	0.729769
H	-1.618028	-1.316086	0.701644
H	-0.079763	-2.115559	0.277491
H	-0.201698	-1.190573	1.771397
C	-0.490191	1.2383	0.573279
N	-0.883572	2.242514	1.044437
F	2.540622	0.0	0.0
