14

C	-0.281673	-0.094843	-1.475738
C	0.0	0.0	0.0
F	-1.605963	-0.45642	-1.780093
H	1.096729	0.0	0.0
H	0.365968	-0.878213	-1.878947
C	-0.000449	1.159924	-2.190714
N	0.191343	2.16782	-2.760426
C	-0.38489	-1.291608	0.720098
H	-0.078601	-1.219799	1.765359
H	-1.45449	-1.514088	0.672388
H	0.179544	-2.114726	0.273477
C	-0.596691	1.165923	0.615423
N	-1.089025	2.093135	1.146784
F	2.526455	0.0	0.0
