14

C	-0.329958	-0.009134	-1.484421
C	0.0	0.0	0.0
F	0.119686	-1.190168	-2.05681
H	1.09618	0.0	0.0
H	0.198765	0.815419	-1.970762
C	-1.778005	0.083367	-1.775376
N	-2.931349	0.142663	-1.99009
C	-0.525187	-1.22943	0.729924
H	-0.081538	-2.115867	0.275309
H	-1.6177	-1.315344	0.704817
H	-0.198285	-1.192389	1.770986
C	-0.489589	1.237977	0.574108
N	-0.881062	2.242528	1.046033
F	2.540106	0.0	0.0
