14

C	-0.464465	-0.072697	-1.443713
C	0.0	0.0	0.0
F	-0.120536	1.079264	-2.13461
H	1.095614	0.0	0.0
H	-1.556137	-0.164657	-1.523959
C	0.139774	-1.22408	-2.140767
N	0.606519	-2.122982	-2.733168
C	-0.391484	-1.266758	0.763044
H	0.170033	-2.109456	0.353778
H	-0.089786	-1.156186	1.805574
H	-1.465241	-1.490433	0.72922
C	-0.570621	1.181262	0.614256
N	-1.0505	2.123904	1.129165
F	2.531303	0.0	0.0
