14

C	-0.328501	-0.009651	-1.484888
C	0.0	0.0	0.0
F	0.120389	-1.191905	-2.055724
H	1.096153	0.0	0.0
H	0.202361	0.813638	-1.970947
C	-1.775578	0.084972	-1.77737
N	-2.928795	0.148884	-1.990693
C	-0.525776	-1.229055	0.729755
H	-0.201828	-1.190536	1.771425
H	-0.079724	-2.115551	0.277542
H	-1.618052	-1.31609	0.701524
C	-0.490307	1.238281	0.57321
N	-0.884451	2.242368	1.044021
F	2.540737	0.0	0.0
