14

C	-0.482359	-0.077312	-1.43611
C	0.0	0.0	0.0
F	-0.176418	1.085673	-2.128111
H	1.095463	0.0	0.0
H	-1.573446	-0.197994	-1.503645
C	0.146836	-1.211936	-2.136148
N	0.619067	-2.120747	-2.710138
C	-0.381053	-1.267248	0.767561
H	-1.455417	-1.492646	0.744771
H	-0.06927	-1.155358	1.807386
H	0.178628	-2.109327	0.354234
C	-0.569619	1.180485	0.618634
N	-1.045975	2.120008	1.14251
F	2.529324	0.0	0.0
