13

C	-0.410872	-0.076397	-1.444216
C	0.0	0.0	0.0
F	-1.804209	-0.137626	-1.6093
H	1.102255	0.0	0.0
H	0.006812	-0.978234	-1.901047
C	0.059857	1.103027	-2.188531
N	0.374874	2.020461	-2.847889
C	-0.478725	-1.183033	0.707584
N	-0.860897	-2.136658	1.281186
N	-0.416616	1.26069	0.603478
H	-1.282349	1.176453	1.118858
H	0.321895	1.556452	1.228977
F	2.523793	0.0	0.0
