13

C	-0.4411	-0.01904	-1.451992
C	0.0	0.0	0.0
F	-0.142553	-1.229494	-2.056785
H	1.098007	0.0	0.0
H	0.111802	0.773944	-1.961959
C	-1.892782	0.215566	-1.602414
N	-3.048798	0.387705	-1.723305
C	-0.546631	-1.127895	0.741375
N	-1.010281	-2.006869	1.371383
N	-0.371233	1.307583	0.549941
H	0.411582	1.615251	1.115914
H	-1.200393	1.25915	1.126113
F	2.544554	0.0	0.0
