13

C	-0.311904	-0.002265	-1.477407
C	0.0	0.0	0.0
F	-1.691882	0.008947	-1.743234
H	1.096083	0.0	0.0
H	0.105424	-0.895863	-1.949466
C	0.248898	1.197259	-2.125036
N	0.645188	2.147841	-2.687112
C	-0.527631	-1.220104	0.598508
N	-0.953156	-2.209271	1.070457
N	-0.45346	1.180307	0.718043
H	0.281051	1.874771	0.661628
H	-1.311115	1.555399	0.329102
F	2.524513	0.0	0.0
