13

C	-0.067646	-0.110632	-1.538271
C	0.0	0.0	0.0
Br	-0.276162	2.02092	-2.178442
H	1.09421	0.0	0.0
H	-0.446586	0.912602	0.383284
N	1.083589	-0.679953	-1.970488
H	1.203235	-0.80899	-2.96252
H	1.932531	-0.450113	-1.356765
C	-1.288543	-0.608899	-2.156962
N	-2.261255	-1.06899	-2.631713
C	-0.533013	-1.187041	0.641806
N	-0.964149	-2.137459	1.181879
F	2.666504	0.0	0.0
