13

C	-0.107253	0.141124	-1.526894
C	0.0	0.0	0.0
Br	-1.876396	0.92022	-2.14557
H	1.096653	0.0	0.0
H	-0.43188	-0.931082	0.365834
N	0.964534	0.969416	-1.948631
H	1.802429	0.722966	-1.367604
H	1.142836	0.888281	-2.940533
C	-0.12713	-1.200947	-2.137269
N	-0.091816	-2.260006	-2.648999
C	-0.505359	1.142306	0.729928
N	-0.901791	2.044214	1.370431
F	2.622182	0.0	0.0
