13

C	-0.509224	0.024936	-1.440422
C	0.0	0.0	0.0
Br	0.259012	-1.513872	-2.402565
H	1.092651	0.0	0.0
H	-0.316039	0.939069	0.474793
N	-1.951434	-0.039607	-1.657365
H	-2.365188	0.740616	-1.152379
H	-2.285283	-0.893853	-1.219949
C	-0.015658	1.240577	-2.097964
N	0.298375	2.25674	-2.596406
C	-0.590105	-1.109	0.718266
N	-1.095139	-2.007705	1.285535
F	2.514556	0.0	0.0
