13

C	-0.0883	0.1026	-1.529263
C	0.0	0.0	0.0
Br	-1.874262	0.77277	-2.200551
H	1.096659	0.0	0.0
H	-0.431668	-0.923376	0.384592
N	0.950422	0.97858	-1.949782
H	1.793173	0.74321	-1.374105
H	1.131054	0.898474	-2.942126
C	-0.013214	-1.25322	-2.105216
N	0.114968	-2.323114	-2.578536
C	-0.517275	1.162211	0.688281
N	-0.920234	2.08729	1.290591
F	2.616272	0.0	0.0
