13

C	-0.073377	-0.365741	-1.498459
C	0.0	0.0	0.0
Br	-0.302204	1.617368	-2.491158
H	1.102933	0.0	0.0
H	-0.44404	0.964591	0.226487
N	1.077359	-0.999297	-1.838345
H	1.924896	-0.669817	-1.278708
H	1.190124	-1.279496	-2.800164
C	-1.290339	-0.978439	-2.014381
N	-2.251992	-1.538788	-2.397355
C	-0.535477	-1.061397	0.830969
N	-0.978044	-1.909718	1.513808
F	2.662377	0.0	0.0
