13

C	-0.140375	-0.06905	-1.542494
C	0.0	0.0	0.0
Br	-0.127748	1.797568	-2.264416
H	1.093917	0.0	0.0
H	-0.312333	-0.975805	0.389808
N	0.973341	-0.775264	-2.106729
H	1.794784	-0.575667	-1.493038
H	0.780571	-1.770077	-2.107496
C	-1.416819	-0.636897	-1.984049
N	-2.445512	-1.132961	-2.262929
C	-0.678889	1.057968	0.708247
N	-1.223158	1.891803	1.3342
F	2.616973	0.0	0.0
