13

C	-0.53415	-0.006869	-1.430882
C	0.0	0.0	0.0
Br	0.254767	-1.537683	-2.38829
H	1.090628	0.0	0.0
H	-0.317158	0.944081	0.464142
N	-1.978962	-0.112227	-1.617909
H	-2.280209	-0.973344	-1.169657
H	-2.403131	0.65824	-1.106304
C	-0.089021	1.212127	-2.116251
N	0.18681	2.223124	-2.646911
C	-0.570257	-1.101341	0.747115
N	-1.05174	-1.997534	1.33809
F	2.516864	0.0	0.0
