17

C	0.0	0.0	0.0
C	-0.33944	-0.148347	-1.506734
Br	2.074306	0.0	0.0
H	0.353799	0.497237	-2.060517
C	-0.28077	1.347469	0.486817
N	-0.481827	2.449315	0.844846
N	-0.546401	-0.993206	0.805451
H	-0.81435	-1.785435	0.230533
H	-1.285227	-0.67503	1.417877
C	-1.76742	0.289869	-1.779908
H	-2.516389	-0.234624	-1.183005
H	-1.899824	1.3531	-1.575934
H	-1.989046	0.127003	-2.840413
N	-0.173316	-1.562618	-1.82842
H	-0.735093	-1.798432	-2.634819
H	0.798082	-1.77138	-2.02398
Cl	-4.698534	0.0	0.0
