17

C	0.0	0.0	0.0
C	-0.389857	-0.025273	-1.517871
Br	1.955811	0.0	0.0
H	-1.457966	-0.19959	-1.682329
C	-0.43419	1.225407	0.677483
N	-0.556775	2.268407	1.205016
N	-0.305766	-1.247538	0.673577
H	-1.309088	-1.345547	0.812124
H	0.148347	-1.234391	1.578425
C	0.299641	-1.152942	-2.290635
H	0.248705	-2.082406	-1.719754
H	-0.242329	-1.303667	-3.231973
H	1.342508	-0.926913	-2.527324
N	-0.011092	1.280162	-2.097143
H	-0.136939	1.214148	-3.103004
H	-0.695965	1.963233	-1.777376
Cl	-3.322846	0.0	0.0
