17

C	0.0	0.0	0.0
C	-0.35957	-0.175077	-1.53371
Br	1.955995	0.0	0.0
H	0.438272	0.344437	-2.070968
C	-0.312741	1.364926	0.458435
N	-0.545383	2.452905	0.841309
N	-0.578881	-1.035424	0.800583
H	-1.58941	-1.01607	0.628185
H	-0.443838	-0.829206	1.784604
C	-1.674956	0.464835	-1.934725
H	-1.661336	1.539219	-1.741543
H	-2.543326	0.061502	-1.410959
H	-1.800957	0.308758	-3.009225
N	-0.331263	-1.565209	-1.947337
H	0.489662	-2.022525	-1.567046
H	-1.139728	-2.038688	-1.55885
Cl	-4.387978	0.0	0.0
