17

C	0.0	0.0	0.0
C	-0.338016	-0.206361	-1.501197
Br	2.074984	0.0	0.0
H	0.351792	0.422896	-2.077268
C	-0.284168	1.363123	0.437855
N	-0.479323	2.477267	0.759335
N	-0.542158	-0.964798	0.842789
H	-1.28549	-0.627939	1.43851
H	-0.803294	-1.78018	0.29884
C	-1.768935	0.212319	-1.792135
H	-1.985533	0.011636	-2.847864
H	-1.908632	1.281093	-1.626717
H	-2.517077	-0.29427	-1.179788
N	-0.163702	-1.629375	-1.769238
H	0.808532	-1.840654	-1.956541
H	-0.72382	-1.898986	-2.566065
Cl	-4.69954	0.0	0.0
