17

C	0.0	0.0	0.0
C	-0.546487	0.0209	-1.427237
Br	2.047628	0.0	0.0
H	-1.61963	0.188334	-1.237807
C	-0.281664	1.274216	0.671306
N	-0.464556	2.279445	1.250422
N	-0.498496	-1.060035	0.748534
H	-0.28522	-1.974162	0.383003
H	-0.356071	-0.989181	1.743162
C	-0.385047	-1.318917	-2.135008
H	-0.752941	-1.218712	-3.159651
H	-0.985478	-2.095293	-1.655996
H	0.666285	-1.626047	-2.172851
N	3.3e-05	1.16713	-2.134239
H	0.843977	0.91271	-2.632667
H	-0.682694	1.507711	-2.797476
Cl	-3.827198	0.0	0.0
