13
Coordinates from ORCA-job run
  C   0.51045163834561     -0.03361628977042      0.51197546254628
  C   -0.89959057759545     -0.46397835998014      0.11149702899319
  Cl  0.94914641063336     -0.99796321269032      2.02087420320605
  H   -1.55759320915976     -0.34679740740410      0.97394019843155
  H   -0.84825159283866     -1.53954855654755     -0.12376769057503
  C   0.54393965547798      1.37834888541877      0.90099386742391
  N   0.60486172602856      2.50614477134552      1.22064180209203
  N   1.40877353076987     -0.25395608700017     -0.56818107683856
  H   1.48088351138019     -1.24497372975835     -0.76842754532844
  H   2.33200881805092      0.11456969791479     -0.37656925176114
  N   -1.35189289624046      0.39942380037174     -0.95945599253928
  H   -2.33894710317559      0.26937478905797     -1.13400509738712
  H   -0.83478991167658      0.21297169904227     -1.80751590826344
