13
Coordinates from ORCA-job run
  C   0.55053976302989      0.05490300252323      0.33069397418360
  C   -0.59006227999949     -0.35829489886187     -0.59881155152703
  Cl  0.12454220222118     -0.58919491369189      2.01438331026083
  H   -0.32496736633297      0.02692737030212     -1.58654623063166
  H   -0.57773455833172     -1.45819766621534     -0.64757304609694
  C   0.61665097758064      1.51156359661160      0.46231306241464
  N   0.68469564141937      2.68163892823078      0.52716898838563
  N   1.78646082702345     -0.44289143372311     -0.15262661597379
  H   2.56370280441720     -0.16287105081367      0.43207115944984
  H   1.76621210033745     -1.45296608390996     -0.22242316312562
  N   -1.84367166798349      0.22636010700279     -0.17580096207832
  H   -2.26528083181459     -0.31436391706595      0.56673143744115
  H   -2.49208761156690      0.27638695961127     -0.94858036270233
