17

C	-0.337829	-0.067089	-1.494708
C	0.0	0.0	0.0
Cl	-2.111028	-0.573328	-1.754131
H	1.088689	0.0	0.0
N	-0.077902	1.203652	-2.078974
H	0.033169	1.111185	-3.079206
H	-0.791706	1.882078	-1.850142
N	0.461012	-1.12758	-2.016318
H	1.434834	-0.979138	-1.745686
H	0.370152	-1.177444	-3.023379
N	-0.49834	-1.189411	0.754449
O	-1.539389	-1.052725	1.396405
O	0.167025	-2.21164	0.662976
N	-0.502226	1.194227	0.72897
O	-0.022779	1.356425	1.845122
O	-1.356516	1.912713	0.20988
Cl	3.20922	0.0	0.0
