17

C	-0.407322	0.06507	-1.472927
C	0.0	0.0	0.0
Cl	0.01291	-1.722916	-2.125946
H	1.086077	0.0	0.0
N	-1.773175	0.336799	-1.679581
H	-2.33469	-0.402853	-1.279148
H	-1.976808	0.439202	-2.665658
N	0.437805	0.987114	-2.105819
H	1.406357	0.861782	-1.807033
H	0.377871	0.909323	-3.111589
N	-0.560335	-1.144267	0.764297
O	0.098576	-1.515636	1.729345
O	-1.656138	-1.593552	0.429573
N	-0.480429	1.24062	0.704512
O	-1.470449	1.140302	1.427839
O	0.157686	2.26062	0.487728
Cl	3.216939	0.0	0.0
