17

C	-0.276323	-0.006895	-1.513872
C	0.0	0.0	0.0
Cl	-2.026707	0.218725	-1.883325
H	1.092251	0.0	0.0
N	0.446855	1.027678	-2.212222
H	0.136367	1.9362	-1.888527
H	1.430581	0.924253	-1.960176
N	0.114005	-1.319502	-1.950174
H	0.156415	-1.287205	-2.963362
H	1.052484	-1.510228	-1.599048
N	-0.557148	-1.193885	0.686073
O	0.208266	-2.131325	0.881932
O	-1.752223	-1.160337	0.971521
N	-0.440125	1.203271	0.758136
O	-0.681165	2.236181	0.136707
O	-0.456122	1.090134	1.978921
Cl	3.182443	0.0	0.0
