17

C	-0.448831	0.049057	-1.458796
C	0.0	0.0	0.0
Cl	0.026865	-1.70807	-2.131987
H	1.086378	0.0	0.0
N	-1.833464	0.263964	-1.619602
H	-2.078946	0.314581	-2.600742
H	-2.344749	-0.487605	-1.174479
N	0.333126	1.015446	-2.109045
H	1.318438	0.900884	-1.874474
H	0.210713	0.973003	-3.112837
N	-0.527878	-1.140858	0.798204
O	-1.586289	-1.667538	0.459751
O	0.121701	-1.428263	1.79579
N	-0.482336	1.239463	0.708686
O	0.15436	2.260934	0.500092
O	-1.473818	1.132821	1.428118
Cl	3.206574	0.0	0.0
