17

C	-0.428412	-0.069862	-1.480859
C	0.0	0.0	0.0
Cl	0.101914	1.563733	-2.166415
H	1.087022	0.0	0.0
N	0.300292	-1.160478	-2.002323
H	1.292485	-1.085814	-1.780028
H	0.15606	-1.213605	-3.003106
N	-1.805383	-0.216957	-1.835454
H	-2.338318	0.527299	-1.405163
H	-2.13025	-1.101853	-1.463421
N	-0.483901	-1.228362	0.706102
O	-1.693812	-1.286449	0.940153
O	0.340015	-2.08855	0.977709
N	-0.547445	1.143549	0.775751
O	-1.614445	1.644493	0.418347
O	0.098439	1.472167	1.768713
Cl	3.232161	0.0	0.0
