17

C	-0.420186	0.006703	-1.487326
C	0.0	0.0	0.0
Cl	-0.060571	-1.723135	-2.04857
H	1.087331	0.0	0.0
N	-1.76541	0.394138	-1.660978
H	-2.385417	-0.230892	-1.162776
H	-1.977477	0.411771	-2.65022
N	0.419124	0.837257	-2.296002
H	0.318061	1.786138	-1.94895
H	1.389678	0.56638	-2.144112
N	-0.57301	-1.11309	0.80221
O	0.145735	-1.610117	1.661845
O	-1.741736	-1.430566	0.572754
N	-0.450922	1.267583	0.665112
O	-0.037191	2.308327	0.169685
O	-1.178564	1.187591	1.652404
Cl	3.208492	0.0	0.0
