16

C	-0.557757	-0.083379	-1.422186
C	0.0	0.0	0.0
Br	-0.256533	1.619049	-2.332938
H	1.093035	0.0	0.0
H	-1.646517	-0.186066	-1.379325
C	0.091282	-1.195171	-2.229923
H	1.177303	-1.086863	-2.185886
H	-0.173521	-2.172477	-1.818398
H	-0.240803	-1.154115	-3.26915
N	-0.431396	-1.33885	0.630124
O	0.350925	-2.284943	0.613782
O	-1.577108	-1.380465	1.093043
N	-0.500455	1.09546	0.750574
H	0.084949	1.249118	1.5611
H	-1.457443	0.93441	1.035977
Cl	3.378109	0.0	0.0
