16
Coordinates from ORCA-job run
  C   0.67541709086138     -0.22664412734018      0.06352452297441
  C   -0.57857058079546      0.32177539092361      0.75050769929244
  F   1.44364774566295     -0.83425268959436      1.00341192349742
  H   -0.24478230251127      0.76751013443239      1.69457031326775
  N   0.27654808578131     -1.27330688422346     -0.96521511384537
  O   -0.74468683015588     -1.01805030264238     -1.59447251341710
  O   1.03282143826269     -2.21733018552281     -1.11756429664552
  C   1.48377386504180      0.82876114696126     -0.65042467447736
  H   0.91965816836759      1.26516382966610     -1.47420759385148
  H   2.38946764991878      0.35452833598599     -1.03256099764915
  H   1.76763764587738      1.61389300190837      0.05290060876168
  N   -1.54534481993776     -0.77639258323026      1.18342571766568
  O   -2.65527187861840     -0.39471979724171      1.52278526970017
  O   -1.10604473193935     -1.91652666256852      1.21746240961885
  C   -1.29353836755381      1.32370784629426     -0.02522026040381
  N   -1.82073217826195      2.18188354619170     -0.62892301448861
