16
Coordinates from ORCA-job run
  C   0.62966877884792     -0.23442137726616      0.07396577975776
  C   -0.61041212040380      0.47315378485380      0.63272293635232
  F   1.21949700887852     -0.85796919413626      1.12704306541313
  H   -0.26401946631041      1.16552306774183      1.40408841802287
  N   0.21890525745376     -1.31512073807682     -0.92344564314452
  O   -0.29096141520947     -0.88976397177626     -1.95250994798642
  O   0.45512401717141     -2.47539523787333     -0.62823786231556
  C   1.59649934911867      0.70294341556655     -0.59960915213646
  H   1.13541407218043      1.18293598182470     -1.46130072143214
  H   1.92583661326564      1.45839525432024      0.11607163927964
  H   2.46593758246579      0.13022841133378     -0.92788493260882
  N   -1.47577831375931     -0.53471921111496      1.36424602766536
  O   -2.02234527301377     -1.37999041690063      0.66696728407655
  O   -1.53324742820366     -0.41479719310557      2.58103898712424
  C   -1.40482465381813      1.17851681163962     -0.36042365795467
  N   -2.04629400866359      1.81248061296946     -1.11273222011328
