16
Coordinates from ORCA-job run
  C   0.60323101743101      0.02421464572757     -0.05431262179550
  C   -0.80766081770264     -0.09659808688895      0.53991344651190
  F   1.27932085814087      0.99809944827706      0.59374285274238
  H   -1.30751116452528     -0.96520022858758      0.11128803837311
  N   1.29007717556059     -1.30644478526288      0.26397154198541
  O   0.70143230671616     -2.30042234167608     -0.14989543163533
  O   2.35387442026899     -1.26413017615363      0.86014602487032
  C   0.65891966236784      0.24241256522405     -1.54359155496004
  H   0.27146940100745      1.23288969987356     -1.78272790879807
  H   0.07909782114266     -0.51307456878284     -2.07144227850281
  H   1.70279680204152      0.19274521208310     -1.85903241411485
  N   -1.60106006631348      1.11255441118088      0.09998285813949
  O   -2.24886238206429      0.96337252338107     -0.93165938117417
  O   -1.49240539944625      2.13157896629811      0.76921018393609
  C   -0.76348293841234     -0.17376071296783      1.99296451396176
  N   -0.71823669621281     -0.27923657172562      3.16144213046033
