16
Coordinates from ORCA-job run
  C   0.71877444973097     -0.18461624067362      0.11552550883567
  C   -0.58966956924518      0.06862573182127      0.88664938751242
  F   1.71319736523583     -0.11760612049515      1.04505136570442
  H   -0.66500503453967     -0.68246544964009      1.67641898600246
  N   0.65187149037843     -1.64821396155238     -0.32898226816455
  O   0.75433120781654     -2.47537281791941      0.56745271510280
  O   0.47420376675023     -1.86356642858828     -1.52278329960979
  C   1.00810757359110      0.73531402318271     -1.03157576679695
  H   1.95967750320692      0.44894338631920     -1.48035808674890
  H   1.08412410826774      1.75461629380850     -0.65004419272030
  H   0.23077809340488      0.68904244107486     -1.79018961281128
  N   -1.76596228392048     -0.15216157946893     -0.03797468184951
  O   -2.12978550390621      0.79887624146006     -0.71918973924575
  O   -2.22241538358603     -1.29025320881977     -0.04206357612058
  C   -0.61451654032772      1.41669221268523      1.42978867173557
  N   -0.60971124285736      2.50114547680580      1.88027458917428
