16
Coordinates from ORCA-job run
  C   0.60840432168962     -0.29450093114948     -0.00871339205695
  C   -0.55724582033828      0.34979416968344      0.75091953818260
  F   1.15980814884590     -1.20230778274339      0.83855019060909
  H   -0.13983341391832      0.80144534252677      1.65433848251010
  N   0.09002580460380     -1.06118736861373     -1.22312645047931
  O   -0.39730838228339     -0.35700164063732     -2.09861790806527
  O   0.22932252389050     -2.27349899491348     -1.22752054746348
  C   1.64098295875331      0.69989726485461     -0.46896858853554
  H   2.04736242492267      1.22571012938414      0.39691940628516
  H   1.20840191339887      1.41348715947361     -1.16837448529724
  H   2.45148547504812      0.15875246148900     -0.96083706748844
  N   -1.49394478423334     -0.73506061773117      1.24582395317822
  O   -1.51996914809136     -0.91512737540716      2.45624965071823
  O   -2.12344135765425     -1.33564752575006      0.38419150879956
  C   -1.30383247469765      1.33855493495686     -0.01056998002256
  N   -1.90021818993620      2.18669077457735     -0.56226431087417
