16
Coordinates from ORCA-job run
  C   0.60233958268248     -0.04819157819814      0.00602633761804
  C   -0.87718759429958     -0.12512861350573      0.40893122651551
  F   1.29593664021511      0.58575705358756      0.97662425668059
  H   -1.41893749609861     -0.73851421436556     -0.31095922668181
  N   1.08646860826735     -1.50077057777137     -0.03424640054942
  O   2.07345704656211     -1.78476305990534      0.62441140499921
  O   0.43697693320495     -2.23902665975435     -0.76824110930097
  C   0.87519355019610      0.57736991610444     -1.33638568670538
  H   1.93922698306371      0.46934510427869     -1.55519040485750
  H   0.28986554382594      0.09426308205944     -2.11751621746114
  H   0.63279705619647      1.63967189683199     -1.30290601337029
  N   -1.45964784595374      1.26614154636003      0.30755634477496
  O   -1.97420630046632      1.53778589264539     -0.77319192356658
  O   -1.33157206856567      2.00338170087278      1.27615829679625
  C   -1.02863494738656     -0.64026132430872      1.76224197270491
  N   -1.14407569144373     -1.09706016493109      2.83768714240361
