16
Coordinates from ORCA-job run
  C   0.70074578260751     -0.18772028931365      0.11215770664348
  C   -0.60330881403044      0.08233876286874      0.88273982659106
  F   1.71671489145126     -0.00778389134713      1.00698755781465
  H   -0.73765975145909     -0.71097065241152      1.62226473592800
  N   0.73015738766769     -1.68423240010325     -0.21665590009469
  O   0.63308587001302     -2.42949684318208      0.75022709476394
  O   0.88038901226825     -2.00855694891170     -1.38792131587806
  C   0.90850459244440      0.66106205165396     -1.10468484448217
  H   1.88835324910989      0.44231295353667     -1.52768892098082
  H   0.86835947866163      1.71167314496096     -0.81192387063568
  H   0.15356484210435      0.46262395652266     -1.86373727866668
  N   -1.75648110933768     -0.02034656408758     -0.08941998684412
  O   -1.99402293411286     -1.15966421468539     -0.47652719433681
  O   -2.31400744121961      1.01226117819623     -0.43703776099789
  C   -0.56667343956943      1.39262360408825      1.51063133391590
  N   -0.50872161659890      2.44387615221482      2.03058881725987
