16
Coordinates from ORCA-job run
  C   0.60194930093950     -0.02603136778688     -0.06373128947192
  C   -0.80393734713772     -0.00991618116427      0.55390147073260
  F   1.36338378195967      0.91673416475275      0.53394674336569
  H   -1.37846377608917     -0.85172798775617      0.16745959604452
  N   1.18711020314771     -1.39293075203518      0.30070730572212
  O   2.26126844136103     -1.41126904340260      0.87928566684515
  O   0.51451861821865     -2.35289123754875     -0.06270962504720
  C   0.64997233949585      0.12637525742075     -1.56148195404461
  H   0.00267466072663     -0.60042661448793     -2.04970272487175
  H   1.68106215629890     -0.02007102763535     -1.88868631709819
  H   0.33913354820574      1.13449465901468     -1.83616542995435
  N   -1.50520102829547      1.24123019575829      0.07647449038646
  O   -1.30496302055847      2.27321698848824      0.70340316250640
  O   -2.17900695048669      1.10505050403415     -0.94025164840313
  C   -0.74186911164796     -0.03363094868312      2.00819528014998
  N   -0.68663181613821     -0.09620660896861      3.17935527313823
