16
Coordinates from ORCA-job run
  C   0.65359853863341     -0.26548655776606      0.11829528630279
  C   -0.61569577560714      0.36488669915942      0.69833549344942
  F   1.30678097526150     -0.90576707486674      1.12152271933502
  H   -0.33131749889807      0.80339123380094      1.66177562104913
  N   0.27571972897307     -1.29963338810061     -0.93073703096304
  O   0.98214634090595     -2.28974665844892     -1.01349641357114
  O   -0.67410466814634     -0.99109929096278     -1.64259833053235
  C   1.57789268558693      0.73157383649352     -0.53622741382161
  H   1.10813190213968      1.19103596706942     -1.40543262591428
  H   1.85165425334388      1.50642644957124      0.18234095501259
  H   2.48106988521543      0.20031192428030     -0.84161382042752
  N   -1.67749703781023     -0.66837255405389      1.06328189945643
  O   -2.78469892949189     -0.21657310758517      1.31386956938053
  O   -1.31268813618129     -1.83256268552028      1.13804379849592
  C   -1.20646801684532      1.39648852950817     -0.14043616119889
  N   -1.63552424707957      2.27712667742142     -0.78792354605301
