16
Coordinates from ORCA-job run
  C   0.63082153579525     -0.22884710709626      0.08173950636092
  C   -0.62630788768762      0.45774436437132      0.62852580374710
  F   1.20907754447759     -0.86068614141075      1.13639092289710
  H   -0.30058930047507      1.14224486459260      1.41574734855379
  N   0.24867483101936     -1.29993058560808     -0.93701325978788
  O   0.49074083338783     -2.46177856373907     -0.65271346110348
  O   -0.24657571269593     -0.86588900810167     -1.96962751804228
  C   1.59914161464912      0.72795152922854     -0.56165502878129
  H   2.47954451498686      0.16886318241853     -0.88418886008625
  H   1.90915569671828      1.47503080253730      0.17124172174326
  H   1.14789914292706      1.21703412257572     -1.42342816345615
  N   -1.49392719206635     -0.56964630572538      1.32929671841128
  O   -2.02236767874310     -1.40746508437952      0.60946914155502
  O   -1.57023961987425     -0.47139852805040      2.54700287671708
  C   -1.40992729193229      1.16962970803156     -0.36858489378578
  N   -2.04412103048673      1.80814275035556     -1.12320285494243
