16
Coordinates from ORCA-job run
  C   0.70717099612325     -0.18424609270329      0.08245251201980
  C   -0.56308758056926      0.07867386581137      0.90986569528470
  F   1.75983589072300     -0.00527548219579      0.93374515165887
  H   -0.65652068053607     -0.71127462682770      1.65917565495548
  N   0.72331104696139     -1.67919101966230     -0.25373965827471
  O   0.80480929709790     -1.99836395270736     -1.43327613879152
  O   0.68386621635385     -2.42851682882672      0.71385901440252
  C   0.86133002981455      0.66987127365434     -1.13870002100910
  H   1.82168776702237      0.45200143146368     -1.60498067303221
  H   0.07351161811135      0.47632454713502     -1.86482936032619
  H   0.83550189367407      1.71917134872767     -0.83955238741792
  N   -1.75795112166813     -0.03870380611068     -0.00884983854552
  O   -2.02199049388344     -1.18511016062155     -0.35607386234612
  O   -2.31873616707132      0.99061573760772     -0.36158012288085
  C   -0.51057333496558      1.39344758895932      1.52744839395814
  N   -0.44316537718792      2.45057617629627      2.03403564034463
