16
Coordinates from ORCA-job run
  C   0.59225715580023     -0.07679378250955     -0.10108608673252
  C   -0.76395543103588      0.06727509394774      0.60459265314951
  F   1.46502500369122      0.81207033737108      0.42237330416495
  H   -1.42854823910515     -0.73257991871697      0.27809420072870
  N   1.08785194053329     -1.47962768700034      0.26011983581049
  O   0.31796127067798     -2.38829464048430     -0.03552381159226
  O   2.19246471147496     -1.57428698911487      0.76971044418089
  C   0.55437488130527      0.04060535016229     -1.60220743136178
  H   -0.17850325974910     -0.64163104701674     -2.02993304667411
  H   1.54734820797387     -0.19485083281354     -1.98969985462309
  H   0.30688895684594      1.06455633017081     -1.88263740277741
  N   -1.39285540219602      1.36108300474335      0.13979559579380
  O   -2.14083636890983      1.25855562994274     -0.82778054841648
  O   -1.07000121158360      2.38648302092468      0.72488070209299
  C   -0.60815684004814      0.06988954343237      2.05196507450279
  N   -0.48031537567503      0.02754658696125      3.21833637175352
