16
Coordinates from ORCA-job run
  C   0.72240136877387     -0.15935289202772      0.05850238806454
  C   -0.52422903158053      0.07364085974298      0.93016585982096
  F   1.79476651265410      0.02128220471564      0.88251961419512
  H   -0.53856916088002     -0.68674708248626      1.71453836963084
  N   0.72690995463491     -1.65017060371724     -0.29428652183691
  O   0.82595743210102     -2.40970344018947      0.66078980723654
  O   0.63597141304079     -1.95467346650716     -1.47765316468397
  C   0.83886136942815      0.70723433550436     -1.15814737157952
  H   0.01789451144794      0.54008158104752     -1.85221067768576
  H   0.84409514481568      1.75224050476588     -0.84431777167297
  H   1.77661650432267      0.47950660153510     -1.66476415858094
  N   -1.75641857552814     -0.14505486393166      0.08146186906377
  O   -2.08855240993176     -1.31767569616522     -0.05486738810696
  O   -2.28009026898093      0.83962065506408     -0.42486858882475
  C   -0.51530334130325      1.41507114728105      1.48971548016997
  N   -0.48031142301449      2.49370015536813      1.95242225479005
