16
Coordinates from ORCA-job run
  C   0.60545456963065      0.01065037987649     -0.03477877557597
  C   -0.82472580437968     -0.05727411496121      0.52036115529350
  F   1.28080811884149      1.00160232633269      0.58748300353629
  H   -1.32631711208574     -0.93900719859775      0.12172658424038
  N   1.25800607156167     -1.31553021433992      0.36491884874835
  O   2.30774610433633     -1.26345898844785      0.98468859551457
  O   0.66077650394560     -2.31773597938779     -0.01557851695364
  C   0.70865180638790      0.15798086360146     -1.53025980309295
  H   0.12903023011295     -0.60998215343169     -2.04009190758964
  H   1.75986002232754      0.07400514148829     -1.81215280594660
  H   0.34838038097790      1.14356458083264     -1.82577536049426
  N   -1.58272861001325      1.13962753551023     -0.00673319161856
  O   -1.46345428706247      2.19419572829263      0.60317540035720
  O   -2.21304104269338      0.94386425945167     -1.04130754413551
  C   -0.82691845565301     -0.05873960028717      1.97603156085956
  N   -0.82052849623450     -0.10376256593270      3.14929275685729
