16
Coordinates from ORCA-job run
  C   0.63461796331531     -0.23877911988007      0.09259239140551
  C   -0.62333601339718      0.46421999901905      0.60303673465638
  F   1.23530383387782     -0.78618775708997      1.18235887589708
  H   -0.29461640871610      1.18732041618312      1.35475298563444
  N   0.29672141965447     -1.37290201303245     -0.86655619038506
  O   -0.40360997331330     -1.04366586853773     -1.81577399868918
  O   0.79863075498698     -2.46183457652366     -0.64838708609121
  C   1.57994852471009      0.69626100114393     -0.61819134926978
  H   1.87425319855453      1.50194561380666      0.05684227649754
  H   1.11447574334787      1.11283435584964     -1.51106022988583
  H   2.47217766066009      0.13475536205423     -0.90197940484793
  N   -1.52382481729425     -0.49020304582798      1.37039945065332
  O   -1.62887550553258     -1.62809122351351      0.93477937272413
  O   -2.07924966195193     -0.01054558333198      2.34965612283268
  C   -1.40993188366047      1.15396617916103     -0.40890288382592
  N   -2.04468483524134      1.78090626051968     -1.17256706730616
