16
Coordinates from ORCA-job run
  C   0.62613370363254     -0.25294396315107      0.03776402641898
  C   -0.61780841304071      0.34803297433560      0.70262269559374
  F   1.18889789388035     -1.07892135420159      0.95802462446624
  H   -0.28033322621280      0.87020737317169      1.60138994626874
  N   0.22425358831788     -1.11161891484576     -1.15927623508445
  O   -0.25807520013717     -0.48564143433896     -2.09490834633487
  O   0.43959636476430     -2.31090405079432     -1.09186533429533
  C   1.61542929787119      0.78504070650497     -0.42140542513802
  H   1.94061587256162      1.37730298773176      0.43586272091530
  H   2.48403892520897      0.27669266769388     -0.84422535710261
  H   1.17571255070669      1.43406957952446     -1.17697683748142
  N   -1.50837629641651     -0.77179487526750      1.20549146596105
  O   -2.05172050679055     -1.45367630597762      0.34574088082595
  O   -1.58728940070465     -0.89431855785947      2.42083417581965
  C   -1.38452289144679      1.24552572430140     -0.14694491467816
  N   -2.00455226219435      2.02194744317253     -0.77312808615478
