16
Coordinates from ORCA-job run
  C   0.59719789522209     -0.31471460005132     -0.03309422099037
  C   -0.51326662951128      0.36961078308705      0.77245263427469
  F   1.15197186259991     -1.24024549831365      0.79243271869902
  H   -0.04470233454062      0.80764300981296      1.65725309580779
  N   0.00306892808663     -1.06406359321062     -1.22352349348164
  O   -0.49519124532442     -0.34406149896490     -2.07981552254175
  O   0.09958999727746     -2.28047094675849     -1.23061131801642
  C   1.64317978730522      0.64356444546201     -0.53782924149461
  H   2.10403194644096      1.15404999130570      0.30973763919583
  H   1.20655187972424      1.37222336522574     -1.21884408445676
  H   2.41295494162519      0.07521702618350     -1.06320777227271
  N   -1.46472730538717     -0.68338286777130      1.30816263915260
  O   -1.44417074594791     -0.86375176087442      2.51864987420034
  O   -2.15080622772501     -1.26162833490408      0.47493857180280
  C   -1.25778233464857      1.38174865119650      0.04029813468055
  N   -1.84890041519674      2.24826182857532     -0.48799965455938
