16
Coordinates from ORCA-job run
  C   0.72604201755775     -0.16390393471496      0.09752634869750
  C   -0.56202778581236      0.08493777292894      0.90325886282097
  F   1.74875300909431     -0.04052999970390      0.99007097818576
  H   -0.59357394727644     -0.64078921404272      1.71928737170908
  N   0.68221242383806     -1.64322842832707     -0.29426006979510
  O   0.47583902685271     -1.90460285414666     -1.47410513812422
  O   0.83181709884254     -2.43566760151526      0.62653710154816
  C   0.95452927037056      0.72218476055825     -1.08924014963439
  H   0.15452321146214      0.63147016571536     -1.81969469851347
  H   1.01759991234673      1.75555990228550     -0.74516336506890
  H   1.89795474291764      0.44333974018868     -1.55933179611781
  N   -1.76224807543601     -0.19272434038093      0.02574216481948
  O   -2.18956097292102     -1.34122008119908      0.07101625210957
  O   -2.17281792732258      0.72802854729378     -0.67043703680093
  C   -0.60126633320299      1.44952124287855      1.40266555384492
  N   -0.60777567131106      2.54862432218153      1.81612762031941
