16
Coordinates from ORCA-job run
  C   0.61397019145453     -0.28272112306406     -0.02502611414671
  C   -0.55503705347418      0.31271254200605      0.76836159553037
  F   1.19115564575481     -1.20889886970804      0.78428701598839
  H   -0.13666617488046      0.74034134095662      1.68294989251120
  N   0.09663120932561     -1.01632121840971     -1.26018569428666
  O   -0.41265188822881     -0.29144860512307     -2.10580521337836
  O   0.25742210817817     -2.22506336782158     -1.30792637116127
  C   1.62293468880215      0.74648244850427     -0.46047082825077
  H   2.43928009104522      0.23803894284629     -0.97694766694119
  H   2.02683943429224      1.25090932317266      0.41920204541359
  H   1.17046323423812      1.47447136115768     -1.13187256265814
  N   -1.46692376991229     -0.80574593360910      1.23402702271972
  O   -1.47809017156073     -1.02769003139222      2.43773612728379
  O   -2.09424555951654     -1.38760595038194      0.35805654488776
  C   -1.32757487632284      1.31360530563066      0.04964716698046
  N   -1.94550710919501      2.16893383523548     -0.46603296049217
