16

C	0.0	0.0	0.0
C	-0.44593	0.281668	-1.454211
F	1.382546	0.0	0.0
H	-0.371504	-0.643924	-2.030307
C	-0.371629	1.078088	1.009126
H	-1.452994	1.126676	1.073321
H	0.064491	2.019494	0.673017
H	0.079269	0.803938	1.96708
C	-0.44185	-1.341325	0.403705
N	-0.59052	-2.466307	0.71012
N	0.611745	1.178998	-2.072732
O	0.648616	2.349062	-1.704173
O	1.371126	0.665858	-2.891757
C	-1.755571	0.911938	-1.670979
N	-2.468462	1.574689	-2.343957
F	-2.506147	0.0	0.0
