16

C	0.0	0.0	0.0
C	-0.402733	0.35445	-1.462905
F	1.389026	0.0	0.0
H	-0.59295	1.426435	-1.51262
C	-0.383405	1.093147	0.983504
H	-0.071006	0.786247	1.983964
H	0.168345	1.998206	0.708366
H	-1.464452	1.204416	0.923451
C	-0.446403	-1.336599	0.408877
N	-0.545472	-2.43204	0.823333
N	-1.635336	-0.280441	-2.075589
O	-1.664861	-1.50012	-2.111485
O	-2.373305	0.489579	-2.676334
C	0.682017	0.001753	-2.393166
N	1.51729	-0.283901	-3.16749
F	-2.470224	0.0	0.0
