16

C	0.0	0.0	0.0
C	-0.500696	-0.103032	-1.466901
F	1.382375	0.0	0.0
H	-0.711859	-1.142713	-1.715994
C	-0.342941	1.324095	0.677452
H	-1.420292	1.398257	0.77071
H	0.072408	2.126878	0.063628
H	0.154637	1.334586	1.650742
C	-0.433071	-1.162463	0.784519
N	-0.5325	-2.113889	1.466684
N	0.67149	0.287694	-2.355436
O	0.971469	1.475883	-2.39902
O	1.251195	-0.619455	-2.948315
C	-1.636338	0.734218	-1.857421
N	-2.316679	1.411363	-2.542358
F	-2.450904	0.0	0.0
