14

C	0.0	0.0	0.0
C	-0.520993	-0.011463	-1.432279
Cl	1.848494	0.0	0.0
H	-1.620646	0.084654	-1.354633
H	-0.225959	-0.920471	-1.949665
N	-0.532935	1.031426	0.758039
H	-0.318197	1.021787	1.740124
H	-0.526397	1.935308	0.315779
C	-0.327784	-1.303048	0.603501
N	-0.505229	-2.355494	1.092908
N	0.012237	1.114952	-2.238995
O	0.432203	0.852379	-3.364198
O	-0.02741	2.245771	-1.753011
Br	-3.795079	0.0	0.0
