14

C	0.0	0.0	0.0
C	-0.47681	0.344704	-1.424048
Cl	1.787652	0.0	0.0
H	-0.179946	-0.417555	-2.141888
H	-1.57063	0.446545	-1.372651
N	-0.488757	0.802275	1.079123
H	-1.503698	0.650484	1.107771
H	-0.330864	1.774685	0.838487
C	-0.379818	-1.407475	0.223653
N	-0.592802	-2.552866	0.367763
N	0.09672	1.618903	-1.921986
O	0.554685	1.621988	-3.063722
O	0.066609	2.600155	-1.1785
Br	-3.635004	0.0	0.0
