12

C	-0.539034	-0.039772	-1.393946
C	0.0	0.0	0.0
F	-1.915109	-0.147641	-1.391075
H	1.090544	0.0	0.0
H	-0.364264	0.906251	0.487297
H	-0.371093	-0.879839	0.526969
C	-0.192541	1.125318	-2.218148
N	-0.030498	2.112213	-2.832801
N	-0.058391	-1.307613	-2.108191
O	0.60586	-1.179979	-3.129005
O	-0.415306	-2.355403	-1.586157
Br	3.55328	0.0	0.0
