12

C	-0.586439	0.046614	-1.375955
C	0.0	0.0	0.0
F	-1.960059	0.035686	-1.322818
H	1.089041	0.0	0.0
H	-0.373861	-0.900529	0.490917
H	-0.354377	0.878068	0.544583
C	-0.179378	1.200666	-2.18858
N	0.084867	2.18217	-2.775955
N	-0.181043	-1.224149	-2.128809
O	0.844165	-1.164237	-2.793621
O	-0.899807	-2.199258	-1.952908
Br	3.554911	0.0	0.0
