16

C	0.0	0.0	0.0
C	-0.446324	-0.100983	-1.469885
Br	1.937852	0.0	0.0
H	0.060032	-1.006035	-1.831939
N	-0.454855	1.281625	0.663802
O	-0.700049	2.234697	-0.061201
O	-0.472537	1.285334	1.888303
C	-0.399085	-1.213942	0.826251
H	0.064175	-1.156507	1.809376
H	-0.037905	-2.110858	0.315941
H	-1.485144	-1.203036	0.889288
C	0.064719	0.980739	-2.323382
N	0.461595	1.773394	-3.093958
C	-1.897096	-0.323997	-1.763275
N	-2.618357	-0.659708	-2.643423
F	-2.56308	0.0	0.0
