16

C	0.0	0.0	0.0
C	-0.45634	0.030646	-1.472704
Br	1.939786	0.0	0.0
H	0.111433	0.826081	-1.965209
N	-0.418915	1.303268	0.653089
O	-0.559843	1.303132	1.867508
O	-0.498081	2.282602	-0.079806
C	-0.412286	-1.203638	0.822877
H	-1.499798	-1.190804	0.853297
H	0.019444	-1.128679	1.819758
H	-0.031611	-2.10475	0.337771
C	-1.892098	0.313658	-1.772747
N	-2.620381	0.64143	-2.649604
C	-0.076911	-1.231968	-2.11594
N	0.234733	-2.234437	-2.64308
F	-2.577085	0.0	0.0
