16

C	0.0	0.0	0.0
C	-0.439579	-0.037924	-1.479426
Br	1.939786	0.0	0.0
H	0.135594	0.735041	-1.998286
N	-0.426076	1.327346	0.59322
O	-0.513137	2.271301	-0.18361
O	-0.562824	1.380187	1.806793
C	-0.400767	-1.174092	0.874419
H	-0.018565	-2.089802	0.419518
H	0.043478	-1.05753	1.862448
H	-1.487839	-1.169558	0.91886
C	-1.869722	0.222347	-1.816353
N	-2.597815	0.463133	-2.719849
C	-0.043604	-1.32491	-2.062148
N	0.276322	-2.348721	-2.541092
F	-2.550955	0.0	0.0
