15
Coordinates from ORCA-job run
  C   0.71076464825217     -0.11638805810263     -0.54632226322456
  C   -0.46545317204193      0.30657406416189      0.38813918181898
  Cl  0.15635966202751     -0.25918718347059     -2.24473499378463
  H   -0.01703009162404      0.59491624292428      1.34151701200767
  C   1.65709445816259      1.00752609191686     -0.48811510579492
  N   2.38681831710772      1.92063402123170     -0.37037036143110
  N   1.39904520047609     -1.32703793598723     -0.19442727590407
  H   0.77013607698269     -2.11910180183349     -0.24668729436897
  H   1.81622337968875     -1.26058477613507      0.72683048054303
  N   -1.28901252044115     -0.91446117939885      0.74771004392098
  O   -1.62889631255343     -1.00961872794043      1.92182065587551
  O   -1.59267487721546     -1.68504136899185     -0.15974645989913
  N   -1.34797816839122      1.32576351230217     -0.05402416864470
  H   -1.04445345237794      2.24519358634186      0.22892845220065
  H   -1.51194314805236      1.29081351298138     -1.05051790331472
