15
Coordinates from ORCA-job run
  C   0.70790562625114      0.01262848568714     -0.50771709422566
  C   -0.41774640395367      0.18054058754335      0.53456026337418
  Cl  0.28286190151777      0.84946601326224     -2.03586706737857
  H   -0.06075245901654     -0.23872722713536      1.47857030174286
  C   1.89525477744638      0.69709629491797      0.03710873296272
  N   2.88598294765666      1.14307574564898      0.48625564162625
  N   0.90204598558785     -1.37417020499430     -0.81296646423115
  H   1.02955886559012     -1.92395260835678      0.02930977557993
  H   1.69528201066946     -1.49881505064607     -1.42972851563008
  N   -1.56259416631131     -0.75295353888058      0.13777197493382
  O   -1.53789009018716     -1.88202832868910      0.61927206216814
  O   -2.41500475904605     -0.29607298661518     -0.61588652623724
  N   -0.78331609849517      1.53184440885493      0.69409690105345
  H   -1.36069801805617      1.67013793191977      1.51189684233708
  H   -1.25989011965330      1.88293047748298     -0.12667682807573
