15
Coordinates from ORCA-job run
  C   0.75944023002153     -0.45756590825109     -0.29419773618840
  C   -0.68809045396599     -0.35465827210700      0.24528682556667
  Cl  1.34217611113075     -2.12604281461120      0.23347858373055
  H   -1.21996175672654     -1.27801241757602      0.02418391257672
  C   0.83303960288363     -0.46222043659843     -1.75578228845561
  N   0.95049386817694     -0.47429058662508     -2.92467824926658
  N   1.52961956546501      0.60505637945406      0.22776743904339
  H   1.58205633344316      0.52250351872614      1.23679517050776
  H   2.46097574010254      0.63042270557240     -0.16717826566823
  N   -1.41478428452317      0.71837688294437     -0.57178979659471
  O   -1.46129367966037      1.85085192667408     -0.10257138634218
  O   -1.89258911881531      0.34815087802319     -1.64005767483409
  N   -0.66468659818230     -0.05374196783150      1.63161461789464
  H   -0.63708434647534      0.95264579920041      1.75492392323951
  H   -1.47831121287454     -0.42247568699433      2.10320492479055
