15
Coordinates from ORCA-job run
  C   0.68719564739687     -0.50422678079626     -0.39212563333190
  C   -0.61741934517971     -0.24561389955107      0.38376695578986
  Cl  0.45993696252416     -1.85096457724928     -1.54006036685723
  H   -0.84579400407282     -1.15190774677086      0.94376800419320
  C   1.07431837806101      0.68768006331672     -1.16973320385982
  N   1.46513353323618      1.65529648254492     -1.71170163081241
  N   1.66366594406524     -0.89334885896933      0.59023637458093
  H   2.56880638739375     -1.02997915530989      0.15544885743377
  H   1.72199512973177     -0.15916397567531      1.28858552899388
  N   -1.77258960595649     -0.06379228190242     -0.58675107831447
  O   -1.82724510582622      1.02066113544269     -1.16385520843064
  O   -2.56336828607471     -0.99445273969593     -0.70255110794016
  N   -0.42886804612079      0.87673012630358      1.23879724126514
  H   -1.13493192091788      0.91330210477149      1.96234332065936
  H   -0.45083566826036      1.73878010354095      0.70383194663048
