15
Coordinates from ORCA-job run
  C   0.79184102150445     -0.12682529423866     -0.22071204436573
  C   -0.60711077011432      0.37746793394201      0.23966157224644
  Cl  0.76067027430984     -0.60816991584083     -1.99125601668286
  H   -0.44571434610688      0.90217188198109      1.18190257860856
  C   1.68023090741297      1.03774905830092     -0.15448951298786
  N   2.35780026356334      1.99458265812439     -0.07755468307688
  N   1.25900267968394     -1.14347860056533      0.64803949218162
  H   2.24256139905600     -1.33675824289633      0.50932789690015
  H   0.72795455374921     -1.99717231678594      0.52060908678535
  N   -1.44499495979965     -0.81878823182936      0.63205042870185
  O   -1.54969722386669     -1.71770828649343     -0.20080522230626
  O   -1.98150258269027     -0.78231280666965      1.73222817587665
  N   -1.36030982892043      1.17874262149774     -0.65199890129490
  H   -1.15585139404815      2.16128245400842     -0.55342832438105
  H   -1.27487999373339      0.88121708746498     -1.61357452620507
