15
Coordinates from ORCA-job run
  C   0.72908329033068     -0.55188369635395     -0.24716085657532
  C   -0.76810971213891     -0.37043492493653      0.07728591433279
  Cl  1.10953075383327     -2.28375940495194     -0.02932651850021
  H   -1.36302988027735     -1.07202443561102     -0.50845083093521
  C   0.96330730165350     -0.23816742442236     -1.66898486277475
  N   1.17113465452099      0.05949327937269     -2.78726687897909
  N   1.54470408397501      0.20596569609739      0.66989109006617
  H   1.44508543195304      1.19433436475225      0.46412322621279
  H   2.51579212686924     -0.06671655738008      0.57632300265582
  N   -1.20792538403892      1.00146737427414     -0.46557673342189
  O   -0.51817090603511      1.97792520809966     -0.16997594175721
  O   -2.26436506042017      1.03142606791859     -1.08980564013140
  N   -0.99629083899305     -0.52036396644000      1.45642151746484
  H   -1.96911604838261     -0.43426967282587      1.71212797745782
  H   -0.38962981284961      0.06800809240705      2.01037553488484
