15
Coordinates from ORCA-job run
  C   0.71611355348008     -0.17485807568543     -0.46593123490946
  C   -0.44913119537081      0.38476507407487      0.37733251832252
  Cl  0.24044344259228     -0.30795701447520     -2.19007789987751
  H   -0.07235042366224      0.56090606337688      1.38799032144870
  C   1.80254501167650      0.82044175907567     -0.39881402506430
  N   2.72133233954016      1.54441900297552     -0.28113210526115
  N   1.07357921230387     -1.48639819565252     -0.01316857605182
  H   1.23762545411677     -1.50134817017316      0.98708247639965
  H   1.89184207896553     -1.82625115728784     -0.50335482593440
  N   -1.46921565243038     -0.73985577103033      0.56591015128978
  O   -2.34821050018516     -0.83975287824905     -0.28302559725017
  O   -1.32970843989127     -1.44081500287538      1.56412437579618
  N   -0.97052256102571      1.57136549549394     -0.17485514311034
  H   -1.58579802421905      2.04640024712116      0.47105158207219
  H   -1.45754429589056      1.38993862331088     -1.04313201786984
