15
Coordinates from ORCA-job run
  C   0.73758627813154     -0.32526387417630     -0.32517010677239
  C   -0.74423596049327     -0.41820507616623      0.14701286499265
  Cl  1.49112060202402     -1.91978386265692      0.26325391817697
  H   -1.18563340138319     -1.30154643739689     -0.31416829436047
  C   0.86041021948812     -0.35950831410067     -1.78176534124664
  N   0.99849805665098     -0.38494546840805     -2.94841099824254
  N   1.35965070324270      0.82625185498908      0.18553929309479
  H   1.33829656908542      0.85333661546547      1.19623381208776
  H   2.30658079228960      0.94552129910388     -0.14914233553810
  N   -1.46399955968622      0.76684808478152     -0.45147371562581
  O   -1.56823343519693      1.77041895161678      0.24424791107270
  O   -1.86177212704544      0.62988656471589     -1.60442064574369
  N   -0.97940193846768     -0.40571302603684      1.54990764364670
  H   -0.51438827534241     -1.16736346444668      2.02179300529468
  H   -0.77447852329722      0.49106615271595      1.96756298916338
