15
Coordinates from ORCA-job run
  C   0.77518270335252     -0.09417523567951     -0.37285339720883
  C   -0.42596498833695      0.18077128148471      0.55616967913318
  Cl  0.18195409013168      0.26862902640715     -2.09749261962019
  H   -0.16095513832996     -0.19600462639807      1.54716666094972
  C   1.81815832800021      0.90033367962206     -0.10425673488835
  N   2.70687446161653      1.64028732043268      0.10066713803776
  N   1.31355752064045     -1.38257718247728     -0.20185000503356
  H   0.61778699449931     -2.10821988230869     -0.31383693128611
  H   2.11768395262829     -1.54091318392311     -0.79449254183598
  N   -1.60180985862131     -0.72597157859550      0.11286223454423
  O   -1.41091101928358     -1.94004537668317      0.14356718109603
  O   -2.64401745376653     -0.17289541036058     -0.20915160008677
  N   -0.75347716237226      1.54602915114438      0.59507721920186
  H   -1.41571376399784      1.75401452103513      1.32867059940329
  H   -1.12034866616055      1.87073749629981     -0.29024688240626
