15
Coordinates from ORCA-job run
  C   0.69730378386782     -0.13423115761105     -0.50816311419966
  C   -0.47355105701599      0.17996346647503      0.49541007148243
  Cl  0.11232393692188      0.27718218247538     -2.16148139501035
  H   -0.14218731553166     -0.18171735954479      1.47215875324993
  C   1.76828984164274      0.80529823858341     -0.15662472494073
  N   2.59229781906325      1.56417670310571      0.19758964372018
  N   1.22795397000103     -1.46220499499051     -0.51802988106927
  H   0.48145123474582     -2.14732393191428     -0.52953886171931
  H   1.82031714627388     -1.62099923845004      0.28818391402481
  N   -1.63551902197902     -0.70925378933246      0.11774463222080
  O   -1.50400477520468     -1.90648766588631      0.37850449852315
  O   -2.59018130197025     -0.19467360110949     -0.44653178888915
  N   -0.92771075173781      1.51745383206916      0.59557259152624
  H   -1.16519029909556      1.91265578560501     -0.30416185192061
  H   -0.26059320998145      2.10116153052525      1.08036751300153
