15
Coordinates from ORCA-job run
  C   0.71323267912190     -0.31213736266389     -0.30910980558571
  C   -0.70178469555407     -0.24868352731155      0.32611661197190
  Cl  0.73437494103371     -1.62421156200070     -1.57449375495614
  H   -0.86432152334978     -1.18848888510609      0.85789820771894
  C   1.06132472273556      0.94703900005547     -0.96890027282630
  N   1.35925691755598      1.97821038453242     -1.44624479029485
  N   1.62899404994896     -0.54327849627779      0.76133482210493
  H   1.50668179510496     -1.47908311939579      1.13295083287100
  H   2.58952272324183     -0.43425026907851      0.45878548368369
  N   -1.74757556200339     -0.20671884030761     -0.74631450931646
  O   -2.46315229193793     -1.19217348541607     -0.88179976961910
  O   -1.80098938899394      0.83521085853767     -1.39491115158314
  N   -0.92635742515200      0.87106717921500      1.18237015101996
  H   -0.83363944156935      1.73691110634111      0.66245849266495
  H   -0.25556750018243      0.86058701887633      1.93985945214633
