15
Coordinates from ORCA-job run
  C   0.71864734949969     -0.41879613920206     -0.25351787388084
  C   -0.77223995463862     -0.34096778320232      0.19207470876728
  Cl  1.35582428079109     -1.94643717913957      0.59252122904209
  H   -1.26633910335804     -1.25525429549354     -0.13623865847338
  C   0.85781263916543     -0.68828148318141     -1.68388092355713
  N   1.00566055497235     -0.90847275706026     -2.82860308665213
  N   1.40954381894293      0.75643516339094      0.08708988775237
  H   1.37587009486735      0.94173389822606      1.08072956646090
  H   2.36749119040576      0.75931175213662     -0.23755595791562
  N   -1.40242187466112      0.77966778907068     -0.59965161346197
  O   -1.44907934073408      1.88412821631497     -0.07040004447231
  O   -1.79349031993624      0.48992520321426     -1.72633392691088
  N   -1.02457804837152     -0.09422873807676      1.57031831665545
  H   -0.76692260047692      0.84239180686141      1.84782226682936
  H   -0.61677868646805     -0.80015545385902      2.16562610981682
