15
Coordinates from ORCA-job run
  C   0.74985642860111     -0.53352948210009     -0.22002074793817
  C   -0.73176221307789     -0.42063020915534      0.20010840026556
  Cl  1.31441965329954     -2.17031643423703      0.21990798711848
  H   -1.30666492194549     -1.23294286927043     -0.24565385526770
  C   0.85697735509286     -0.42536002425686     -1.68656076496646
  N   0.93346927410261     -0.28278602146840     -2.85123941034248
  N   1.54379865930000      0.42747416861804      0.50380776857539
  H   2.52905718246717      0.26935579342767      0.32956414623707
  H   1.29277014073812      1.36722207025840      0.21400965383342
  N   -1.28862575857636      0.83574743529409     -0.50349995198016
  O   -2.12063813960133      0.66076911033233     -1.38784165470415
  O   -0.87162799737820      1.92378128919954     -0.10465334236276
  N   -0.84591344659657     -0.39351886020409      1.59785347855898
  H   -1.80116402785561     -0.33386895767695      1.91848298993419
  H   -0.25295218856996      0.30960299123913      2.01573530303877
