15

C	0.0	0.0	0.0
C	-0.495184	-0.191948	-1.433222
F	1.411937	0.0	0.0
H	-1.560096	-0.429273	-1.304491
H	-0.272566	-0.892748	0.572899
N	-0.54365	1.214602	0.498249
H	-1.574429	0.981403	0.408906
H	-0.329693	1.270588	1.487826
N	0.216964	-1.391463	-1.977964
O	1.077191	-1.236025	-2.841677
O	-0.077315	-2.477827	-1.476468
N	-0.308615	0.926785	-2.313279
H	-0.970405	1.624239	-1.993793
H	0.616378	1.310895	-2.149889
F	-2.794257	0.0	0.0
