15

C	0.0	0.0	0.0
C	-0.555905	0.013381	-1.388328
F	1.420262	0.0	0.0
H	-1.707258	-0.0187	-1.074641
H	-0.330729	-0.889053	0.527499
N	-0.397793	1.177701	0.685147
H	0.025399	1.201952	1.601545
H	-0.125202	1.980546	0.13528
N	-0.104567	-1.270413	-2.045354
O	-0.353856	-2.331826	-1.475498
O	0.484077	-1.203409	-3.132122
N	-0.083092	1.164962	-2.094447
H	-0.527505	1.231428	-2.998796
H	0.914537	1.06808	-2.253168
F	-2.761807	0.0	0.0
