15

C	0.0	0.0	0.0
C	-0.385833	-0.256979	-1.451162
F	1.399951	0.0	0.0
H	0.260449	0.388696	-2.051999
H	-0.399146	-0.761633	0.662607
N	-0.356391	1.313019	0.45032
H	0.232413	1.983199	-0.03709
H	-0.206283	1.400212	1.448588
N	-1.779121	0.191278	-1.926729
O	-2.481722	-0.676346	-2.4531
O	-1.901372	1.399802	-2.110727
N	-0.117615	-1.634328	-1.751423
H	-0.182805	-1.763273	-2.755784
H	-0.878588	-2.174608	-1.346346
F	-2.591686	0.0	0.0
