15

C	0.0	0.0	0.0
C	-0.347035	-0.267468	-1.49144
F	1.378006	0.0	0.0
H	0.566053	-0.66635	-1.943219
H	-0.298986	-0.902084	0.550372
N	-0.584618	1.202843	0.480618
H	-0.404886	1.261821	1.478237
H	-1.60493	0.99858	0.364352
N	-0.422815	1.11704	-2.190445
O	-1.516337	1.519025	-2.58049
O	0.642901	1.713513	-2.343574
N	-1.457244	-1.099904	-1.694785
H	-2.251703	-0.732908	-1.101617
H	-1.699952	-1.129533	-2.67615
F	-2.953975	0.0	0.0
