13

C	-0.531108	-0.111839	-1.407066
C	0.0	0.0	0.0
F	-0.354425	1.070183	-2.119001
H	1.089408	0.0	0.0
H	0.032863	-0.900502	-1.910715
H	-1.604961	-0.333556	-1.413948
N	-0.388703	-1.133729	0.803261
H	0.420696	-1.733026	0.893308
H	-1.185151	-1.643528	0.441226
N	-0.629304	1.219888	0.612707
O	-1.865215	1.237686	0.653185
O	0.086195	2.117759	1.044054
F	2.608352	0.0	0.0
