13

C	-0.562128	-0.032297	-1.408919
C	0.0	0.0	0.0
F	-0.235357	-1.239007	-2.007869
H	1.090799	0.0	0.0
H	-1.659072	0.041494	-1.406158
H	-0.132987	0.768989	-2.006516
N	-0.441539	-1.103983	0.802546
H	0.334948	-1.363314	1.39732
H	-1.214735	-0.835291	1.397213
N	-0.393952	1.31802	0.590803
O	-0.32587	2.315002	-0.134069
O	-0.740269	1.365774	1.776534
F	2.561445	0.0	0.0
