14

C	-0.186892	0.244908	-1.502302
C	0.0	0.0	0.0
F	-1.422133	0.895093	-1.756616
H	1.104721	0.0	0.0
H	-0.282247	-0.703113	-2.048155
N	0.885163	1.081752	-1.931381
H	1.732322	0.816342	-1.39968
H	1.052806	0.982367	-2.923487
C	-0.616581	-1.244951	0.430155
N	-1.115544	-2.251545	0.776464
N	-0.41952	1.126513	0.832917
H	0.382708	1.742415	0.892159
H	-1.15383	1.63196	0.348773
F	2.649358	0.0	0.0
