14

C	-0.144861	0.013237	-1.517267
C	0.0	0.0	0.0
F	-1.460566	0.303487	-1.899672
H	1.094541	0.0	0.0
H	0.096566	-0.979032	-1.91093
N	0.745674	0.982884	-2.09962
H	1.657955	0.735627	-1.689754
H	0.503924	1.859897	-1.642108
C	-0.591056	-1.171984	0.631707
N	-1.078794	-2.109685	1.149547
N	-0.437609	1.275461	0.561995
H	-1.421113	1.253653	0.800602
H	0.100481	1.457856	1.39912
F	2.620322	0.0	0.0
