14

C	-0.197798	-0.111591	-1.520699
C	0.0	0.0	0.0
F	-0.013323	1.178169	-2.066225
H	1.096162	0.0	0.0
H	-1.20687	-0.395089	-1.844356
N	0.781114	-1.031037	-1.961874
H	1.674113	-0.784635	-1.507305
H	0.857565	-1.024436	-2.970625
C	-0.479697	-1.213284	0.649977
N	-0.907761	-2.145052	1.226756
N	-0.542726	1.21676	0.599186
H	-1.325029	1.000397	1.198448
H	0.186967	1.62236	1.170292
F	2.646744	0.0	0.0
