14

C	-0.459559	-0.011609	-1.450827
C	0.0	0.0	0.0
F	-0.426583	-1.314795	-1.938913
H	1.098848	0.0	0.0
H	0.290898	0.535571	-2.035951
N	-1.801868	0.488804	-1.589762
H	-1.967061	0.762769	-2.551042
H	-1.840005	1.322079	-1.011964
C	-0.561811	-1.10948	0.751471
N	-1.019272	-1.962719	1.419688
N	-0.340371	1.308408	0.611134
H	0.5279	1.648351	1.010638
H	-1.006666	1.193374	1.364473
F	2.57995	0.0	0.0
