14

C	-0.187122	0.06985	-1.507513
C	0.0	0.0	0.0
F	-1.520827	0.335878	-1.84175
H	1.094536	0.0	0.0
H	0.072223	-0.897205	-1.950504
N	0.654726	1.091752	-2.073047
H	0.392559	1.942603	-1.581204
H	1.583502	0.861353	-1.701486
C	-0.577519	-1.191749	0.60611
N	-1.046544	-2.139593	1.122543
N	-0.420722	1.253345	0.626286
H	0.182688	1.424166	1.420404
H	-1.379426	1.205175	0.94666
F	2.611182	0.0	0.0
