14

C	-0.389087	0.007724	-1.466633
C	0.0	0.0	0.0
F	-0.043968	-1.229309	-2.039519
H	1.093823	0.0	0.0
H	0.217345	0.7606	-1.977535
N	-1.780513	0.281592	-1.670385
H	-1.994293	0.266117	-2.660893
H	-2.321232	-0.448085	-1.217578
C	-0.622913	-1.137606	0.667675
N	-1.159327	-2.052988	1.174939
N	-0.36259	1.255738	0.665673
H	0.475589	1.823847	0.657605
H	-1.099674	1.724605	0.151818
F	2.576267	0.0	0.0
