14

C	-0.199274	0.015313	-1.5314
C	0.0	0.0	0.0
F	-0.22953	1.37119	-1.917437
H	1.10183	0.0	0.0
H	-1.155822	-0.403536	-1.863163
N	0.899145	-0.622979	-2.173859
H	1.73375	-0.528838	-1.570423
H	0.696749	-1.593545	-2.362114
C	-0.47359	-1.289521	0.489458
N	-0.842083	-2.33639	0.877549
N	-0.672493	1.101662	0.704038
H	-0.181109	1.216673	1.585608
H	-0.456707	1.928932	0.159283
F	2.67418	0.0	0.0
