14

C	-0.545414	-0.054781	-1.40892
C	0.0	0.0	0.0
F	-1.973926	-0.243017	-1.350332
H	1.093955	0.0	0.0
H	-0.179687	-0.937848	-1.937529
N	-0.231508	1.131099	-2.104514
H	-0.791002	1.20673	-2.942958
H	-0.411228	1.906516	-1.476124
C	-0.463088	-1.155737	0.761471
N	-0.833707	-2.086854	1.377209
N	-0.369995	1.275538	0.637705
H	0.425488	1.551272	1.201352
H	-1.182608	1.179739	1.233188
F	2.568651	0.0	0.0
