15

C	0.0	0.0	0.0
C	-0.457825	-0.423166	-1.421811
Br	1.958907	0.0	0.0
H	0.306728	-0.049861	-2.116795
C	-0.36322	1.461591	0.297681
H	0.089267	1.763876	1.244051
H	0.037787	2.094928	-0.499032
H	-1.449746	1.496122	0.334375
C	-0.43641	-0.914305	1.04828
N	-0.603813	-1.655457	1.94648
C	-1.741901	0.15893	-1.882303
N	-2.382667	0.62629	-2.758972
C	-0.470768	-1.881168	-1.555677
N	-0.448419	-3.048938	-1.681711
F	-2.50766	0.0	0.0
