15

C	0.0	0.0	0.0
C	-0.432014	0.040097	-1.490365
Br	1.959086	0.0	0.0
H	0.147025	-0.735421	-2.007152
C	-0.394668	1.225051	0.827136
H	-0.018816	1.106769	1.845561
H	0.058731	2.115933	0.38828
H	-1.481998	1.263299	0.80926
C	-0.414478	-1.261582	0.607547
N	-0.594022	-2.315958	1.096231
C	-0.036117	1.322602	-2.087349
N	0.28577	2.343539	-2.570997
C	-1.864779	-0.225224	-1.81881
N	-2.591127	-0.488826	-2.71796
F	-2.553789	0.0	0.0
