15

C	0.0	0.0	0.0
C	-0.465231	-0.081762	-1.47699
Br	1.959087	0.0	0.0
H	0.297024	0.438097	-2.070903
C	-0.363413	1.35233	0.630498
H	0.087873	1.420646	1.622308
H	-1.450167	1.380076	0.679234
H	0.0368	2.157855	0.008607
C	-0.437881	-1.121646	0.822662
N	-0.595318	-2.034504	1.547415
C	-1.7466	0.604142	-1.77523
N	-2.376056	1.28997	-2.504151
C	-0.481257	-1.466775	-1.953927
N	-0.444217	-2.564289	-2.37061
F	-2.513799	0.0	0.0
