15

C	0.0	0.0	0.0
C	-0.485852	-0.348444	-1.428551
Br	1.958263	0.0	0.0
H	0.236963	0.103716	-2.119234
C	-0.367559	1.442639	0.375741
H	0.007072	2.11966	-0.397262
H	-1.452989	1.475	0.44205
H	0.103839	1.702721	1.325297
C	-0.425351	-0.953667	1.019268
N	-0.603899	-1.729621	1.884113
C	-1.814407	0.214983	-1.802644
N	-2.450809	0.706828	-2.672536
C	-0.444591	-1.793321	-1.665943
N	-0.383995	-2.946592	-1.880476
F	-2.539416	0.0	0.0
