16

C	-0.581855	0.015725	-1.393334
C	0.0	0.0	0.0
Br	0.306395	1.491795	-2.431791
H	1.089309	0.0	0.0
H	-0.290903	0.962279	0.441351
N	-0.242718	-1.2293	-2.2101
O	-0.936724	-1.424881	-3.206933
O	0.681469	-1.931235	-1.829333
N	-1.990793	0.110486	-1.404952
H	-2.280238	0.930591	-0.88874
H	-2.34265	0.147591	-2.352959
C	-0.532984	-1.143614	0.861902
H	-1.622934	-1.141347	0.928975
H	-0.114996	-1.041743	1.86589
H	-0.202978	-2.106291	0.471708
Cl	3.532723	0.0	0.0
