16

C	-0.570069	-0.017732	-1.396794
C	0.0	0.0	0.0
Br	0.341367	1.382969	-2.5146
H	1.088927	0.0	0.0
H	-0.330997	-0.930993	0.472443
N	-0.238191	-1.318858	-2.131499
O	-0.865078	-1.527948	-3.16867
O	0.601303	-2.057536	-1.63676
N	-1.979988	0.084333	-1.437577
H	-2.274813	0.957314	-1.021334
H	-2.304059	0.034341	-2.396275
C	-0.488769	1.197099	0.81187
H	-1.560917	1.154022	1.031039
H	0.044927	1.211123	1.764214
H	-0.261315	2.136122	0.301868
Cl	3.529094	0.0	0.0
