16

C	-0.277516	-0.120528	-1.486535
C	0.0	0.0	0.0
Br	-2.187349	-0.481384	-1.879117
H	1.097664	0.0	0.0
H	-0.389966	0.940255	0.38895
N	-0.0114	1.262394	-2.124899
O	0.758686	1.314054	-3.073233
O	-0.590479	2.216625	-1.616208
N	0.501204	-1.077899	-2.198638
H	1.483344	-0.893305	-1.97932
H	0.271879	-2.000098	-1.847715
C	-0.469776	-1.18666	0.827787
H	-0.088594	-2.128937	0.426161
H	-0.067822	-1.089814	1.838666
H	-1.558811	-1.247541	0.887018
Cl	3.406073	0.0	0.0
