16

C	-0.258362	0.014133	-1.492896
C	0.0	0.0	0.0
Br	-0.191636	-1.933552	-2.184931
H	1.094861	0.0	0.0
H	-0.392399	-0.901827	0.463386
N	-1.692193	0.372537	-1.878548
O	-2.58195	0.010172	-1.117708
O	-1.858168	0.980681	-2.931995
N	0.621886	0.86453	-2.134841
H	1.578555	0.723543	-1.804767
H	0.541711	0.87634	-3.140764
C	-0.486336	1.270151	0.693849
H	-1.573872	1.296881	0.789632
H	-0.151603	2.154253	0.147997
H	-0.046499	1.314022	1.692956
Cl	3.430706	0.0	0.0
