15

C	0.0	0.0	0.0
C	-0.428715	0.258197	-1.488069
Br	2.007908	0.0	0.0
H	0.475564	0.478977	-2.059745
C	-0.311055	1.174424	0.839584
N	-0.449388	2.048015	1.614396
N	-0.51973	-1.222543	0.502468
H	-1.555146	-1.031453	0.398815
H	-0.299763	-1.288448	1.491097
N	-1.312862	1.403004	-1.588308
H	-1.541193	1.543997	-2.566429
H	-2.152341	1.097091	-1.059658
C	-0.964249	-0.992111	-2.076642
N	-1.343543	-1.909403	-2.704887
F	-2.730372	0.0	0.0
