15

C	0.0	0.0	0.0
C	-0.435193	0.068668	-1.505385
Br	2.018425	0.0	0.0
H	0.467928	0.196188	-2.106429
C	-0.299322	1.272481	0.686939
N	-0.448898	2.226217	1.358615
N	-0.51301	-1.149732	0.654462
H	-0.282406	-1.095943	1.641855
H	-1.549513	-0.974967	0.534836
N	-1.298475	1.209625	-1.7457
H	-2.139265	0.985549	-1.179522
H	-1.535846	1.22425	-2.731928
C	-1.005665	-1.231316	-1.927495
N	-1.419913	-2.200975	-2.446283
F	-2.718426	0.0	0.0
