15

C	0.0	0.0	0.0
C	-0.524267	0.023717	-1.45281
Br	1.946392	0.0	0.0
H	-1.611233	0.165517	-1.259802
C	-0.346207	1.279809	0.65685
N	-0.559332	2.278586	1.239606
N	-0.572248	-1.146276	0.638225
H	-1.609279	-0.901512	0.543137
H	-0.306073	-1.148452	1.617897
N	-0.200551	-1.24682	-2.116193
H	-0.248457	-1.942767	-1.375192
H	-0.968757	-1.45023	-2.74659
C	0.017309	1.149741	-2.214007
N	0.396759	2.044235	-2.874658
F	-2.786762	0.0	0.0
