15

C	0.0	0.0	0.0
C	-0.264978	-0.054459	-1.589114
Br	2.016343	0.0	0.0
H	0.553211	0.499288	-2.058721
C	-0.36706	1.351941	0.442054
N	-0.586021	2.460661	0.762802
N	-0.600751	-0.969911	0.820956
H	-1.631445	-0.730091	0.709001
H	-0.429153	-1.88936	0.423865
N	-1.512456	0.461262	-2.087275
H	-1.436121	1.471772	-2.096691
H	-2.251643	0.228708	-1.379002
C	-0.101144	-1.466379	-1.978279
N	0.035592	-2.598222	-2.261986
F	-2.879905	0.0	0.0
