15

C	0.0	0.0	0.0
C	-0.436708	0.24401	-1.487035
Br	2.008085	0.0	0.0
H	0.463663	0.446789	-2.070586
C	-0.30029	1.188713	0.827503
N	-0.454525	2.055142	1.608104
N	-0.52792	-1.211276	0.515268
H	-1.563303	-1.015822	0.407972
H	-0.305503	-1.275828	1.503187
N	-1.307433	1.400706	-1.588909
H	-2.145958	1.106103	-1.051301
H	-1.547531	1.52967	-2.565934
C	-1.004742	-0.999558	-2.054869
N	-1.416506	-1.907003	-2.67705
F	-2.738487	0.0	0.0
