16

C	-0.44135	-0.114288	-1.458396
C	0.0	0.0	0.0
Cl	-0.354401	1.479381	-2.312646
H	1.09656	0.0	0.0
H	-1.495686	-0.406033	-1.513495
N	0.352397	-1.072758	-2.196862
H	1.32718	-0.832159	-2.00773
H	0.197444	-1.950693	-1.707991
N	-0.376967	-1.29751	0.599522
H	-1.167499	-1.178751	1.224346
H	0.414627	-1.611754	1.152922
C	-0.543688	1.184159	0.775333
H	-0.174758	2.12796	0.373205
H	-0.212266	1.109393	1.815272
H	-1.642335	1.207408	0.758777
H	2.976664	0.0	0.0
