16

C	-0.213176	0.017883	-1.5025
C	0.0	0.0	0.0
Cl	-1.996456	0.20491	-1.961968
H	1.100374	0.0	0.0
H	0.011688	-0.979231	-1.898097
N	0.55225	1.077687	-2.086224
H	1.470492	1.046356	-1.627722
H	0.687128	0.904472	-3.075129
N	-0.476819	-1.209219	0.65866
H	0.183151	-1.956215	0.467089
H	-1.381172	-1.475156	0.279723
C	-0.513133	1.242363	0.699326
H	-0.222917	2.141297	0.151996
H	-1.604222	1.222388	0.788655
H	-0.081129	1.277718	1.701828
H	2.925601	0.0	0.0
