16

C	-0.33951	-0.070709	-1.465547
C	0.0	0.0	0.0
Cl	-2.25109	-0.576759	-1.660934
H	1.101899	0.0	0.0
H	0.117773	-0.943877	-1.928435
N	-0.080044	1.08126	-2.19467
H	-0.533548	1.899019	-1.817161
H	-0.264284	0.984076	-3.181592
N	-0.361621	-1.203233	0.746437
H	0.41479	-1.85283	0.668649
H	-1.192355	-1.633434	0.358495
C	-0.520225	1.248992	0.686111
H	-0.059906	2.153395	0.275333
H	-0.237771	1.18798	1.73762
H	-1.611887	1.327224	0.623584
H	2.893483	0.0	0.0
