16

C	-0.45892	-0.011537	-1.449428
C	0.0	0.0	0.0
Cl	-0.002467	-1.544402	-2.273931
H	1.095328	0.0	0.0
H	0.09441	0.75743	-1.998841
N	-1.910165	0.097006	-1.562175
H	-2.17585	1.012144	-1.21203
H	-2.174681	0.054877	-2.541339
N	-0.482183	-1.134961	0.777462
H	-1.390361	-1.414856	0.422736
H	0.159728	-1.902327	0.621789
C	-0.443377	1.30205	0.662101
H	-0.185892	2.173641	0.050143
H	-1.517426	1.312656	0.879067
H	0.093772	1.38912	1.60716
H	3.042832	0.0	0.0
