16

C	-0.435148	0.051723	-1.462257
C	0.0	0.0	0.0
Cl	0.056993	-1.525001	-2.306002
H	1.094358	0.0	0.0
H	0.163213	0.801515	-1.981804
N	-1.825376	0.321249	-1.652275
H	-2.057041	0.305772	-2.638201
H	-2.377786	-0.397157	-1.199074
N	-0.443344	-1.162109	0.762361
H	-1.40476	-1.410387	0.550535
H	0.145476	-1.946825	0.508141
C	-0.445079	1.278183	0.697953
H	0.059784	1.320638	1.664865
H	-0.156187	2.1609	0.11961
H	-1.528455	1.309602	0.851597
H	2.992966	0.0	0.0
