16

C	0.0	0.0	0.0
C	-0.509387	0.044434	-1.435996
Br	2.016376	0.0	0.0
H	-1.607963	0.023122	-1.300722
H	-0.112004	-0.78678	-2.01554
N	-0.519236	1.121847	0.714728
H	-0.323705	0.981622	1.702135
H	-1.547594	0.978588	0.571831
C	-0.407245	-1.352156	0.583261
H	-0.042685	-1.43079	1.61137
H	-1.503337	-1.323075	0.562252
H	-0.010496	-2.192033	0.006
N	-0.134062	1.277512	-2.168621
O	-0.807211	2.288893	-1.98115
O	0.825907	1.211404	-2.944766
F	-2.87994	0.0	0.0
