16

C	0.0	0.0	0.0
C	-0.175411	-0.18706	-1.534324
Br	2.058085	0.0	0.0
H	0.054882	-1.211552	-1.822139
H	0.482673	0.50546	-2.056578
N	-0.557437	1.165629	0.548789
H	-0.43991	1.934861	-0.102547
H	-1.594716	0.88697	0.518479
C	-0.424915	-1.219872	0.788459
H	-1.515893	-1.240641	0.673875
H	-0.157713	-1.073856	1.836603
H	0.050816	-2.126892	0.412017
N	-1.518195	0.122852	-2.123573
O	-1.799727	1.313472	-2.227896
O	-2.15507	-0.804554	-2.610366
F	-2.785681	0.0	0.0
