16

C	0.0	0.0	0.0
C	-0.273025	0.214792	-1.507224
Br	1.990353	0.0	0.0
H	-0.192748	1.281185	-1.710336
H	0.453256	-0.346246	-2.09454
N	-0.552804	1.088125	0.732607
H	-0.414067	0.89403	1.721494
H	-1.588139	0.899039	0.532567
C	-0.401221	-1.382951	0.499131
H	0.000384	-2.184831	-0.12286
H	-1.495198	-1.363856	0.473747
H	-0.037409	-1.50811	1.524312
N	-1.579926	-0.231593	-2.097196
O	-1.76835	-1.442196	-2.165179
O	-2.263305	0.625144	-2.6479
F	-2.776731	0.0	0.0
