16

C	0.0	0.0	0.0
C	-0.186558	0.005919	-1.546707
Br	1.976661	0.0	0.0
H	0.166028	0.962332	-1.933249
H	0.383558	-0.809014	-1.990198
N	-0.583789	1.088299	0.688306
H	-0.429446	1.942295	0.159493
H	-1.619142	0.82629	0.588194
C	-0.447538	-1.309797	0.623776
H	-0.013966	-2.167657	0.106795
H	-1.540485	-1.293104	0.541305
H	-0.1435	-1.319319	1.672773
N	-1.562586	-0.16125	-2.114681
O	-1.956842	-1.31233	-2.269176
O	-2.119748	0.848377	-2.533935
F	-2.818854	0.0	0.0
