16

C	0.0	0.0	0.0
C	-0.548641	-0.016221	-1.414279
Br	2.026451	0.0	0.0
H	-1.653604	-0.136166	-1.190941
H	-0.322361	0.919288	-1.922677
N	-0.409103	1.246921	0.543136
H	-0.499825	1.214514	1.546568
H	0.178481	2.0118	0.247196
C	-0.477557	-1.151129	0.852018
H	-0.119555	-2.101343	0.460862
H	-1.576693	-1.059605	0.787864
H	-0.108986	-1.02346	1.874755
N	0.016347	-1.082685	-2.264989
O	-0.175642	-2.256568	-1.943911
O	0.654129	-0.740501	-3.266417
F	-2.908208	0.0	0.0
