16

C	0.0	0.0	0.0
C	-0.50139	-0.112752	-1.445068
Br	1.970003	0.0	0.0
H	-0.243247	0.787313	-2.001311
H	-1.594674	-0.22268	-1.299253
N	-0.543372	1.197964	0.578698
H	-0.35709	1.982129	-0.041501
H	-1.570071	0.982076	0.526076
C	-0.43187	-1.172443	0.868749
H	-1.524651	-1.172115	0.81549
H	-0.01935	-2.114564	0.513972
H	-0.095989	-0.977407	1.88902
N	0.034414	-1.236742	-2.246734
O	0.694106	-0.958391	-3.252968
O	-0.214847	-2.387009	-1.884695
F	-2.885549	0.0	0.0
