16

C	0.0	0.0	0.0
C	-0.14146	0.071336	-1.546204
Br	2.05848	0.0	0.0
H	0.408862	0.939461	-1.906788
H	0.249318	-0.837358	-2.002782
N	-0.571227	1.05913	0.721296
H	-0.439238	1.926275	0.20942
H	-1.611926	0.784875	0.631349
C	-0.428112	-1.334571	0.569201
H	-1.520641	-1.327755	0.468577
H	0.028686	-2.166136	0.029591
H	-0.144565	-1.379871	1.622371
N	-1.513943	0.258098	-2.115965
O	-2.062246	-0.725064	-2.603583
O	-1.921039	1.414343	-2.187318
F	-2.797053	0.0	0.0
