16

C	0.0	0.0	0.0
C	-0.513358	0.036891	-1.434526
Br	2.004335	0.0	0.0
H	-0.165478	-0.830944	-1.990212
H	-1.611554	0.066004	-1.292009
N	-0.515803	1.120576	0.71986
H	-0.310439	0.980107	1.704428
H	-1.544076	0.982366	0.584453
C	-0.407359	-1.353153	0.584835
H	-0.002292	-2.192809	0.012918
H	-0.047608	-1.427616	1.615035
H	-1.503141	-1.331148	0.558799
N	-0.073081	1.219561	-2.209155
O	-0.622568	2.297121	-1.989041
O	0.814217	1.04661	-3.053137
F	-2.879357	0.0	0.0
