18

C	-0.230882	0.083529	-1.520712
C	0.0	0.0	0.0
F	-0.027074	-1.264114	-1.953251
H	1.087198	0.0	0.0
C	-1.601061	0.466213	-2.031853
H	-2.34579	-0.242569	-1.677097
H	-1.584986	0.449273	-3.125877
H	-1.860601	1.472082	-1.702548
N	0.794411	0.938983	-1.974456
H	0.899082	0.870028	-2.976552
H	1.676114	0.712215	-1.482679
N	-0.600546	-1.200861	0.625209
O	0.047324	-1.704202	1.541929
O	-1.697491	-1.605928	0.241671
N	-0.530977	1.19304	0.702826
O	-1.686209	1.150889	1.137835
O	0.218582	2.159721	0.793144
F	2.579316	0.0	0.0
