18

C	-0.178004	-0.011656	-1.514239
C	0.0	0.0	0.0
F	-1.50395	-0.109104	-1.928097
H	1.090159	0.0	0.0
C	0.447427	1.226123	-2.137581
H	0.48565	1.078552	-3.222239
H	1.462772	1.294863	-1.738596
H	-0.117083	2.12951	-1.917874
N	0.505227	-1.22974	-1.900027
H	1.428823	-1.182619	-1.457498
H	0.636815	-1.21254	-2.905608
N	-0.571909	-1.225245	0.614971
O	-1.792368	-1.232492	0.790667
O	0.191388	-2.144641	0.889555
N	-0.564194	1.134448	0.756942
O	-1.098503	2.07066	0.162562
O	-0.431864	1.067328	1.977596
F	2.561539	0.0	0.0
