18

C	-0.441427	0.062137	-1.457511
C	0.0	0.0	0.0
F	-1.83324	0.389233	-1.506923
H	1.088346	0.0	0.0
C	0.324403	1.178691	-2.135523
H	1.370091	1.07831	-1.844411
H	-0.051103	2.148891	-1.820951
H	0.207927	1.087115	-3.219007
N	-0.186117	-1.161447	-2.119437
H	-0.735602	-1.90279	-1.714161
H	-0.389073	-1.060828	-3.104269
N	-0.471191	-1.161179	0.791535
O	-1.158256	-2.04517	0.26866
O	-0.102579	-1.181829	1.962412
N	-0.512954	1.202975	0.713187
O	-1.560636	1.108934	1.349557
O	0.139143	2.236051	0.585751
F	2.510717	0.0	0.0
