14

C	0.0	0.0	0.0
C	-0.415585	-0.05411	-1.466541
Cl	1.900662	0.0	0.0
H	-1.510784	-0.164385	-1.377005
H	0.018359	-0.934987	-1.95681
N	-0.54309	1.082746	0.723321
H	-1.571467	0.829145	0.716824
H	-0.462629	1.881196	0.095186
C	-0.310171	-1.284539	0.650308
N	-0.45417	-2.330933	1.164816
N	-0.099802	1.213642	-2.11385
H	0.81314	1.174044	-2.547227
H	-0.791049	1.410988	-2.824237
H	-2.958977	0.0	0.0
