14

C	0.0	0.0	0.0
C	-0.486702	-0.095024	-1.444425
Cl	1.784009	0.0	0.0
H	-0.000337	-0.949355	-1.924023
H	-1.568262	-0.268602	-1.335838
N	-0.597207	1.151439	0.602198
H	-0.387262	1.163238	1.595608
H	-1.632678	0.935675	0.496625
C	-0.335253	-1.272871	0.691877
N	-0.517928	-2.290577	1.251178
N	-0.154603	1.138073	-2.165527
H	-0.390343	1.900278	-1.536516
H	-0.800843	1.204966	-2.945218
H	-3.027702	0.0	0.0
