14

C	0.0	0.0	0.0
C	-0.487403	-0.121596	-1.442873
Cl	1.784678	0.0	0.0
H	0.005137	-0.978396	-1.912167
H	-1.567567	-0.300751	-1.329888
N	-0.605021	1.156712	0.583033
H	-1.640017	0.930177	0.47735
H	-0.399773	1.182866	1.577392
C	-0.32917	-1.264272	0.712507
N	-0.492855	-2.27512	1.28968
N	-0.168991	1.104837	-2.182653
H	-0.826789	1.163545	-2.952279
H	-0.396604	1.871393	-1.554944
H	-3.017766	0.0	0.0
