14

C	0.0	0.0	0.0
C	-0.300715	0.009345	-1.52203
Cl	1.834724	0.0	0.0
H	-1.298992	-0.40472	-1.650435
H	0.433743	-0.619586	-2.028256
N	-0.330041	1.296474	0.579887
H	-0.253211	1.217139	1.588607
H	0.359679	1.956367	0.251206
C	-0.812001	-1.051211	0.655869
N	-0.772157	-2.087737	1.257699
N	-0.186699	1.374245	-2.041558
H	-0.19638	1.339871	-3.054147
H	-1.024819	1.860042	-1.740896
H	-2.22709	0.0	0.0
