14

C	0.0	0.0	0.0
C	-0.388074	-0.38279	-1.488342
Cl	1.843735	0.0	0.0
H	0.495859	-0.171583	-2.09124
H	-0.552771	-1.460517	-1.509318
N	-0.553109	1.263363	0.35534
H	-1.58155	1.077864	0.311539
H	-0.324389	1.461817	1.325646
C	-0.311458	-1.092372	0.94414
N	-0.490118	-1.945899	1.734052
N	-1.519628	0.283543	-2.073173
H	-1.33043	1.279015	-2.071891
H	-2.325645	0.144333	-1.432308
H	-3.10617	0.0	0.0
