14

C	0.0	0.0	0.0
C	-0.289922	-0.041207	-1.54564
Cl	1.79045	0.0	0.0
H	0.513323	0.53848	-2.013909
H	-0.140346	-1.087081	-1.863342
N	-0.562195	1.106097	0.707832
H	-1.576899	0.885974	0.743645
H	-0.482475	1.919569	0.104551
C	-0.397167	-1.263919	0.640949
N	-0.573552	-2.326274	1.110664
N	-1.562767	0.55908	-1.904954
H	-2.291518	0.298081	-1.193068
H	-1.861689	0.148761	-2.78388
H	-3.181154	0.0	0.0
