16

C	-0.426396	-0.070886	-1.481593
C	0.0	0.0	0.0
Cl	0.074739	1.450603	-2.28401
H	1.092189	0.0	0.0
C	0.312701	-1.237576	-2.13415
H	1.383838	-1.109022	-1.95525
H	0.100904	-1.249404	-3.204556
H	-0.021793	-2.179077	-1.691657
C	-1.875174	-0.20858	-1.656545
N	-3.020382	-0.381069	-1.858808
C	-0.513534	-1.15301	0.723874
N	-0.911346	-2.103746	1.28795
N	-0.539308	1.244214	0.651503
O	0.261038	2.123078	0.940965
O	-1.758736	1.284184	0.816059
Cl	3.218483	0.0	0.0
