16

C	-0.439677	-0.093398	-1.474372
C	0.0	0.0	0.0
Cl	0.047845	1.417158	-2.307855
H	1.092159	0.0	0.0
C	0.299404	-1.269885	-2.111004
H	-0.029722	-2.204115	-1.648535
H	0.082702	-1.30524	-3.179925
H	1.371228	-1.134495	-1.941209
C	-1.888948	-0.241091	-1.629113
N	-3.034511	-0.428045	-1.815878
C	-0.509637	-1.144637	0.742475
N	-0.902343	-2.090235	1.319925
N	-0.514776	1.257292	0.645999
O	0.293113	2.152924	0.857656
O	-1.721323	1.287742	0.895924
Cl	3.210206	0.0	0.0
