16

C	-0.41416	0.043721	-1.482835
C	0.0	0.0	0.0
Cl	-2.212994	0.158498	-1.62625
H	1.093502	0.0	0.0
C	0.235655	1.19489	-2.240916
H	-0.164679	2.144897	-1.893605
H	1.311955	1.165984	-2.051699
H	0.029067	1.083303	-3.306457
C	-0.01932	-1.230998	-2.08769
N	0.297411	-2.255032	-2.571821
C	-0.525175	-1.170614	0.682701
N	-0.909776	-2.135405	1.231372
N	-0.462371	1.244721	0.701664
O	0.16106	2.271609	0.443992
O	-1.421747	1.157707	1.466636
Cl	3.163549	0.0	0.0
