16

C	-0.527074	0.02149	-1.448626
C	0.0	0.0	0.0
Cl	0.037237	-1.517578	-2.192912
H	1.093219	0.0	0.0
C	-2.049132	0.062112	-1.539278
H	-2.468764	-0.78391	-0.992056
H	-2.354806	-0.006414	-2.584278
H	-2.418904	0.999108	-1.121473
C	0.054537	1.108916	-2.239077
N	0.423333	1.948509	-2.974051
C	-0.51177	-1.152779	0.72588
N	-0.953734	-2.088117	1.283098
N	-0.388943	1.237806	0.764215
O	-0.327603	1.167924	1.985436
O	-0.679594	2.241486	0.115624
Cl	3.103472	0.0	0.0
