16

C	-0.531202	0.010485	-1.446735
C	0.0	0.0	0.0
Cl	0.091391	-1.502523	-2.197266
H	1.093235	0.0	0.0
C	-2.053434	-0.0086	-1.541277
H	-2.462254	0.906371	-1.112418
H	-2.439451	-0.878362	-1.007266
H	-2.352132	-0.07633	-2.58837
C	0.006755	1.123763	-2.231767
N	0.34012	1.976793	-2.967406
C	-0.501028	-1.156329	0.728692
N	-0.936656	-2.094148	1.286716
N	-0.397654	1.231732	0.767462
O	-0.251385	1.184182	1.981839
O	-0.787752	2.20782	0.129604
Cl	3.109847	0.0	0.0
