16

C	-0.539602	0.015243	-1.448933
C	0.0	0.0	0.0
Cl	0.063383	-1.47636	-2.238604
H	1.091488	0.0	0.0
C	-2.064423	0.015221	-1.499079
H	-2.456909	0.923184	-1.035251
H	-2.447653	-0.856551	-0.967022
H	-2.39643	-0.022657	-2.537519
C	-0.029257	1.158659	-2.206468
N	0.24814	2.085804	-2.872031
C	-0.504128	-1.164952	0.714645
N	-0.900251	-2.121505	1.270502
N	-0.468257	1.248424	0.697987
O	-1.339514	1.147076	1.56204
O	0.051679	2.293519	0.321888
Cl	3.138762	0.0	0.0
