16

C	-0.444327	-0.005468	-1.475224
C	0.0	0.0	0.0
Cl	0.07496	1.53565	-2.226575
H	1.09219	0.0	0.0
C	0.255945	-1.160814	-2.183133
H	-0.09306	-2.109883	-1.77008
H	0.027667	-1.126491	-3.248692
H	1.33113	-1.06275	-2.021061
C	-1.896181	-0.106745	-1.626985
N	-3.047791	-0.248467	-1.810545
C	-0.511597	-1.185158	0.673674
N	-0.902306	-2.16469	1.192064
N	-0.523597	1.217677	0.711515
O	0.288316	2.073893	1.034224
O	-1.74086	1.258977	0.891989
Cl	3.22485	0.0	0.0
