15
Coordinates from ORCA-job run
  C   -0.57570876835845      0.21407918200852      0.04843315016767
  C   0.77467615579737      0.20855471397816      0.07063469857261
  N   -1.26957785570388      1.47178235216337     -0.28557295770990
  O   -0.90570130769153      2.50571533221926      0.26875630275644
  O   -2.18936872528379      1.36922310923758     -1.09659243450765
  C   -1.51521727748424     -0.92560569454056      0.25449596799600
  H   -1.01415654729407     -1.78702863775187      0.69014454386381
  H   -2.32388181441272     -0.62044255022191      0.92316209673853
  H   -1.97077191564714     -1.21403656306797     -0.69487358823326
  C   1.62406848840402     -1.00407080524305      0.34656292449575
  H   1.03386181786079     -1.91189298252407      0.45137595451283
  H   2.33735599782190     -1.14666372384264     -0.46857634674096
  H   2.20129930016568     -0.84983693662723      1.26213777684997
  C   1.53120588377305      1.39698827965529     -0.19870812651492
  N   2.26191656805302      2.29223492455711     -0.42337996224691
