15
Coordinates from ORCA-job run
  C   -0.56291874324991      0.22637887043981     -0.01842853042066
  C   0.77356164780384      0.19146884692046      0.17228095450144
  N   -1.24346347644837      1.53459374875816     -0.00007221990985
  O   -2.27671626039792      1.58439515605961      0.66658599267781
  O   -0.75761432964375      2.45569363692943     -0.65147011338762
  C   -1.51033712862967     -0.91278216664603     -0.18854983503080
  H   -0.98776603890699     -1.84438674264982     -0.39313819945400
  H   -2.18947981999854     -0.70611919137286     -1.01939844345622
  H   -2.12139482450042     -1.03080516676834      0.70847520098709
  C   1.60127989545158     -1.06551684769433      0.22382242680809
  H   0.99475058097880     -1.96718980810168      0.17316729333545
  H   2.17944580817524     -1.08815330054251      1.15040919866952
  H   2.31368039746848     -1.07181932935994     -0.60544863676722
  C   1.53130921199598      1.39361420343325      0.36640695030022
  N   2.25466307990164      2.30162809059479      0.56235796114673
