15
Coordinates from ORCA-job run
  C   -0.56641115353710      0.22006812436212     -0.00217238527034
  C   0.77243639077931      0.19877699229058      0.17192482353217
  N   -1.26568925856830      1.51545367930230      0.07991025087033
  O   -0.82165337725579      2.46077107168175     -0.56680739118040
  O   -2.26973057600037      1.53011858911508      0.79086575857092
  C   -1.49872452651935     -0.92518760700662     -0.20910296317123
  H   -2.09681633071279     -1.08861475665690      0.68964689599069
  H   -0.96565234135753     -1.83949994145958     -0.45932243766504
  H   -2.19130207402470     -0.69431074277341     -1.02242871425454
  C   1.61935765961298     -1.04658542857099      0.16306785473693
  H   1.02301308576362     -1.95603617050350      0.12640749978493
  H   2.23903833157038     -1.07508918591095      1.06241166979162
  H   2.29302468447587     -1.03081180111289     -0.69809733356166
  C   1.51113289805275      1.40641211688528      0.40180541087056
  N   2.21597658772103      2.32353506035772      0.62089106095506
