15
Coordinates from ORCA-job run
  C   -0.57582462630393      0.21380484744890      0.04588603908483
  C   0.75799897687816      0.19144503966894      0.25653915027096
  N   -1.26970313183936      1.51475243190431      0.06672248391856
  O   -2.06153891023536      1.70651357283324     -0.85551886393888
  O   -1.03262191384580      2.28939981664158      0.98992741924065
  C   -1.48542501892050     -0.92017438369335     -0.28774666763514
  H   -2.39404915440112     -0.85501954610781      0.31574486707350
  H   -1.78738597171771     -0.86382975655211     -1.33556644806921
  H   -1.01495773493337     -1.88249666745527     -0.09994673828379
  C   1.61370311955646     -1.04694025527654      0.21553426061407
  H   2.40655338748596     -0.92149016971854     -0.52582224129430
  H   2.09500471269033     -1.19546643497035      1.18555196781580
  H   1.04476496588565     -1.93951068137559     -0.03532694768529
  C   1.49367723442492      1.39581824815630      0.51201221771488
  N   2.20980406527567      2.31119393849629      0.70000950117333
