15
Coordinates from ORCA-job run
  C   -0.57577234951007      0.21379498152838      0.09880794122384
  C   0.77370619889175      0.19913246570244      0.15243038861837
  N   -1.26733481906369      1.51614224196770      0.12641463841325
  O   -2.16459359788485      1.65629006969410     -0.70399740458567
  O   -0.92427315978007      2.34291942983930      0.96749811110575
  C   -1.51457756634166     -0.93397627018986     -0.05898274170933
  H   -2.34131689435639     -0.83444843143022      0.64858568041626
  H   -1.02052558735056     -1.88640381915007      0.11915052448693
  H   -1.94421843059446     -0.93307745560069     -1.06272800886733
  C   1.62272013557250     -1.04289203355519      0.08483786758877
  H   1.03290368999922     -1.94334715937747     -0.07277398402479
  H   2.34238914361663     -0.95268883132951     -0.73224405055715
  H   2.19190328716192     -1.15189255684277      1.01169071829280
  C   1.53000242187731      1.41341224284399      0.25630258267885
  N   2.25898752776241      2.33603512589988      0.31400773691945
