15
Coordinates from ORCA-job run
  C   -0.57462466841857      0.21799500271788      0.07043657564270
  C   0.77582723553082      0.20498028727369      0.08786175888864
  N   -1.26920520156497      1.50027086121732      0.29060028635442
  O   -2.21085354218855      1.46272439646837      1.08192372072419
  O   -0.88443119369392      2.48798295937074     -0.32990779342789
  C   -1.51569939099945     -0.92927297078687     -0.07713616998496
  H   -2.30319562752373     -0.67132610445276     -0.78942564484188
  H   -1.00861214161466     -1.82359978418261     -0.43206307112919
  H   -1.99922054600742     -1.14423030841218      0.87790214978998
  C   1.62518827606185     -1.02838335143986     -0.07163115361886
  H   2.29902814519378     -1.12420342218172      0.78302403090743
  H   2.24430407573555     -0.93692449304970     -0.96786698915413
  H   1.03149832181166     -1.93695125183682     -0.14641962123191
  C   1.53145720507795      1.40679201209018      0.29258880427194
  N   2.25853905259964      2.31414616720436      0.47711311680953
