15
Coordinates from ORCA-job run
  C   -0.49491781421468     -0.52509583964558     -0.19030321470566
  C   0.92672717928748     -0.11663328482769      0.22780376594364
  Br  -0.75428511997811     -2.42602828498165      0.02419712905986
  H   1.63528538116580     -0.67545856561510     -0.38534633704796
  N   -0.60412895689902     -0.27763810438712     -1.72820754507436
  O   -1.65605562655628      0.20849028804108     -2.12389016720487
  O   0.36134538478907     -0.59355068834683     -2.41140159902110
  N   -1.46043351769747      0.18368140479258      0.55189738926473
  H   -2.39356271286380     -0.16966380449820      0.38441367430902
  H   -1.43675233528183      1.17140639020838      0.31655468063799
  N   1.12695167454878     -0.43950181899737      1.62010689629749
  H   0.47161819075668      0.07556620896908      2.19506129168962
  H   2.07313812201081     -0.21974124276888      1.90318220878425
  C   1.06601696880654      1.32285296481714     -0.09612713615855
  N   1.14005318212604      2.48031437724016     -0.28894103677408
