15
Coordinates from ORCA-job run
  C   -0.54002140431381     -0.40007625991470     -0.24764103985781
  C   0.86594508107323     -0.01213739212814      0.24019397872024
  Br  -0.76908649650372     -2.36663980164211      0.21658909066951
  H   1.58050367316717     -0.72843479560623     -0.17588302913232
  N   -0.60659172733987     -0.41020198529254     -1.76620202216956
  O   0.44231798431747     -0.62826456664457     -2.36105021774656
  O   -1.70869227877467     -0.22348132451781     -2.26196475690332
  N   -1.49542982408691      0.45396769167050      0.25332629044538
  H   -1.37686480750069      0.58856727626011      1.24987637538226
  H   -2.44116293993993      0.24386765510947     -0.03158372985851
  N   0.82453580676208      0.03666776604004      1.70086975758843
  H   1.55793184419372      0.63838232530683      2.05419835503851
  H   0.96309083164188     -0.89580456389787      2.07165363518471
  C   1.19790519523043      1.31920289329268     -0.27970770340914
  N   1.50561906207364      2.38538508196433     -0.66267498395180
