15
Coordinates from ORCA-job run
  C   -0.37808121600845     -0.55994612945351     -0.32900175371973
  C   0.78132897278863     -0.01040002690251      0.51626127736927
  Br  0.22501016187886     -2.16110536562852     -1.33361889474212
  H   0.95154576523087     -0.77492621547781      1.29305771483828
  N   -0.76421619693910      0.46654902064305     -1.39496193716823
  O   0.15442041165434      0.98796629354715     -2.00236522173446
  O   -1.96255045643728      0.65634973111781     -1.56716456933203
  N   -1.49114125384257     -0.77672596529216      0.50614363508846
  H   -1.38610000697755     -1.63239136485689      1.03611901117712
  H   -2.34997263021674     -0.79503005934909     -0.03052766944428
  N   0.34015100523085      1.27980812980888      1.02039601546758
  H   1.10671828418882      1.78277168835008      1.44811403480472
  H   -0.40054095367084      1.13923500844215      1.69519607993938
  C   2.05002828407565      0.13631175118556     -0.20082229473970
  N   3.12439982904453      0.26053350386581     -0.65682542780426
