15
Coordinates from ORCA-job run
  C   -0.55016067102451     -0.32460250521414     -0.31239039670318
  C   0.85224238360944     -0.09857250702378      0.27354635430028
  Br  -0.93108858038540     -2.31627438832342     -0.07918049708168
  H   1.53628573497867     -0.81466562304484     -0.19146027924317
  N   -0.54929488784559     -0.17129121315756     -1.82452560955804
  O   -1.62712134390400      0.08902165713287     -2.34072544369534
  O   0.52054586346587     -0.34239860738930     -2.39632926691859
  N   -1.47050032075459      0.53428412160496      0.23792602080423
  H   -1.39283329364184      0.56044960525702      1.24689166014007
  H   -2.41204569681066      0.42723019630887     -0.11054413625213
  N   0.73976629919405     -0.20917584119906      1.72738913322945
  H   1.51350123508893      0.26627513432462      2.17470813334188
  H   0.76927939526412     -1.18748286859904      1.98955761260281
  C   1.30087742664039      1.25460896105615     -0.07452898479778
  N   1.69854645612512      2.33159387826663     -0.31933430016881
