15
Coordinates from ORCA-job run
  C   -0.46841767891721     -0.37255067729082     -0.29775673819206
  C   0.55801897945871      0.49218918248536      0.44810410629422
  Br  0.50661696002976     -1.83750125268527     -1.23095325816478
  H   0.00483558376396      1.38315016484461      0.75698747493492
  N   -1.15372291641029      0.46427578851030     -1.38375551833374
  O   -1.88335458058808     -0.15522560253305     -2.14604700429347
  O   -0.99646144644914      1.67661039785359     -1.34596272503358
  N   -1.51310233356575     -0.80058929218115      0.53697787904682
  H   -1.17765053709098     -1.35115814692384      1.31835211172667
  H   -2.20630990999916     -1.32542774649814      0.01603314884465
  N   1.64243774035172      0.89715574501498     -0.41547800830312
  H   2.03146226289974      1.77644044925816     -0.10319387487570
  H   2.37350961422405      0.19885560201932     -0.44470833577499
  C   0.96753303759272     -0.23050080437697      1.66648417249233
  N   1.31560522469994     -0.81472380749707      2.62491656963182
