15
Coordinates from ORCA-job run
  C   -0.45449858889281     -0.51355736544992     -0.32803829542011
  C   0.49530438789354      0.44000065398612      0.42958150000935
  Br  0.53681591389083     -2.02315056841101     -1.00167538640606
  H   -0.14134961579394      1.27200966045809      0.74928904096229
  N   -1.00718793959912      0.33648581965426     -1.48421484233280
  O   -1.68547009830972      1.27902003269889     -1.08178237666206
  O   -0.76963277101236      0.04853634856280     -2.64137802305678
  N   -1.59279731356372     -0.98498004687580      0.38814368929874
  H   -1.33208318851488     -1.66114680395936      1.09390447414344
  H   -2.09745865597150     -0.20884883295576      0.80090913175414
  N   1.50362492758256      0.97109725854486     -0.45778191273386
  H   1.94558987217864      1.78596763191572     -0.05219394014945
  H   2.21474946237893      0.27802063444271     -0.65658159510573
  C   0.98418914287907     -0.24486191878731      1.64044337265618
  N   1.40020446485449     -0.77659250382428      2.60237516304273
