15

C	0.0	0.0	0.0
C	-0.457722	0.559758	-1.428908
Cl	1.842889	0.0	0.0
H	-0.82984	1.575253	-1.300832
C	-0.380546	1.030657	0.978768
N	-0.51264	1.922827	1.731413
N	-0.463981	-1.26915	0.416451
H	-1.502001	-1.07074	0.418083
H	-0.266217	-1.939241	-0.317026
N	-1.596855	-0.175767	-2.10569
O	-1.48173	-1.390721	-2.209548
O	-2.426986	0.525042	-2.660277
C	0.594959	0.527733	-2.448216
N	1.371522	0.482502	-3.330361
F	-2.550859	0.0	0.0
