15

C	0.0	0.0	0.0
C	-0.473949	-0.144514	-1.476917
Cl	1.792044	0.0	0.0
H	0.387685	0.049362	-2.12633
C	-0.374751	1.283197	0.629583
N	-0.497583	2.229273	1.317939
N	-0.434645	-1.136083	0.762843
H	-1.472514	-0.97807	0.712948
H	-0.111887	-1.011792	1.717227
N	-1.473505	0.876046	-1.977755
O	-1.211023	2.041416	-1.711564
O	-2.333523	0.489753	-2.751943
C	-0.950259	-1.492411	-1.76225
N	-1.2124	-2.58058	-2.116324
F	-2.49978	0.0	0.0
