15

C	0.0	0.0	0.0
C	-0.599585	-0.031767	-1.418921
Cl	1.778808	0.0	0.0
H	-1.714104	0.005624	-1.149987
C	-0.370761	1.313278	0.583935
N	-0.596892	2.356702	1.075744
N	-0.514225	-1.129153	0.710522
H	-1.546398	-0.966945	0.64049
H	-0.22308	-1.060417	1.679709
N	-0.28287	-1.340216	-2.077933
O	-1.121773	-2.228522	-1.977254
O	0.790873	-1.435112	-2.673581
C	-0.137894	1.059236	-2.253331
N	0.182714	1.961806	-2.934292
F	-2.757738	0.0	0.0
