15

C	0.0	0.0	0.0
C	-0.59719	-0.02472	-1.420305
Cl	1.778832	0.0	0.0
H	-1.710198	0.020971	-1.158816
C	-0.373785	1.305194	0.599703
N	-0.579866	2.32361	1.148999
N	-0.516019	-1.136191	0.696738
H	-0.225318	-1.078933	1.665976
H	-1.548675	-0.970526	0.625815
N	-0.29341	-1.339137	-2.076084
O	-1.159166	-2.205629	-2.005933
O	0.796167	-1.459448	-2.638706
C	-0.12361	1.058261	-2.257497
N	0.207542	1.952765	-2.94464
F	-2.758262	0.0	0.0
