15

C	0.0	0.0	0.0
C	-0.553426	-0.104454	-1.453048
Cl	1.791351	0.0	0.0
H	-1.670542	-0.164035	-1.181983
C	-0.393731	1.335906	0.49159
N	-0.581355	2.42247	0.895504
N	-0.488731	-0.976008	0.921
H	-1.517706	-0.824045	0.839249
H	-0.27033	-1.894902	0.551741
N	-0.069205	-1.348751	-2.115921
O	0.591155	-1.252404	-3.149785
O	-0.369723	-2.414076	-1.576292
C	-0.222634	1.045078	-2.272294
N	0.003539	2.004169	-2.913228
F	-2.701451	0.0	0.0
