15

C	0.0	0.0	0.0
C	-0.600196	-0.108906	-1.414566
Cl	1.778532	0.0	0.0
H	-1.715567	-0.057784	-1.145665
C	-0.375254	1.340329	0.518182
N	-0.588903	2.39624	0.988658
N	-0.508638	-1.092586	0.77026
H	-0.220559	-0.968647	1.734874
H	-1.541182	-0.942679	0.693677
N	-0.283177	-1.450841	-2.002537
O	-1.124524	-2.330743	-1.856199
O	0.791417	-1.578811	-2.590502
C	-0.138073	0.935722	-2.305132
N	0.192962	1.797515	-3.032736
F	-2.756411	0.0	0.0
