15

C	0.0	0.0	0.0
C	-0.595215	-0.057081	-1.420637
Cl	1.778797	0.0	0.0
H	-1.70828	-0.018444	-1.157269
C	-0.374942	1.32097	0.565153
N	-0.573246	2.358224	1.081176
N	-0.513937	-1.116633	0.728349
H	-1.546464	-0.955723	0.65468
H	-0.223984	-1.033524	1.696986
N	-0.272408	-1.373531	-2.058564
O	-1.104697	-2.265891	-1.938363
O	0.799798	-1.471175	-2.657612
C	-0.133606	1.023736	-2.269378
N	0.180916	1.918569	-2.96304
F	-2.752176	0.0	0.0
