15

C	0.0	0.0	0.0
C	-0.374288	-0.104086	-1.510818
Cl	1.791949	0.0	0.0
H	0.412738	0.405473	-2.073411
C	-0.383888	1.310863	0.566774
N	-0.530503	2.31972	1.152463
N	-0.491081	-1.127612	0.713651
H	-1.535182	-0.933155	0.604915
H	-0.220932	-1.032164	1.687223
N	-1.614521	0.624156	-2.011558
O	-1.585155	1.835641	-1.849718
O	-2.402382	-0.001182	-2.700861
C	-0.397126	-1.500633	-1.931736
N	-0.317551	-2.587479	-2.368402
F	-2.560476	0.0	0.0
