14

C	-0.440379	0.063805	-1.470266
C	0.0	0.0	0.0
Br	-0.060005	-1.652684	-2.349533
H	1.093732	0.0	0.0
H	-0.31204	0.938392	0.475017
C	-1.880895	0.285894	-1.593893
N	-3.030847	0.516476	-1.681587
C	0.3555	1.157959	-2.176744
H	0.118431	2.123187	-1.71864
H	1.420031	0.954809	-2.036561
H	0.107653	1.195647	-3.238498
C	-0.572823	-1.109791	0.746187
N	-1.061675	-1.981754	1.362211
Cl	3.325325	0.0	0.0
