14

C	-0.411646	-0.06229	-1.472562
C	0.0	0.0	0.0
Br	-2.347363	-0.497143	-1.612871
H	1.095824	0.0	0.0
H	-0.313547	-0.931093	0.481895
C	-0.24871	1.229003	-2.135295
N	-0.112683	2.266525	-2.670573
C	0.39525	-1.142312	-2.182904
H	0.133142	-1.194159	-3.240784
H	1.456842	-0.90474	-2.058129
H	0.197116	-2.108533	-1.715369
C	-0.564316	1.12881	0.722496
N	-1.038599	2.027909	1.309998
Cl	3.305619	0.0	0.0
