14

C	-0.571506	-0.049681	-1.425105
C	0.0	0.0	0.0
Br	0.126235	1.464261	-2.464418
H	1.092677	0.0	0.0
H	-0.316637	-0.914645	0.517229
C	-0.136084	-1.278229	-2.087838
N	0.104575	-2.29779	-2.620542
C	-2.097463	0.016083	-1.453637
H	-2.434184	0.952649	-1.007419
H	-2.503274	-0.821805	-0.877597
H	-2.465493	-0.045546	-2.478849
C	-0.519707	1.147508	0.73376
N	-0.976363	2.052166	1.32789
Cl	3.297975	0.0	0.0
