14

C	-0.576563	0.00163	-1.427491
C	0.0	0.0	0.0
Br	0.135466	1.537124	-2.417304
H	1.092731	0.0	0.0
H	-0.317939	-0.930268	0.486868
C	-0.136169	-1.212754	-2.112091
N	0.155886	-2.221808	-2.639054
C	-2.100221	0.076936	-1.452012
H	-2.428949	1.003313	-0.979012
H	-2.511219	-0.773485	-0.9008
H	-2.466247	0.04894	-2.478799
C	-0.519927	1.12394	0.769763
N	-0.987894	2.007427	1.385518
Cl	3.294387	0.0	0.0
