14

C	-0.438757	0.0358	-1.474407
C	0.0	0.0	0.0
Br	0.076465	-1.684691	-2.282
H	1.093736	0.0	0.0
H	-0.361684	-0.905709	0.49154
C	-1.891921	0.130159	-1.611733
N	-3.059469	0.227957	-1.713852
C	0.273389	1.161577	-2.215493
H	-0.040551	2.12064	-1.793255
H	0.031135	1.141859	-3.278983
H	1.34913	1.041616	-2.066011
C	-0.50102	1.176762	0.70237
N	-0.903085	2.133786	1.252202
Cl	3.319649	0.0	0.0
