14

C	-0.406522	-0.061878	-1.473885
C	0.0	0.0	0.0
Br	-2.349075	-0.457594	-1.624118
H	1.095853	0.0	0.0
H	-0.316537	-0.929955	0.482167
C	-0.209407	1.223369	-2.141414
N	-0.040752	2.25621	-2.67773
C	0.382524	-1.161642	-2.173856
H	0.156256	-2.122705	-1.706975
H	1.447653	-0.947171	-2.038367
H	0.130563	-1.209576	-3.234013
C	-0.561188	1.132199	0.718902
N	-1.030255	2.036605	1.302749
Cl	3.303844	0.0	0.0
