14

C	-0.569411	0.006814	-1.427898
C	0.0	0.0	0.0
Br	0.133717	1.602876	-2.334008
H	1.092784	0.0	0.0
H	-0.322926	0.921294	0.496179
C	-0.132765	-1.162146	-2.189564
N	0.109355	-2.130985	-2.808991
C	-2.094597	0.080502	-1.449432
H	-2.507584	-0.807894	-0.964539
H	-2.421996	0.970561	-0.908089
H	-2.462911	0.132558	-2.47483
C	-0.522786	-1.144213	0.740187
N	-0.98292	-2.061314	1.312328
Cl	3.300749	0.0	0.0
