16

C	-0.288375	-0.111318	-1.499431
C	0.0	0.0	0.0
Cl	-2.083329	-0.595843	-1.754833
H	1.102499	0.0	0.0
N	-0.019597	1.120086	-2.146719
H	-0.125636	1.03003	-3.149136
H	-0.614962	1.867375	-1.807029
N	0.482723	-1.218508	-1.983244
H	0.345404	-1.345405	-2.979723
H	1.466471	-1.016298	-1.786165
N	-0.508672	-1.152029	0.752322
H	0.172562	-1.33006	1.483752
H	-0.446152	-1.942748	0.116125
C	-0.531531	1.246276	0.548302
N	-0.960989	2.247094	0.987746
Br	3.480069	0.0	0.0
