16

C	-0.558685	-0.051722	-1.430864
C	0.0	0.0	0.0
Cl	-0.041782	-1.566822	-2.219137
H	1.092654	0.0	0.0
N	-2.022061	-0.121466	-1.332117
H	-2.402742	-0.429429	-2.220314
H	-2.365027	0.817576	-1.152067
N	-0.001742	1.032922	-2.192036
H	-0.190507	1.923404	-1.748076
H	-0.370094	1.032857	-3.132471
N	-0.455906	-1.140337	0.767791
H	0.063624	-1.186573	1.636082
H	-1.450983	-1.073601	0.946004
C	-0.462079	1.291388	0.562713
N	-0.916392	2.28686	0.994969
Br	3.595781	0.0	0.0
