16

C	-0.451917	-0.037767	-1.47158
C	0.0	0.0	0.0
Cl	0.173883	1.500497	-2.252588
H	1.093037	0.0	0.0
N	0.132636	-1.137674	-2.189183
H	1.140172	-0.992643	-2.19839
H	-0.035496	-1.948034	-1.596129
N	-1.871034	-0.143316	-1.548735
H	-2.3095	0.706669	-1.214062
H	-2.124327	-0.293363	-2.517862
N	-0.402685	-1.26025	0.618801
H	-1.372349	-1.230106	0.906309
H	0.190019	-1.432974	1.421497
C	-0.538251	1.175301	0.697449
N	-1.049599	2.050327	1.294053
Br	3.471938	0.0	0.0
