16

C	-0.218811	-0.039491	-1.520453
C	0.0	0.0	0.0
Cl	-1.986406	-0.09137	-1.905238
H	1.106936	0.0	0.0
N	0.323268	1.116938	-2.199639
H	-0.131744	1.962179	-1.86988
H	1.310387	1.170172	-1.947441
N	0.383559	-1.262834	-1.983118
H	0.367092	-1.24653	-2.997723
H	1.359587	-1.252759	-1.679017
N	-0.573506	-1.149493	0.696414
H	0.055527	-1.381176	1.458383
H	-0.533142	-1.92156	0.03778
C	-0.496035	1.256083	0.561585
N	-0.888438	2.26675	1.013399
Br	3.454169	0.0	0.0
