16

C	-0.17641	-0.015084	-1.533079
C	0.0	0.0	0.0
Cl	-1.927017	-0.076379	-2.001499
H	1.101131	0.0	0.0
N	0.361354	1.221858	-2.041337
H	0.388767	1.194903	-3.054572
H	1.319954	1.297085	-1.698573
N	0.418071	-1.258055	-1.988807
H	1.404103	-1.219529	-1.722258
H	0.365565	-1.300396	-3.000624
N	-0.496892	-1.153004	0.719435
H	0.032504	-1.956609	0.401896
H	-1.465148	-1.307977	0.453687
C	-0.523018	1.232312	0.586158
N	-0.958393	2.189323	1.108445
Br	3.457041	0.0	0.0
