18

C	0.0	0.0	0.0
C	-0.366046	0.176582	-1.506866
F	1.36483	0.0	0.0
H	0.373321	-0.496901	-1.963186
N	-0.374016	1.200379	0.85988
O	-1.248308	1.965668	0.472567
O	0.226505	1.291836	1.9311
C	-0.630329	-1.199187	0.63846
H	-0.37982	-2.09013	0.055655
H	-1.719261	-1.012273	0.607097
H	-0.262792	-1.315375	1.660102
N	0.020163	1.530122	-1.921767
H	-0.742682	2.133605	-1.631839
H	-0.026798	1.508156	-2.935407
N	-1.675083	-0.206629	-1.959266
H	-2.41229	0.01838	-1.220042
H	-1.706196	-1.217205	-2.044553
F	-3.277334	0.0	0.0
