18

C	0.0	0.0	0.0
C	-0.578443	0.051504	-1.393464
F	1.372981	0.0	0.0
H	-1.658241	0.207712	-1.174658
N	-0.322034	1.327285	0.723135
O	0.297486	1.498691	1.775844
O	-1.136309	2.10607	0.257099
C	-0.562685	-1.100401	0.850612
H	-1.657907	-0.95741	0.782174
H	-0.18118	-0.998689	1.868388
H	-0.270925	-2.058981	0.422891
N	-0.419555	-1.272974	-2.000373
H	-1.075076	-1.356274	-2.76742
H	0.51896	-1.363757	-2.377856
N	0.016134	1.165966	-2.128769
H	0.898403	0.873532	-2.53512
H	-0.608254	1.437457	-2.87753
F	-2.993887	0.0	0.0
