18

C	0.0	0.0	0.0
C	-0.630115	-0.111277	-1.374129
F	1.375297	0.0	0.0
H	-1.719122	-0.111851	-1.115036
N	-0.271705	1.41888	0.564173
O	0.481949	2.307986	0.168574
O	-1.155284	1.568963	1.396577
C	-0.559726	-1.009007	0.956258
H	-0.283523	-2.001329	0.600014
H	-1.652819	-0.856267	0.906457
H	-0.164102	-0.839065	1.960413
N	-0.239413	-1.42275	-1.913362
H	0.660196	-1.336017	-2.376039
H	-0.923024	-1.697056	-2.608485
N	-0.322186	1.044921	-2.201674
H	-0.782514	0.930888	-3.096356
H	0.67837	1.120808	-2.355252
F	-3.031266	0.0	0.0
