18

C	0.0	0.0	0.0
C	-0.564511	0.018901	-1.417811
F	1.361775	0.0	0.0
H	-1.655698	0.010818	-1.29227
C	-0.540108	1.111118	0.856125
H	-1.629825	1.026065	0.902497
H	-0.106386	1.034844	1.853659
H	-0.267912	2.05629	0.389944
N	-0.335912	-1.321681	0.712454
O	0.183956	-1.469871	1.815611
O	-1.070019	-2.13957	0.164882
N	-0.047349	-1.093474	-2.224515
H	-0.455155	-0.985417	-3.14806
H	-0.42497	-1.955488	-1.847313
N	-0.169107	1.287622	-2.010063
H	0.729893	1.152866	-2.459685
H	-0.850477	1.562275	-2.705693
Br	-4.080349	0.0	0.0
