18

C	0.0	0.0	0.0
C	-0.578484	0.029156	-1.410146
F	1.362574	0.0	0.0
H	-1.530422	-0.502998	-1.352617
C	-0.518347	1.051436	0.935869
H	-1.609359	0.988904	0.975708
H	-0.093095	0.886006	1.925323
H	-0.209404	2.02543	0.554949
N	-0.300498	-1.38389	0.625564
O	-0.928827	-2.223283	-0.005566
O	0.185056	-1.55629	1.743089
N	0.313678	-0.688368	-2.294105
H	1.091583	-0.086504	-2.539604
H	-0.182259	-0.948962	-3.136515
N	-0.781943	1.432235	-1.814052
H	-1.027651	1.40238	-2.798946
H	-1.632043	1.741587	-1.343371
Br	-3.944701	0.0	0.0
