18

C	0.0	0.0	0.0
C	-0.570229	0.217456	-1.410375
F	1.372466	0.0	0.0
H	-1.635678	0.425104	-1.260127
C	-0.508066	1.005992	0.990818
H	-0.064675	0.825255	1.972248
H	-1.595401	0.930257	1.051436
H	-0.225383	1.992829	0.625157
N	-0.313735	-1.416655	0.498078
O	0.334293	-2.328255	-0.018692
O	-1.154097	-1.559677	1.376125
N	-0.475342	-0.901575	-2.335821
H	0.3619	-1.442626	-2.154505
H	-1.269389	-1.514159	-2.189501
N	0.083815	1.423782	-1.906969
H	-0.389049	1.663047	-2.771227
H	1.037348	1.179953	-2.155935
Br	-4.022037	0.0	0.0
