18

C	0.0	0.0	0.0
C	-0.557516	-0.245974	-1.40724
F	1.370446	0.0	0.0
H	-1.640993	-0.347815	-1.28
C	-0.590506	1.159476	0.739477
H	-1.678688	1.029341	0.755413
H	-0.340208	2.087549	0.224301
H	-0.196985	1.204459	1.756948
N	-0.299934	-1.283996	0.81714
O	0.659583	-1.92768	1.241197
O	-1.477569	-1.574839	0.960789
N	-0.025875	-1.472044	-1.982815
H	0.921641	-1.63288	-1.663077
H	-0.595951	-2.254609	-1.690794
N	-0.317439	0.888773	-2.285859
H	0.628266	1.236318	-2.171676
H	-0.96988	1.630333	-2.062906
Br	-4.221226	0.0	0.0
