16

C	-0.398071	-0.221394	-1.457258
C	0.0	0.0	0.0
F	-0.49465	1.0458	-2.121126
H	1.097709	0.0	0.0
H	-1.407959	-0.636952	-1.532262
N	0.53702	-1.068652	-2.082891
H	0.384209	-1.135874	-3.078591
H	1.490182	-0.778617	-1.882956
N	-0.452927	-1.16996	0.769335
H	-1.199665	-0.898435	1.399541
H	0.318396	-1.507198	1.331676
C	-0.515848	1.311757	0.56725
H	-1.613114	1.337465	0.555239
H	-0.17486	1.414599	1.601043
H	-0.14893	2.162744	-0.004911
Br	3.678906	0.0	0.0
