16

C	-0.440647	0.007771	-1.448243
C	0.0	0.0	0.0
F	-1.796191	0.309067	-1.585773
H	1.104905	0.0	0.0
H	-0.342911	-1.009763	-1.869982
N	0.274366	1.012895	-2.200498
H	0.018829	0.960069	-3.179474
H	1.2735	0.857141	-2.115941
N	-0.574575	-1.186103	0.649736
H	-0.459795	-1.093962	1.653107
H	-0.044555	-2.008675	0.374756
C	-0.490754	1.248101	0.704919
H	-0.187567	2.141363	0.156343
H	-0.064513	1.303709	1.714235
H	-1.581134	1.234381	0.785356
Br	2.759898	0.0	0.0
