16

C	-0.48972	0.005339	-1.433382
C	0.0	0.0	0.0
F	-0.008642	-1.178103	-2.052897
H	1.100576	0.0	0.0
H	-0.044284	0.825623	-2.001886
N	-1.911525	0.059077	-1.494352
H	-2.224063	-0.133734	-2.437505
H	-2.260662	-0.659251	-0.868234
N	-0.547946	-1.213197	0.638928
H	-0.287574	-1.181327	1.619202
H	-0.040018	-1.999392	0.245325
C	-0.4748	1.236064	0.744731
H	-0.156435	2.1411	0.221177
H	-1.56251	1.246268	0.837114
H	-0.02231	1.261723	1.740411
Br	3.747516	0.0	0.0
