16

C	-0.349391	0.042335	-1.472156
C	0.0	0.0	0.0
F	-1.735092	0.257127	-1.641921
H	1.098175	0.0	0.0
H	-0.176836	-0.951066	-1.903082
N	0.35558	1.110902	-2.120084
H	1.305103	1.137077	-1.757264
H	0.411046	0.938526	-3.114995
N	-0.475453	-1.257297	0.576346
H	-1.453686	-1.153895	0.830618
H	0.046237	-1.435686	1.427538
C	-0.488671	1.248743	0.727057
H	-1.5829	1.28682	0.727735
H	-0.134077	1.233029	1.761424
H	-0.115963	2.155145	0.246712
Br	3.640433	0.0	0.0
