18

C	-0.556171	-0.011504	-1.429526
C	0.0	0.0	0.0
Cl	0.410784	-0.985094	-2.543805
H	1.088537	0.0	0.0
N	-1.895314	-0.442892	-1.472695
H	-2.285707	-0.324121	-2.397966
H	-2.459679	0.055301	-0.797085
N	-0.39858	1.464267	-1.942896
O	0.731212	1.912313	-2.046376
O	-1.448103	2.0713	-2.163872
N	-0.455839	-1.283687	0.626535
O	-1.425169	-1.235311	1.389713
O	0.143065	-2.304809	0.31302
C	-0.470862	1.187607	0.821581
H	-0.170562	1.030223	1.857243
H	0.042716	2.080588	0.464614
H	-1.550347	1.345238	0.799528
Br	3.460959	0.0	0.0
