18

C	-0.353561	0.027377	-1.504778
C	0.0	0.0	0.0
Cl	0.123077	1.60358	-2.15443
H	1.091721	0.0	0.0
N	0.237707	-0.982012	-2.316447
H	-0.040702	-1.889907	-1.961558
H	1.246143	-0.903104	-2.185913
N	-1.880677	-0.107734	-1.620512
O	-2.29586	-1.259717	-1.724898
O	-2.573764	0.895842	-1.513025
N	-0.455561	-1.319756	0.549958
O	0.161319	-2.32706	0.207015
O	-1.432047	-1.325072	1.303199
C	-0.528198	1.128506	0.857119
H	-1.615199	1.197068	0.841807
H	-0.094706	2.065603	0.512457
H	-0.199144	0.963845	1.884192
Br	3.408313	0.0	0.0
