18

C	-0.387508	0.002415	-1.472299
C	0.0	0.0	0.0
Cl	0.299045	1.468432	-2.220877
H	1.091359	0.0	0.0
N	0.102836	-1.127723	-2.149321
H	-0.411005	-1.950418	-1.864894
H	0.047009	-1.007637	-3.149476
N	-1.944788	0.176218	-1.706316
O	-2.518801	1.079378	-1.108684
O	-2.49784	-0.66309	-2.406235
N	-0.401472	-1.29699	0.605578
O	0.21695	-1.680329	1.596344
O	-1.402926	-1.874874	0.154501
C	-0.512047	1.095409	0.914026
H	-1.58293	1.004961	1.107482
H	0.047121	1.021146	1.848871
H	-0.314796	2.071237	0.473155
Br	3.188801	0.0	0.0
