19
Coordinates from ORCA-job run
  C   0.69685796666514      0.14226311534757      0.08425026091368
  C   -0.80978755153253     -0.11466553597050     -0.11182151439256
  Cl  1.01536030275590      1.90511986378496      0.26854416633386
  H   -0.90588313536627     -1.17084090669339     -0.37628501347546
  C   1.44929447698832     -0.33142993059280     -1.15371631172643
  H   1.30046100488097     -1.40658841246077     -1.29143027035712
  H   1.12357782026625      0.19132600829951     -2.05317931827969
  H   2.51651229733693     -0.14385776746545     -1.02522989337788
  C   1.22738515403787     -0.55553674013834      1.32899158397748
  H   0.78801696716770     -0.14213599734848      2.23731949809737
  H   0.99898186302165     -1.62398522514539      1.28875760190201
  H   2.30917081009224     -0.42464247284448      1.38617883164774
  C   -1.52845781687884      0.76333348165226     -1.11665344839239
  H   -1.05095195704777      0.69397542414321     -2.09448681963086
  H   -1.52578408585320      1.80106660629737     -0.79101265693411
  H   -2.56356792500262      0.43037239855906     -1.22007472122793
  N   -1.51311239216802     -0.02448619666530      1.21171935971533
  O   -1.81385054584724      1.09267229204229      1.62419466174954
  O   -1.71222325351651     -1.08396000480134      1.80693400345743
