19
Coordinates from ORCA-job run
  C   0.68733013237453      0.17016634182866      0.10952421578666
  C   -0.80099420947654     -0.14781604070939     -0.13430489651392
  Cl  0.93167623743036      1.94611090290060      0.27827372966603
  H   -0.84811202345252     -1.21372848268635     -0.37183108652444
  C   1.49954147330235     -0.29059977381636     -1.09513006039367
  H   1.19033973722890      0.21370321157128     -2.01074569776183
  H   2.55478118631342     -0.06742627232039     -0.92980557908134
  H   1.39041196236913     -1.37120013298409     -1.22747665211568
  C   1.20042146228321     -0.48945287948956      1.38206363138593
  H   1.01491472947778     -1.56642787049544      1.34974340984077
  H   0.71407434179310     -0.08195663610403      2.26875895032320
  H   2.27372675398770     -0.31566885915740      1.47425877500203
  C   -1.51187100808095      0.67396356793763     -1.19078190843193
  H   -1.00899834864842      0.57425939812211     -2.15318546211122
  H   -1.53987258662236      1.72391122660525     -0.90839306163217
  H   -2.53687504538384      0.31459544419336     -1.30564288980137
  N   -1.55663911418958     -0.04730741735886      1.15903324135092
  O   -1.92326605522878      1.06773368010627      1.52109474056510
  O   -1.73058962547750     -1.09485940814329      1.78254660044692
