19
Coordinates from ORCA-job run
  C   0.70140295941604      0.04240829695948     -0.13855531623720
  C   -0.81696435587884     -0.03688351060092      0.11335832704499
  Cl  1.03159749381824      0.51608735357932     -1.84415762346957
  H   -0.93608469925682     -0.45178629356387      1.11768697346760
  C   1.31612258706313     -1.33513169664729      0.08047721855880
  H   1.14204822689138     -1.66204119555723      1.11005771577077
  H   2.39293205024672     -1.28416926257507     -0.08858704880584
  H   0.90504004689555     -2.07741995573285     -0.60372803295675
  C   1.36750004038494      1.07237999939998      0.76322237048818
  H   2.44848063837197      1.03578759634166      0.61873708386728
  H   1.14025962954363      0.85928031925623      1.81118588342439
  H   1.02960146950650      2.08377443802724      0.53631288585819
  C   -1.63754434798552     -0.81705489056597     -0.89391969140244
  H   -2.68448208485300     -0.82814702900230     -0.58296935092788
  H   -1.29126641926017     -1.84958321981125     -0.94903834041582
  H   -1.57247817421848     -0.36328426798652     -1.88022301866208
  N   -1.38019510573879      1.34904222708709      0.24156688565277
  O   -1.66830962848940      1.94598014521145     -0.79252707714110
  O   -1.48666032645710      1.80076094618082      1.38210015588573
