15

C	0.0	0.0	0.0
C	-0.343257	-0.041414	-1.521702
F	1.345632	0.0	0.0
H	0.57423	0.355971	-1.965839
C	-0.451908	1.254396	0.605379
N	-0.474994	2.342227	1.055695
N	-0.384619	-1.180693	0.887103
O	-0.304893	-0.944117	2.085327
O	-0.56837	-2.265272	0.360795
C	-1.430291	0.772837	-2.051793
N	-1.934026	1.539975	-2.790565
N	-0.377195	-1.447791	-2.096227
O	-1.430733	-1.882431	-2.527868
O	0.714066	-2.00916	-2.113815
Cl	-2.900517	0.0	0.0
