15

C	-0.384177	0.014147	-1.471071
C	0.0	0.0	0.0
Br	0.004372	-1.631967	-2.387417
H	1.096233	0.0	0.0
H	0.149629	0.813594	-1.982417
N	-1.848305	0.336858	-1.627066
O	-2.108715	1.460249	-2.062091
O	-2.666348	-0.493149	-1.246876
C	-0.498574	-1.168869	0.717008
N	-0.873639	-2.08152	1.354472
C	-0.442169	1.295426	0.691422
H	0.006787	1.32943	1.684945
H	-1.528833	1.362845	0.788619
H	-0.076394	2.156942	0.127893
Br	3.411588	0.0	0.0
