12
Coordinates from ORCA-job run
  C   0.28372819840638     -0.19700110607706      0.45536666132804
  C   -0.82750551221214     -0.10713291289596     -0.58996032763035
  Cl  -0.40357978885911      0.15108398354527      2.07045910188075
  H   -0.38954369721943     -0.22414611364177     -1.58685772394835
  H   0.65707017509884     -1.22169297795867      0.50464265702666
  H   -1.29176880160381      0.88207169783032     -0.54383670109269
  C   1.41157904848057      0.77101841528557      0.15364574281928
  H   2.18656122279345      0.70853155241909      0.91812386247839
  H   1.03939997319707      1.79729916489610      0.12651645057611
  H   1.86096807773677      0.53210383556613     -0.81419486356230
  C   -1.85748048925334     -1.12867652514182     -0.41364725624826
  N   -2.67042840656525     -1.96345901382720     -0.27925760362728
