12
Coordinates from ORCA-job run
  C   0.28285379599644     -0.28380536657370      0.68602908311111
  C   -0.77935015760977     -0.84961873266692     -0.25710126808809
  Cl  -0.52727441903072      0.51434138316202      2.06892311049549
  H   -0.28534629000010     -1.46201382970414     -1.01922984126509
  H   0.83316474117584     -1.12594016255137      1.11145351234827
  H   -1.46512694459349     -1.49629025343081      0.29551088531201
  C   1.22988782134762      0.68511946809032      0.00725261934861
  H   1.72653816034841      0.19165434816355     -0.83334610744279
  H   0.68855685066584      1.55546906626592     -0.36719843838842
  H   1.99255763201006      1.02748134137232      0.70749594348278
  C   -1.54829072087053      0.19772556360781     -0.92663489559751
  N   -2.14817046943959      1.04487717426499     -1.47315460331637
