12
Coordinates from ORCA-job run
  C   0.17952616443524     -0.00400114311415      0.54251526710632
  C   -0.77080454122108     -0.21540228499487     -0.63556979026437
  Cl  -0.52341323408816      1.21394662422595      1.64921329997752
  H   -0.94650634619739      0.74029865917642     -1.13733216954247
  H   0.25374843028815     -0.92623886042515      1.12209749611859
  H   -0.29898610094363     -0.88960401630992     -1.35801275074325
  C   1.55011424153035      0.44981344852086      0.07786823853308
  H   1.99931499788535     -0.31274272236052     -0.56446388065741
  H   1.47515438206355      1.38421463538870     -0.48241441205563
  H   2.20983610001244      0.61440739098171      0.93027537431488
  C   -2.05349483906933     -0.78907582143291     -0.23514658151067
  N   -3.07448925469549     -1.26661590965610      0.08996990872341
