12
Coordinates from ORCA-job run
  C   0.29669027485972     -0.28702489026620      0.67781729636254
  C   -0.81091460731420     -0.82883810596840     -0.22634050406319
  Cl  -0.44670148549949      0.54422034604459      2.07868326894636
  H   -1.49436940833252     -1.45445016951999      0.35254401979284
  H   0.83628167364881     -1.14113506534404      1.09293430814463
  H   -0.35993430782140     -1.45725951042356     -1.00185509439771
  C   1.24921004033287      0.64917897212550     -0.03820360208970
  H   2.03992264686367      0.97823828844792      0.63692039174437
  H   1.70934903779823      0.13330515873116     -0.88637713636927
  H   0.72081565901038      1.52967599780649     -0.40772119955609
  C   -1.57289331326059      0.23664512125185     -0.87515512213176
  N   -2.16745621028548      1.09844385711470     -1.40424662638302
