13

C	-0.383188	0.007819	-1.472149
C	0.0	0.0	0.0
Cl	-2.170946	0.196525	-1.682706
H	1.095403	0.0	0.0
H	0.053074	0.90394	-1.916207
H	-0.344157	0.91083	0.495831
C	0.104986	-1.227829	-2.197159
H	1.185475	-1.303056	-2.043529
H	-0.374459	-2.123437	-1.797092
H	-0.108471	-1.162707	-3.265932
C	-0.521903	-1.161053	0.709988
N	-0.958435	-2.096205	1.269722
Cl	3.362373	0.0	0.0
