13

C	-0.494704	0.106538	-1.441399
C	0.0	0.0	0.0
Cl	-0.177053	-1.425295	-2.326495
H	1.093618	0.0	0.0
H	-1.580601	0.230826	-1.468842
H	-0.303438	0.916981	0.520213
C	0.215889	1.248483	-2.144006
H	-0.031929	2.193442	-1.647899
H	1.296184	1.095931	-2.079479
H	-0.086283	1.315273	-3.190822
C	-0.565128	-1.129291	0.725638
N	-1.067615	-2.010564	1.315931
Cl	3.394079	0.0	0.0
