13

C	-0.543498	-0.026455	-1.425182
C	0.0	0.0	0.0
Cl	-0.061474	1.472306	-2.28218
H	1.092524	0.0	0.0
H	-0.039293	-0.839734	-1.951519
H	-0.301508	-0.937835	0.483635
C	-2.051604	-0.180602	-1.497427
H	-2.390174	-0.223801	-2.534633
H	-2.356437	-1.100646	-0.990175
H	-2.540073	0.664603	-1.010318
C	-0.548885	1.103435	0.780875
N	-1.040962	1.969382	1.401451
Cl	3.395178	0.0	0.0
