12
Coordinates from ORCA-job run
  C   -0.73839886359658      0.16789976523483      0.37061292581648
  C   0.73964343076191      0.49006016227824      0.29764291229126
  Br  -1.62287503344645      1.89329117006872      0.94931508437507
  H   0.96308243512292      1.20959609522878     -0.48857739131515
  H   -0.94424399120114     -0.51032985127996      1.19556616334650
  H   1.11537884313354      0.83704871779998      1.25893746259830
  N   -1.20162246705932     -0.37260773874919     -0.83848315403033
  H   -1.09165880334669      0.25440659224421     -1.62462976674920
  H   -2.15449764637591     -0.70364363470850     -0.78761249639121
  N   1.46983176975962     -0.77200596312239     -0.03247510009932
  O   1.38391571315291     -1.67620372572394      0.79392585473403
  O   2.08144461309518     -0.81651158927077     -1.09522249457642
