12
Coordinates from ORCA-job run
  C   -0.66419383625683      0.28206599198863      0.11777850279269
  C   0.63200228473065     -0.38867937845564     -0.29287234029436
  Br  -0.59793321730819      2.16660068455702     -0.37183609115419
  H   0.84364567103002     -0.22878161169274     -1.34696335283498
  H   -0.75431891168149      0.28372720025568      1.20715230026827
  H   0.57915467272581     -1.45733656743418     -0.06534999731898
  N   -1.74489615702964     -0.35021028523300     -0.60864426420024
  H   -1.89327084487792     -1.28289979680842     -0.23587511395943
  H   -2.60222479907048      0.17419485279131     -0.48549053608148
  N   1.78152868030071      0.14052073508462      0.49319597070509
  O   2.75686833003938      0.54991887751722     -0.12873153807277
  O   1.66463812739798      0.11187929742951      1.71663646015039
