12
Coordinates from ORCA-job run
  C   -0.74418020878133      0.21503041546703      0.41525368870765
  C   0.73679126842880      0.50125882666370      0.28477229697549
  Br  -1.54814319502120      1.83779770205529      1.14394989320264
  H   1.19236754920033      0.77102147706947      1.23858162695576
  H   -0.92231248061059     -0.55134189257139      1.17499932390346
  H   0.91185489322248      1.28857640448889     -0.44719800471045
  N   -1.32151225024651     -0.04835790454197     -0.88275503973947
  H   -1.03832972277896     -0.98030074753530     -1.16686616309943
  H   -2.33218381913596     -0.03359924973354     -0.82431148641039
  N   1.49306475143227     -0.70120339618930     -0.20075634336090
  O   2.65153803623561     -0.50728262679654     -0.54631342559081
  O   0.92104517805507     -1.79159900837634     -0.18835636683356
