12
Coordinates from ORCA-job run
  C   -0.67707237121575      0.16702272531686      0.23947103671495
  C   0.61997401113076     -0.42945239223840     -0.26300133004350
  Br  -0.66412601099997      2.12386512872608     -0.22547804875907
  H   0.64344520600995     -1.48748228056488      0.00746358036248
  H   -0.69423810780639      0.16426429754796      1.32689436217702
  H   0.75016104264770     -0.30069767499076     -1.33625697589735
  N   -1.77565777068262     -0.55276637170582     -0.28141751307267
  H   -1.84031963191396     -0.47388546885788     -1.28844322715196
  H   -2.64986865992731     -0.25103781769546      0.12687266387052
  N   1.79908243737668      0.20123071551728      0.39705994329279
  O   2.72971143103371      0.55122678047148     -0.32142924013785
  O   1.75690842434721      0.28871235847354      1.62126474864464
