12
Coordinates from ORCA-job run
  C   -0.69326793137581      0.33838000744150      0.24762574193394
  C   0.54101612033780     -0.37983270794744     -0.28352302737404
  Br  -0.53406355231410      2.23415227177015     -0.21671987195069
  H   0.46967314310398     -1.44187008617373     -0.03314448405408
  H   -0.69302688626006      0.30153996043710      1.33626129281733
  H   0.66318010120762     -0.24378538797621     -1.35706674160378
  N   -1.93706168088685     -0.17149879204007     -0.24717455845573
  H   -2.17558183695925     -1.04858328784416      0.19770399323724
  H   -1.93313688705054     -0.27916893878460     -1.25316258257654
  N   1.78847213208492      0.11359003075537      0.36852153435330
  O   2.71725653524723      0.45463830204565     -0.35684918321636
  O   1.78754074286508      0.12243862831643      1.59752788688942
