12
Coordinates from ORCA-job run
  C   -0.61361514917888      0.38925667484190     -0.08503876164758
  C   0.55901898117264     -0.56808145412690     -0.00517906360761
  Br  -0.31475461526675      1.65483911414146     -1.53547023638686
  H   0.74535093205469     -1.04837563979299     -0.96233208112705
  H   -0.65242407802493      1.00693911667341      0.81594332113180
  H   0.37075787614770     -1.31491534833491      0.77164061153933
  N   -1.80291625349013     -0.38281250133704     -0.37788466365522
  H   -2.05788291870258     -0.92112160704933      0.44446539413094
  H   -2.57464184038890      0.23550286837261     -0.59578535672102
  N   1.80400117857879      0.14192806875199      0.40181677764270
  O   2.79919379588447     -0.00595750462791     -0.30065696038459
  O   1.73791209121385      0.81479821248772      1.42848101908514
