12
Coordinates from ORCA-job run
  C   -0.77481349113147      0.44170994165023      0.20374201683490
  C   0.62672214876459      0.16607066021709      0.71346280933043
  Br  -0.59519263412025      1.82233355982880     -1.27449405394745
  H   1.08703869952947      1.06494907694715      1.11538640668825
  H   -1.30572586785448      1.00654320997120      0.96964217408891
  H   0.58026360530979     -0.62180165293999      1.46976902636856
  N   -1.49735862945996     -0.71382107365233     -0.13160555415066
  H   -1.03039956510283     -1.26155980111663     -0.84130099119249
  H   -2.44747327638656     -0.50622396466901     -0.40500329110034
  N   1.55152252006791     -0.33194365807681     -0.34857447049375
  O   2.66787589758788      0.17055697944713     -0.40157812453649
  O   1.13854059279592     -1.23681327760684     -1.07244594788985
