12
Coordinates from ORCA-job run
  C   -0.79718322215696      0.46959616941562      0.23198120323948
  C   0.63897119258382      0.12807815941487      0.63561464197607
  Br  -0.70081527045812      2.03598870357130     -0.97296603985838
  H   0.62847572675024     -0.76401275464253      1.26763117401097
  H   -1.29278963979085      0.85331869441273      1.12544116091298
  H   1.12303885680987      0.95936776716270      1.14370786743426
  N   -1.59668697078121     -0.55521942950584     -0.33928521097472
  H   -1.06906300817786     -1.14204540871172     -0.96920532744063
  H   -2.07358924300102     -1.10117864905887      0.36339136008767
  N   1.49906623398243     -0.20440591602882     -0.53566231644342
  O   1.10798712353086     -1.11331478682315     -1.26876587962057
  O   2.53458822070881      0.43482745079369     -0.68288263332373
