12
Coordinates from ORCA-job run
  C   -0.69654189026286      0.13306581346632      0.20033152649489
  C   0.65610962209380     -0.39854170840096     -0.22213693331164
  Br  -0.76743900388190      2.07841038507318     -0.30139766438484
  H   0.83594721429294     -0.28016578226630     -1.28939706833183
  H   -0.77134837736968      0.14671436075727      1.28525162173015
  H   0.72278856583088     -1.44901761315823      0.06955174341875
  N   -1.72477689926674     -0.65654422711874     -0.36281953593708
  H   -1.74191164654536     -0.59492709012706     -1.37301717288780
  H   -2.63417652900013     -0.39818139221820     -0.00460711343386
  N   1.76181957536325      0.30813299909895      0.48587366541650
  O   2.70787163782523      0.69930828461559     -0.19006321418116
  O   1.65065773092058      0.41274597027820      1.70443014540795
