12
Coordinates from ORCA-job run
  C   -0.68654232752982      0.24498421004783      0.05109624490982
  C   0.67544706380313     -0.36248436977574     -0.22258921688880
  Br  -0.69266831045091      2.10379295220024     -0.53159130885146
  H   0.96092407356760     -0.24058489888234     -1.26426823056258
  H   -0.86342618618486      0.29338879191740      1.12870921920463
  H   0.66679293485033     -1.42006334129698      0.05658010424668
  N   -1.66681280948700     -0.48876659951734     -0.72135816146575
  H   -2.55957339724154     -0.01178173991614     -0.69560041668381
  H   -1.79236103425083     -1.40797885025005     -0.30879810159729
  N   1.72500601074397      0.27512922278208      0.62061434176043
  O   2.71938835595921      0.71856772770476      0.05465318397273
  O   1.51382562622073      0.29479689498626      1.83155234195539
