16

C	0.0	0.0	0.0
C	-0.22869	-0.117905	-1.539367
Br	2.013891	0.0	0.0
H	0.364664	-0.974398	-1.857215
H	-0.243318	1.00369	0.355365
N	-0.631115	-1.084413	0.64067
H	-0.446892	-1.026345	1.638409
H	-1.665904	-0.786436	0.472589
N	0.394449	1.051863	-2.243663
O	1.000669	0.821325	-3.290874
O	0.19578	2.176036	-1.787235
C	-1.614774	-0.239084	-2.165955
H	-2.168428	0.695678	-2.081618
H	-2.217524	-0.965266	-1.636688
H	-1.454891	-0.515148	-3.216185
F	-2.887694	0.0	0.0
