16

C	0.0	0.0	0.0
C	-0.229128	-0.002292	-1.547283
Br	1.948247	0.0	0.0
H	0.429623	-0.772648	-1.948013
H	-0.283055	0.966255	0.422239
N	-0.635023	-1.143417	0.552865
H	-0.464797	-1.14619	1.554575
H	-1.666026	-0.842501	0.411622
N	0.311967	1.273249	-2.130066
O	0.951743	1.188331	-3.179787
O	0.033312	2.33226	-1.571071
C	-1.6003	-0.189564	-2.174001
H	-2.293348	0.585726	-1.870538
H	-1.443039	-0.229017	-3.25902
H	-2.033382	-1.121734	-1.825891
F	-2.891749	0.0	0.0
