16

C	0.0	0.0	0.0
C	-0.205684	-0.062148	-1.561054
Br	1.963862	0.0	0.0
H	0.403997	-0.894557	-1.919995
H	-0.31254	0.973865	0.370004
N	-0.638394	-1.017729	0.734071
H	-1.670586	-0.713347	0.619082
H	-0.50784	-1.908664	0.260699
N	0.418085	1.139863	-2.219334
O	1.074294	0.953432	-3.245412
O	0.177283	2.245444	-1.737331
C	-1.589603	-0.167389	-2.17381
H	-2.171356	0.728963	-1.985714
H	-1.47033	-0.348254	-3.248866
H	-2.156857	-0.95476	-1.692024
F	-2.903406	0.0	0.0
