16

C	0.0	0.0	0.0
C	-0.421318	-0.057562	-1.482564
Br	2.044605	0.0	0.0
H	0.450193	0.163844	-2.10374
H	-0.18007	1.006439	0.371462
N	-0.530288	-1.060511	0.769274
H	-1.569708	-0.835971	0.608724
H	-0.323807	-0.865932	1.744195
N	-1.324456	1.111174	-1.823606
O	-1.099153	2.186052	-1.27685
O	-2.109057	0.959365	-2.752034
C	-1.050391	-1.364093	-1.911591
H	-0.41665	-2.186728	-1.577543
H	-2.023713	-1.418306	-1.428681
H	-1.15996	-1.394063	-2.996419
F	-2.699793	0.0	0.0
