16

C	0.0	0.0	0.0
C	-0.535895	-0.013972	-1.429239
Br	2.003327	0.0	0.0
H	-1.62779	-0.099448	-1.231416
H	-0.22435	0.999617	0.387388
N	-0.53088	-1.078986	0.756215
H	-1.561553	-0.915302	0.605453
H	-0.327434	-0.911153	1.736412
N	-0.101231	-1.240412	-2.158551
O	0.848542	-1.147959	-2.944929
O	-0.721828	-2.281094	-1.947023
C	-0.194057	1.226209	-2.222856
H	0.88227	1.37682	-2.310967
H	-0.617502	1.161345	-3.227798
H	-0.64727	2.085085	-1.720971
F	-2.813559	0.0	0.0
