16

C	0.0	0.0	0.0
C	-0.447218	-0.322815	-1.445003
Br	1.961541	0.0	0.0
H	0.413126	-0.201103	-2.110972
H	-0.234311	1.046096	0.190702
N	-0.525887	-0.923808	0.954753
H	-1.557621	-0.72918	0.785219
H	-0.295544	-0.566188	1.877033
N	-1.368694	0.755883	-1.975143
O	-2.146741	0.437419	-2.866457
O	-1.15966	1.911	-1.621371
C	-1.062594	-1.692321	-1.626146
H	-0.416302	-2.433949	-1.153667
H	-1.178874	-1.921026	-2.685754
H	-2.030896	-1.663781	-1.132003
F	-2.699144	0.0	0.0
