16

C	0.0	0.0	0.0
C	-0.515386	-0.029603	-1.453174
Br	1.972349	0.0	0.0
H	-1.597931	-0.207935	-1.254922
H	-0.284387	0.981698	0.376891
N	-0.516559	-0.981111	0.893778
H	-1.540031	-0.767097	0.803355
H	-0.365195	-1.892755	0.473783
N	0.044594	-1.187269	-2.194709
O	0.689883	-0.987498	-3.227538
O	-0.16423	-2.313046	-1.732338
C	-0.298157	1.262999	-2.203589
H	-0.687182	1.193396	-3.220509
H	-0.856667	2.040323	-1.676691
H	0.757178	1.537021	-2.256731
F	-2.778749	0.0	0.0
