15

C	0.0	0.0	0.0
C	-0.573911	0.126758	-1.400475
Br	1.945936	0.0	0.0
H	-1.67838	0.176295	-1.245727
H	-0.310511	0.884787	0.553635
C	-0.488161	-1.271694	0.669531
H	-1.580519	-1.265141	0.65151
H	-0.1046	-2.154486	0.152553
H	-0.142849	-1.298296	1.705214
C	-0.226519	-0.984971	-2.273372
N	0.00496	-1.906684	-2.963597
N	-0.17037	1.429167	-2.038411
O	0.191224	1.418426	-3.211917
O	-0.272011	2.425315	-1.329781
Cl	-3.58322	0.0	0.0
