15

C	0.0	0.0	0.0
C	-0.59157	0.161755	-1.386094
Br	1.945953	0.0	0.0
H	-1.696033	0.18839	-1.210315
H	-0.305357	0.869306	0.580645
C	-0.475714	-1.2915	0.64733
H	-0.107625	-2.158912	0.095159
H	-0.102051	-1.34765	1.671275
H	-1.567616	-1.287283	0.658755
C	-0.238442	-0.915073	-2.29959
N	0.00518	-1.818335	-3.009515
N	-0.225109	1.491285	-1.993647
O	-0.239265	2.453859	-1.23513
O	0.013801	1.531215	-3.197241
Cl	-3.577325	0.0	0.0
