15

C	0.0	0.0	0.0
C	-0.583849	0.158159	-1.39276
Br	1.945977	0.0	0.0
H	-1.689752	0.181273	-1.231792
H	-0.307186	0.872781	0.575176
C	-0.487632	-1.284256	0.646623
H	-1.579795	-1.266323	0.652268
H	-0.129151	-2.156875	0.096919
H	-0.116227	-1.342669	1.671719
C	-0.220127	-0.916115	-2.303988
N	0.02644	-1.796573	-3.040658
N	-0.223361	1.490128	-1.999783
O	-0.253276	2.453539	-1.241849
O	0.021849	1.531158	-3.201808
Cl	-3.578429	0.0	0.0
