15

C	0.0	0.0	0.0
C	-0.301722	-0.099725	-1.516053
Br	1.949308	0.0	0.0
H	0.317008	0.655267	-2.005207
H	-0.312691	0.998732	0.308702
C	-0.553179	-1.051728	0.930501
H	-0.158454	-2.038751	0.699072
H	-0.286836	-0.789005	1.956466
H	-1.642972	-1.03937	0.826773
C	-1.633912	0.058179	-2.118526
N	-2.381804	0.190352	-3.018856
N	0.228958	-1.400476	-2.097842
O	1.069607	-1.302046	-2.988272
O	-0.239352	-2.446098	-1.661932
Cl	-3.63548	0.0	0.0
