12

C	0.0	0.0	0.0
C	-0.498443	-0.018315	-1.437626
Cl	1.791408	0.0	0.0
H	-0.119622	-0.926605	-1.925166
H	-0.339684	0.915931	0.481479
H	-1.58797	-0.074037	-1.365343
C	-0.417318	-1.173353	0.768436
N	-0.628949	-2.15392	1.378076
N	-0.100928	1.221621	-2.096128
H	0.766721	1.101262	-2.600573
H	-0.819784	1.497804	-2.749854
Br	-3.713486	0.0	0.0
