12

C	0.0	0.0	0.0
C	-0.478905	0.206338	-1.46807
Cl	1.786177	0.0	0.0
H	-0.25039	1.244858	-1.720112
H	-0.342512	0.802569	0.654502
H	0.165526	-0.424882	-2.085522
C	-0.435481	-1.294853	0.518002
N	-0.682067	-2.391625	0.859216
N	-1.846332	-0.084402	-1.768789
H	-2.530645	0.425145	-1.214593
H	-2.06404	-1.059946	-1.619768
Br	-4.685418	0.0	0.0
