12

C	0.0	0.0	0.0
C	-0.468222	0.0948	-1.461508
Cl	1.789799	0.0	0.0
H	-1.535316	-0.127711	-1.462137
H	-0.362824	0.849998	0.57647
H	0.068668	-0.67065	-2.031283
C	-0.401543	-1.249547	0.649657
N	-0.612769	-2.273782	1.183204
N	-0.260314	1.396183	-2.069733
H	-0.935405	2.043151	-1.679922
H	0.672995	1.739722	-1.872782
Br	-3.587702	0.0	0.0
