13

C	-0.126946	-0.009581	-1.505836
C	0.0	0.0	0.0
Br	-1.95251	0.457906	-2.131097
H	1.093506	0.0	0.0
H	0.030955	-1.023015	-1.867837
H	-0.40523	0.893166	0.470677
N	0.845937	0.876995	-2.115283
H	0.624611	1.826191	-1.826015
H	1.721366	0.636828	-1.614615
N	-0.567947	-1.167373	0.670993
O	-1.045282	-1.005885	1.797961
O	-0.507583	-2.259773	0.101297
F	2.601936	0.0	0.0
