13

C	-0.096239	0.014885	-1.513706
C	0.0	0.0	0.0
Br	-1.928536	0.359508	-2.194236
H	1.093284	0.0	0.0
H	0.10692	-1.013167	-1.819391
H	-0.457618	-0.865545	0.471383
N	0.857584	0.877094	-2.172315
H	0.638612	1.825507	-1.883608
H	1.735498	0.645196	-1.677275
N	-0.512387	1.189685	0.67051
O	-0.360058	2.287574	0.12874
O	-1.049447	1.040192	1.773518
F	2.59602	0.0	0.0
