13

C	-0.230007	0.163792	-1.512001
C	0.0	0.0	0.0
Br	-0.3974	2.097548	-1.991399
H	1.086951	0.0	0.0
H	-1.174629	-0.248622	-1.868863
H	-0.393768	-0.983278	0.269551
N	0.892662	-0.399897	-2.202119
H	0.733214	-1.387384	-2.36004
H	1.731978	-0.282414	-1.599858
N	-0.705237	0.966382	0.853662
O	-0.068912	1.87575	1.379741
O	-1.926382	0.8078	0.978549
F	2.662942	0.0	0.0
