13

C	-0.213449	-0.143374	-1.512896
C	0.0	0.0	0.0
Br	-0.203053	1.657531	-2.361717
H	1.088987	0.0	0.0
H	-1.183803	-0.548499	-1.805357
H	-0.389618	-0.912572	0.46243
N	0.874178	-0.913917	-2.051324
H	0.670563	-1.898649	-1.918032
H	1.72016	-0.672639	-1.495124
N	-0.730985	1.111092	0.630666
O	-1.965281	1.06395	0.558728
O	-0.10544	2.008185	1.192184
F	2.659177	0.0	0.0
