13

C	-0.518794	0.040771	-1.415965
C	0.0	0.0	0.0
Br	-0.047241	-1.726447	-2.320164
H	1.086905	0.0	0.0
H	0.129212	0.72122	-1.968696
H	-0.361366	0.904952	0.502626
N	-1.883079	0.386341	-1.576714
H	-2.450145	-0.24977	-1.029073
H	-2.159199	0.340955	-2.551049
N	-0.566276	-1.125055	0.789401
O	0.148242	-1.657263	1.630271
O	-1.747673	-1.452192	0.596743
F	2.583328	0.0	0.0
