13

C	-0.490929	0.090953	-1.425549
C	0.0	0.0	0.0
Br	-0.111208	-1.690588	-2.34696
H	1.086952	0.0	0.0
H	0.206254	0.743497	-1.951707
H	-0.361574	0.89766	0.516798
N	-1.829789	0.516497	-1.601563
H	-2.442749	-0.095129	-1.076852
H	-2.091988	0.510872	-2.57868
N	-0.610342	-1.131737	0.740971
O	0.091609	-1.771229	1.516689
O	-1.821514	-1.349862	0.576571
F	2.587762	0.0	0.0
