15

C	-0.481598	-0.056653	-1.455898
C	0.0	0.0	0.0
F	0.085523	-1.11176	-2.068008
H	1.095635	0.0	0.0
C	-1.945812	-0.16278	-1.549873
N	-3.114624	-0.27419	-1.595933
N	-0.070749	1.202703	-2.23048
O	-0.702326	2.212547	-1.938922
O	0.821299	1.091314	-3.052806
N	-0.427931	-1.244498	0.630389
H	0.373351	-1.654966	1.093393
H	-1.165666	-1.091251	1.303334
C	-0.498546	1.183521	0.69789
N	-0.948692	2.06747	1.326824
Cl	3.192311	0.0	0.0
