15

C	-0.428662	0.095447	-1.462482
C	0.0	0.0	0.0
F	0.028828	1.238	-2.015827
H	1.09652	0.0	0.0
C	-0.009391	-1.06566	-2.250689
N	0.284472	-1.951963	-2.961799
N	-1.965916	0.159381	-1.53482
O	-2.560662	-0.906317	-1.410098
O	-2.462753	1.27203	-1.645583
N	-0.400916	-1.276438	0.556423
H	0.299823	-1.571699	1.222249
H	-1.307812	-1.243466	0.999825
C	-0.485697	1.174644	0.732924
N	-0.893652	2.075701	1.368179
Cl	3.174393	0.0	0.0
