15

C	-0.509525	-0.007373	-1.448663
C	0.0	0.0	0.0
F	-1.877593	-0.056913	-1.456462
H	1.094129	0.0	0.0
C	-0.064342	1.132621	-2.249933
N	0.276567	2.045828	-2.905389
N	-0.03116	-1.291679	-2.127722
O	1.075045	-1.252242	-2.645145
O	-0.786156	-2.253514	-2.045436
N	-0.414376	-1.162537	0.754331
H	0.320423	-1.857671	0.715924
H	-1.28429	-1.554614	0.423119
C	-0.508397	1.234848	0.612721
N	-0.941693	2.214144	1.095379
Cl	3.191526	0.0	0.0
