15

C	-0.409883	-0.012477	-1.460154
C	0.0	0.0	0.0
F	-0.005474	1.115175	-2.096947
H	1.096303	0.0	0.0
C	0.080505	-1.203473	-2.162829
N	0.428147	-2.168639	-2.7341
N	-1.947216	-0.024557	-1.636446
O	-2.646754	-0.07201	-0.630635
O	-2.340081	0.044039	-2.794358
N	-0.415502	-1.239377	0.626542
H	-1.304417	-1.144082	1.097851
H	0.302597	-1.534659	1.276228
C	-0.461993	1.232316	0.647284
N	-0.812164	2.209626	1.1973
Cl	3.195048	0.0	0.0
