15

C	-0.477866	-0.040586	-1.45747
C	0.0	0.0	0.0
F	0.098351	-1.081994	-2.08519
H	1.095815	0.0	0.0
C	-1.940642	-0.155567	-1.556531
N	-3.109162	-0.264866	-1.606068
N	-0.074771	1.234238	-2.207322
O	0.82307	1.143328	-3.026452
O	-0.710704	2.235767	-1.895554
N	-0.427131	-1.252486	0.615073
H	0.377148	-1.672185	1.064411
H	-1.156811	-1.105614	1.298712
C	-0.497957	1.17327	0.7159
N	-0.925048	2.042689	1.381883
Cl	3.191884	0.0	0.0
