15

C	-0.544254	0.010282	-1.425581
C	0.0	0.0	0.0
F	0.061983	-0.945327	-2.170484
H	1.093137	0.0	0.0
C	-2.000851	-0.210144	-1.443829
N	-3.158404	-0.405118	-1.403746
N	-0.274942	1.329494	-2.153868
O	-0.921129	1.507471	-3.184456
O	0.589057	2.060079	-1.687993
N	-0.406461	-1.270552	0.595298
H	-1.178658	-1.155247	1.237776
H	0.390501	-1.652686	1.088652
C	-0.517855	1.159046	0.733202
N	-1.009562	2.013113	1.373506
Cl	3.18525	0.0	0.0
