17

C	0.0	0.0	0.0
C	-0.478412	-0.086807	-1.467759
F	1.405165	0.0	0.0
H	-1.574608	0.033433	-1.429976
C	-0.489257	1.247642	0.688152
H	-0.115719	1.234993	1.71579
H	-1.582758	1.249403	0.678587
H	-0.106944	2.138214	0.190514
N	-0.48482	-1.173119	0.622637
H	0.133038	-1.96145	0.496426
H	-0.771993	-1.044813	1.580129
C	-0.104476	-1.365807	-2.06037
N	0.168052	-2.412199	-2.517273
N	0.108587	1.022106	-2.292798
O	-0.472879	2.103424	-2.240594
O	1.135436	0.793679	-2.927835
Br	-3.852491	0.0	0.0
