13

C	-0.531109	-0.037396	-1.423011
C	0.0	0.0	0.0
F	-0.277168	-1.311994	-1.937059
H	1.096939	0.0	0.0
H	0.04085	0.637914	-2.073281
H	-0.376576	-0.897029	0.497506
N	-1.941261	0.203467	-1.433275
H	-2.142561	0.814874	-0.649169
H	-2.237285	0.641087	-2.294251
N	-0.525356	1.192762	0.702434
H	0.099665	1.963945	0.486949
H	-0.417565	1.036364	1.697329
Br	3.75028	0.0	0.0
