13

C	-0.329389	0.067077	-1.468474
C	0.0	0.0	0.0
F	-1.70574	0.140991	-1.700404
H	1.104873	0.0	0.0
H	-0.010329	-0.865243	-1.954354
H	-0.368031	-0.941293	0.41716
N	0.25996	1.251107	-2.04156
H	0.164285	1.224986	-3.0513
H	1.252092	1.244488	-1.814064
N	-0.576955	1.139647	0.72774
H	0.055526	1.35817	1.48904
H	-0.535518	1.93318	0.097652
Br	3.73197	0.0	0.0
