13

C	-0.399065	0.047744	-1.458799
C	0.0	0.0	0.0
F	-1.74809	0.391979	-1.567142
H	1.10069	0.0	0.0
H	-0.288547	-0.943111	-1.91143
H	-0.348417	0.930181	0.46283
N	0.364635	0.993656	-2.236925
H	0.420686	1.861218	-1.709259
H	1.321141	0.648463	-2.277879
N	-0.581106	-1.158413	0.69632
H	0.112464	-1.89848	0.675965
H	-0.696798	-0.923039	1.674153
Br	3.694966	0.0	0.0
