15

C	-0.552139	-0.021903	-1.415961
C	0.0	0.0	0.0
Cl	0.2354	1.350129	-2.354139
H	1.092103	0.0	0.0
H	-0.315306	0.955559	0.438487
C	-0.196832	-1.25168	-2.136223
N	0.0378	-2.250257	-2.708422
N	-1.982478	0.095714	-1.41424
H	-2.336462	0.166772	-2.360837
H	-2.236819	0.939029	-0.911109
C	-0.507283	-1.17235	0.83498
H	-0.166951	-2.119753	0.41054
H	-1.596497	-1.19466	0.907501
H	-0.082418	-1.098338	1.838786
Cl	3.506705	0.0	0.0
