15

C	-0.329292	0.08137	-1.496136
C	0.0	0.0	0.0
Cl	-0.137462	-1.575881	-2.202927
H	1.095295	0.0	0.0
H	-0.38656	-0.92407	0.433526
C	-1.72843	0.472933	-1.733384
N	-2.844971	0.813922	-1.865653
N	0.5442	0.963821	-2.240164
H	1.499924	0.753993	-1.943216
H	0.346575	1.92099	-1.965948
C	-0.487356	1.218194	0.77699
H	-0.101458	1.166425	1.797181
H	-0.102727	2.144691	0.342783
H	-1.578507	1.281512	0.819908
Cl	3.45716	0.0	0.0
