15

C	-0.475628	-0.056839	-1.443389
C	0.0	0.0	0.0
Cl	-2.295922	-0.659607	-1.396193
H	1.094357	0.0	0.0
H	-0.309759	-0.948243	0.452443
C	-0.615312	1.260833	-2.079726
N	-0.726388	2.313578	-2.588348
N	0.334409	-0.887242	-2.218024
H	-0.062899	-1.202266	-3.089069
H	0.826435	-1.597236	-1.69729
C	-0.545012	1.169141	0.802264
H	-0.183067	1.096676	1.829977
H	-0.187106	2.117545	0.396856
H	-1.638155	1.182885	0.818061
Cl	3.466572	0.0	0.0
