15

C	-0.480393	0.008415	-1.439187
C	0.0	0.0	0.0
Cl	-2.400111	0.22984	-1.387369
H	1.094378	0.0	0.0
H	-0.346151	0.922029	0.471334
C	-0.069164	1.213288	-2.165236
N	0.224467	2.175984	-2.770255
N	-0.120152	-1.133524	-2.157092
H	-0.321701	-1.988905	-1.661976
H	-0.477699	-1.151677	-3.100919
C	-0.463557	-1.215752	0.796098
H	0.032897	-2.126551	0.451061
H	-1.54674	-1.354769	0.764802
H	-0.159823	-1.085098	1.836492
Cl	3.47003	0.0	0.0
