15

C	-0.336016	-0.048874	-1.480981
C	0.0	0.0	0.0
Cl	-2.105439	-0.461324	-1.739209
H	1.097054	0.0	0.0
H	-0.323339	-0.95936	0.413691
C	-0.189331	1.275943	-2.114551
N	-0.046513	2.33018	-2.61407
N	0.456818	-1.072553	-2.095728
H	0.425292	-1.003226	-3.105509
H	1.421035	-0.974267	-1.77279
C	-0.573414	1.173456	0.769528
H	-1.666151	1.189261	0.733425
H	-0.196956	2.121562	0.379902
H	-0.264633	1.105322	1.8148
Cl	3.454913	0.0	0.0
