15

C	-0.563618	-0.021733	-1.417852
C	0.0	0.0	0.0
Cl	0.105742	1.389269	-2.309686
H	1.093317	0.0	0.0
H	-0.321364	0.950525	0.443855
C	-0.167299	-1.24441	-2.132266
N	0.067383	-2.260881	-2.671156
N	-2.017467	0.07001	-1.520772
H	-2.315808	0.856813	-0.952121
H	-2.420625	-0.772711	-1.124437
C	-0.488697	-1.176037	0.840477
H	-1.574937	-1.186286	0.979384
H	-0.180965	-2.126651	0.397509
H	-0.024919	-1.118917	1.827192
Cl	3.487333	0.0	0.0
