17

C	-0.389142	0.061861	-1.468464
C	0.0	0.0	0.0
Br	-0.048331	1.860997	-2.170474
H	1.093862	0.0	0.0
H	-0.36718	0.891326	0.511009
C	0.35853	-0.934129	-2.32328
H	0.107715	-0.823734	-3.377286
H	0.112063	-1.951078	-2.012571
H	1.424891	-0.760701	-2.161005
N	-1.898007	-0.125197	-1.591736
O	-2.61288	0.596632	-0.90361
O	-2.307599	-1.018951	-2.33317
C	-0.511909	-1.259529	0.695434
H	-1.604936	-1.301532	0.730261
H	-0.136928	-2.168559	0.221096
H	-0.140776	-1.261214	1.722663
Cl	3.467564	0.0	0.0
