17

C	-0.550448	-0.410849	-1.360021
C	0.0	0.0	0.0
Br	0.267376	-2.073782	-1.975079
H	1.090609	0.0	0.0
H	-0.335087	1.033059	0.165762
C	-2.056199	-0.585327	-1.402707
H	-2.397846	-0.732706	-2.427811
H	-2.546229	0.300042	-0.992976
H	-2.330802	-1.460032	-0.812072
N	-0.148562	0.690728	-2.344387
O	-1.020371	1.534579	-2.576973
O	0.997583	0.716743	-2.763467
C	-0.486351	-0.892269	1.137309
H	-1.561054	-0.803361	1.320251
H	0.042017	-0.612028	2.051316
H	-0.247545	-1.939057	0.934001
Cl	3.538812	0.0	0.0
