11

C	0.0	0.0	0.0
C	-0.41154	-0.034365	-1.483933
Br	1.947779	0.0	0.0
H	-0.009965	0.840697	-2.002387
H	-0.344265	-0.90135	0.503027
H	-1.517161	0.00285	-1.417413
C	-0.532433	1.174979	0.691512
N	-0.570303	2.198055	1.282327
C	0.016774	-1.250678	-2.15657
N	0.315315	-2.242006	-2.713378
H	-2.493972	0.0	0.0
