11

C	0.0	0.0	0.0
C	-0.27598	0.136124	-1.521342
Br	1.949387	0.0	0.0
H	0.27604	-0.655576	-2.053811
H	-0.330635	-0.945504	0.412449
H	0.152569	1.107191	-1.830862
C	-0.487501	1.126285	0.757951
N	-0.609361	2.002967	1.537878
C	-1.692258	0.112457	-1.963356
N	-2.547912	0.248725	-2.77612
H	-2.111518	0.0	0.0
