11

C	0.0	0.0	0.0
C	-0.301016	0.030678	-1.519067
Br	1.949779	0.0	0.0
H	0.317045	-0.747464	-1.983105
H	-0.310487	-0.931933	0.452934
H	0.062854	0.987921	-1.914527
C	-0.418469	1.130201	0.790852
N	-0.529089	2.080551	1.481766
C	-1.698804	-0.155024	-1.938787
N	-2.583635	-0.169141	-2.727059
H	-2.094084	0.0	0.0
