16
Coordinates from ORCA-job run
  C   0.33168127556066      0.15244836632157      0.52152505119866
  C   -0.34037978864556     -0.68076794135067     -0.58350334520795
  Br  0.43390053894762     -1.13104266805974      2.10952820456909
  H   0.27093115930845     -1.55791861448189     -0.80029571137936
  C   1.76970023597132      0.44863807789653      0.13090394331592
  H   2.27068987540381      0.97008484165860      0.94875284992617
  H   1.77498986520036      1.09399226009854     -0.75132427779137
  H   2.32274084072857     -0.46833498609940     -0.07305423060254
  N   -0.36883767041671      1.33522732782566      0.78640504636918
  H   -1.33995817936071      1.19062848789679      1.02760337841028
  H   0.09768953418298      1.91347786456963      1.47185323960811
  C   -0.53463255518444      0.11925110527878     -1.79053603659033
  N   -0.65759742473474      0.74232520562870     -2.77852821139748
  N   -1.68455995578858     -1.24032792381338     -0.16872632480248
  O   -1.83242667437111     -2.44812292345588     -0.29513619225012
  O   -2.51693107680193     -0.43855847991385      0.24353261662421
