16
Coordinates from ORCA-job run
  C   0.26768017940997      0.16779972333841      0.63077939357233
  C   -0.82594043503730     -0.65524418133588     -0.08244423884976
  Br  0.61150590929609     -0.92611869952507      2.31389127132577
  H   -1.67411403034490     -0.80451107865766      0.58825857065692
  C   1.58384991603407      0.24087415661980     -0.11597588938784
  H   1.43421981778531      0.77566740156490     -1.05526833249661
  H   1.97709044903919     -0.75344975604199     -0.32314248763701
  H   2.31500133386403      0.77760147422345      0.49200623164639
  N   -0.24313156039693      1.45240013588614      0.89289693047969
  H   -1.08889053422970      1.44956163602768      1.44972157557755
  H   0.44706101397222      2.05871290214719      1.31620379034441
  C   -0.34240199212441     -1.93219212172794     -0.58685629191642
  N   0.04085669424354     -2.96208050526627     -1.00069335411100
  N   -1.37124436935130      0.16426229422532     -1.23623364699602
  O   -2.45185338442358      0.70691092987323     -1.03892460664858
  O   -0.68068900773633      0.23780568864868     -2.24521891555982
