16
Coordinates from ORCA-job run
  C   0.34462404472481      0.02123992153215      0.58995227742780
  C   -0.33435505256530     -0.75022357664985     -0.56507766274043
  Br  0.71763461679089     -1.27421287006393      2.03450617978097
  H   0.24378837035772     -1.64645991922713     -0.79577348321363
  C   1.69706839810754      0.54847474248704      0.11745077800704
  H   1.54624207202987      1.30748478237404     -0.65495143399580
  H   2.21583697306448      1.00807012380512      0.96065031563885
  H   2.33094065519072     -0.24874402930635     -0.27747692411044
  N   -0.56720504716830      0.99606381964381      1.11005368104423
  H   -0.10661079165361      1.59513818577048      1.78377451600485
  H   -0.97605728670451      1.55987393145287      0.37247499001840
  C   -0.45665652741328      0.10249258409272     -1.74451293070477
  N   -0.50847117827605      0.80709728707411     -2.68300842615081
  N   -1.71813838883604     -1.22654934464860     -0.17813247029289
  O   -2.63592153275979     -0.42668364910042     -0.31575341722457
  O   -1.79171932488912     -2.37306198923606      0.24582401051121
