16
Coordinates from ORCA-job run
  C   0.27705155287916      0.07119759872556      0.68404042519006
  C   -0.83427159913591     -0.65643661341699     -0.09724894044414
  Br  0.62695834436895     -1.12899420194313      2.20487453478753
  H   -1.64704398689022     -0.88694387487514      0.59346773303181
  C   1.58379644234255      0.24101164587929     -0.07607469753135
  H   2.31980277768282      0.70637532749075      0.58185021548247
  H   1.41989970752830      0.88925610549031     -0.93814065684695
  H   1.98188687112923     -0.71577357944765     -0.41750851668116
  N   -0.31539518642879      1.27969571235383      1.22579981815781
  H   -0.25175572009723      2.01373971169761      0.52783672341689
  H   0.19368985706287      1.57598401411878      2.04935257419311
  C   -0.38175014295488     -1.86406332923785     -0.77929683786667
  N   -0.00072255178659     -2.82569802052611     -1.33597244640540
  N   -1.49158007738599      0.22922508798124     -1.15069543837593
  O   -2.59935508091677     -0.13927713956145     -1.51471797236702
  O   -0.88021120739747      1.21170155527095     -1.55756651774105
