16
Coordinates from ORCA-job run
  C   0.31101913100772      0.06638930207218      0.72195954829887
  C   -0.80241741384116     -0.66783193601651     -0.08970552687099
  Br  0.64819250597995     -1.17572382596304      2.22795846294249
  H   -1.64871642327517     -0.87450469018538      0.56766267132290
  C   1.59869368913336      0.23670674279766     -0.06026155147656
  H   1.98319959254409     -0.72112824708925     -0.40839429596646
  H   2.33858872479832      0.70509676216612      0.58888435661462
  H   1.42602127544265      0.87661574666180     -0.92989412769091
  N   -0.10957355569501      1.31548823736425      1.25876048700831
  H   -0.02274495216919      2.06614316405757      0.58599481394956
  H   -1.04200137360438      1.29746430241535      1.65062826976685
  C   -0.34657576382576     -1.88530943846780     -0.74303973959578
  N   0.02138390197066     -2.87146461042716     -1.26446902326866
  N   -1.33056901225085      0.29297889056268     -1.12879189416855
  O   -2.32291506275142      0.93774054632797     -0.79991849218547
  O   -0.70158526346379      0.40233905372357     -2.17637395868024
