16
Coordinates from ORCA-job run
  C   0.34295775297309      0.17898148633027      0.50523331871688
  C   -0.33408217261672     -0.70902341477597     -0.55320773744728
  Br  0.54651563712329     -1.05751168893901      2.12176626848004
  H   0.30263589875223     -1.56871564821070     -0.76684571218435
  C   1.75506407194246      0.51616531849604      0.05780290029692
  H   2.26297262571459      1.07807013558233      0.84398782816881
  H   2.33494735763774     -0.38519185116522     -0.14087351329671
  H   1.70688051362755      1.13675986997130     -0.84075200978915
  N   -0.39189995111568      1.34172528618156      0.76359653995515
  H   0.07596856792347      1.95642321952949      1.41559281224119
  H   -1.34768092953274      1.16814443666518      1.04377828704909
  C   -0.59833490599134      0.04897395579343     -1.77390912202366
  N   -0.77566951819344      0.64785396875661     -2.76860618626372
  N   -1.64192040146935     -1.30623525369651     -0.07820735627002
  O   -2.48733529200905     -0.52470561414681      0.34603673828235
  O   -1.75101925476611     -2.52071420637201     -0.17539305591551
