16
Coordinates from ORCA-job run
  C   0.34763468992687      0.16334026147321      0.50756749529570
  C   -0.33497338021202     -0.69071370504766     -0.57490777428450
  Br  0.57939041705609     -1.12770092097071      2.07630210455944
  H   0.30530728452043     -1.53698356485661     -0.82771114603314
  C   1.75187331383271      0.52780992069539      0.05650946536573
  H   2.33699604852566     -0.36143766874606     -0.17861674159651
  H   2.26364257632034      1.06682219624645      0.85611175007918
  H   1.68930498290526      1.17759562142309     -0.82034236015219
  N   -0.39314024706799      1.31022606290897      0.81580598091247
  H   0.07680278697647      1.90401173377948      1.48542906257100
  H   -1.34468863398917      1.11916621647086      1.09891701628740
  C   -0.61907150826069      0.10987746827853     -1.76369601924194
  N   -0.81377047030539      0.73488998863949     -2.73884598963869
  N   -1.63222736192589     -1.31463496060141     -0.10654395117831
  O   -1.72984935116559     -2.52714679562392     -0.23653871912770
  O   -2.48123114713710     -0.55512185406911      0.34955982618205
