16
Coordinates from ORCA-job run
  C   0.13534492390641      0.39440249684740      0.48105969785238
  C   -0.65544607096299     -0.19805721871684     -0.71001242083763
  Br  -0.83447038303411      0.05479408000334      2.14128824161489
  H   -0.13387154063168      0.10970909502651     -1.62121403647978
  C   1.52662190012842     -0.21140327011572      0.59936675517506
  H   1.50380408553476     -1.27404217165435      0.84006716249729
  H   2.06203124816113     -0.08482743306537     -0.34734172686415
  H   2.07069057319223      0.31119356839933      1.38787806900149
  N   0.11426538370506      1.82823329357873      0.24519105079426
  H   0.88875508834366      2.08157307430955     -0.36095151952920
  H   0.21207763246243      2.33564147205750      1.11530293867600
  C   -2.03774854602844      0.25449847562716     -0.75546889324098
  N   -3.15328145694730      0.60968120375705     -0.84216042894114
  N   -0.59624881841199     -1.70496539433976     -0.72487193730980
  O   -1.46072190846924     -2.31846687453463     -0.11132470432031
  O   0.35719788905162     -2.18696439717991     -1.33280824808837
