16
Coordinates from ORCA-job run
  C   0.39767719778049      0.09489825155307      0.48791611158450
  C   -0.41672890095484     -0.61232196797225     -0.60907024386143
  Br  0.69826337683739     -1.36275203359250      1.89082425054910
  H   0.15624110234897     -1.45305564795155     -1.00260668031196
  C   1.77467978343366      0.44693345596823     -0.04866970839018
  H   2.29164137723341     -0.43539717013095     -0.42611807091703
  H   2.38000885901036      0.87607168079487      0.75201375225868
  H   1.66953030058775      1.18888399061719     -0.84443898865528
  N   -0.25575087358541      1.23200590668142      0.97629027834022
  H   0.29799369839273      1.73207756158990      1.65831317933199
  H   -1.18897173310437      1.05186830193614      1.32099065743299
  C   -0.76136653610895      0.31926329277160     -1.68066387757951
  N   -1.00840599581950      1.05090366136585     -2.56563367003823
  N   -1.69892145584962     -1.22828431460358     -0.09107306306165
  O   -1.86826663580880     -2.41516353718362     -0.33448583707950
  O   -2.46662356439328     -0.48693143184380      0.51441191039728
