16
Coordinates from ORCA-job run
  C   0.28749946751855      0.01846953562178      0.70880797895318
  C   -0.72775848977768     -0.76992139589927     -0.15354874898353
  Br  1.11402154192778     -1.32844143549713      1.88594418375592
  H   -1.55630040849899     -1.06990796817718      0.49641245657295
  C   1.38812716819919      0.63652707026482     -0.14305922455228
  H   1.88898508144986     -0.10703903566745     -0.76654622557838
  H   0.95858293499290      1.41447163499203     -0.78106245657368
  H   2.13333729767478      1.10073608428764      0.50472900751028
  N   -0.43245643721074      0.90973230276382      1.58761194634418
  H   -0.86860926693961      1.64230349935549      1.04078007393647
  H   0.20944436769284      1.32367927302816      2.25319947305706
  C   -0.14407432675903     -1.92502786673710     -0.82470396506729
  N   0.32946667313793     -2.85573515315431     -1.36228714088659
  N   -1.36107413301453      0.12100012365741     -1.22815948492979
  O   -1.68636065549162      1.25191762238089     -0.88041171207314
  O   -1.53283081490164     -0.36376429121959     -2.33770616148536
