16
Coordinates from ORCA-job run
  C   0.29537192911919      0.13359160323823      0.71923479628308
  C   -0.72763582014818     -0.75167087066642     -0.06074165009520
  Br  0.74543401512275     -0.99079540379428      2.28597144572405
  H   -1.55456865402353     -1.01245326648631      0.60197573756648
  C   1.56514620397188      0.39999172272472     -0.06530426847629
  H   2.05051639371464     -0.52788896040060     -0.36500940778118
  H   1.33424248532560      0.97579134734209     -0.96570201645302
  H   2.24601950811975      0.97446995363888      0.56279326241238
  N   -0.25839655578536      1.35644393176737      1.19263437156767
  H   -1.18541149469329      1.25770992674291      1.58566616844866
  H   -0.25021219403163      2.07710135287420      0.48223065615514
  C   -0.14024706399209     -1.94534478052979     -0.64966952133855
  N   0.33830588447675     -2.90981289040394     -1.11922096265643
  N   -1.34176476936730      0.09617109538625     -1.14935579670524
  O   -0.71849869213240      0.21574784468376     -2.19936078618808
  O   -2.39830117567677      0.65094739388293     -0.85814202846348
