16
Coordinates from ORCA-job run
  C   0.36825983579525      0.05103803245269      0.69549891169376
  C   -0.72571630053429     -0.75252901018999     -0.07625843444963
  Br  0.98853450504851     -1.24684887312599      2.05755761873419
  H   -1.47681782936661     -1.10740826960941      0.63155932696244
  C   1.54710360752842      0.43388160351402     -0.17779458074720
  H   2.00283501831274     -0.44165522862656     -0.63836428687612
  H   1.21993354325301      1.11095603530820     -0.97162805507832
  H   2.28761388019104      0.93917875491563      0.44224544401721
  N   -0.13992016748135      1.19663047478854      1.36942688179038
  H   -0.20668482749200      1.99970306596919      0.75757815442450
  H   -1.01990552720798      1.03534249810968      1.84128767433054
  C   -0.19692194619683     -1.85483503239064     -0.86505476181181
  N   0.23421187245093     -2.74594257072154     -1.49724163158097
  N   -1.45582544620591      0.20967335066092     -0.98324569530927
  O   -0.94653988480095      0.46749798773718     -2.06929312983938
  O   -2.47916033329398      0.70531718120809     -0.51827343626030
