16
Coordinates from ORCA-job run
  C   0.25794751114845      0.37400909669740      0.40552927913255
  C   -0.62951954190040     -0.26198129425942     -0.68971139094906
  Br  -0.56712585647277     -0.08424562444196      2.18404496093595
  H   -0.10905438786184     -0.11347760027000     -1.64018301366162
  C   1.67436856319902     -0.17141690431754      0.41283709753413
  H   2.13034272390150      0.00011797135821     -0.56559213473942
  H   2.25221610372673      0.35809943704664      1.17322385099793
  H   1.70126115646067     -1.23363531666598      0.64071783791809
  N   0.27143372891820      1.76780070673756      0.14292597178347
  H   0.94409815435022      2.24357960636663      0.73093474827952
  H   -0.63746440200580      2.19953552256813      0.26522988515493
  C   -1.94715169860940      0.35737649993088     -0.74457308205976
  N   -2.97173550760371      0.92804868200382     -0.80630102562624
  N   -0.76782036018513     -1.75754748034726     -0.53590829194158
  O   0.21513970343600     -2.40526220726708     -0.88514935336369
  O   -1.81693589050173     -2.20000109514002     -0.08702533939520
