16
Coordinates from ORCA-job run
  C   0.25704963511068      0.37088228037344      0.51386188391874
  C   -0.62340938406103     -0.24314814088193     -0.61826381376066
  Br  -0.57661446340435     -0.08614485326933      2.22763618663633
  H   -0.10757361924977     -0.04738496640237     -1.56386117649089
  C   1.67472749290504     -0.17024800170579      0.48606455016052
  H   2.24715317698059      0.34794957546800      1.25512575274411
  H   1.71002730402239     -1.24202004955822      0.66695844944180
  H   2.12707884099661      0.02779312904779     -0.49166123006008
  N   0.29372754858540      1.80367072408337      0.42485930971676
  H   -0.62869958132657      2.22246496968720      0.43479819150407
  H   0.81037182922773      2.10673850177653     -0.39298654337741
  C   -1.95165264386574      0.35349302114445     -0.65173254859420
  N   -2.99237420094883      0.89374645013786     -0.71898860532342
  N   -0.73325353319067     -1.74759747672002     -0.54345415534310
  O   -1.74700984847411     -2.22958724109385     -0.05463385371636
  O   0.24045144669261     -2.36060792208712     -0.97372239745622
