16
Coordinates from ORCA-job run
  C   0.23485174979181      0.37865885113481      0.41519591456843
  C   -0.59882194699369     -0.27637206102145     -0.71077018980137
  Br  -0.63638956748682     -0.10589967871608      2.16380544818029
  H   -0.04954430632471     -0.11338071851752     -1.64244064332571
  C   1.66399490202923     -0.12994337565371      0.46764480744668
  H   2.14742741159105      0.05817898305229     -0.49441791448723
  H   2.20285943041879      0.41044185284336      1.24883353337552
  H   1.71082876640996     -1.19219930846402      0.69197925038506
  N   0.22096868996028      1.77336695660962      0.15594776762567
  H   -0.70224899894947      2.18092066486619      0.25136632591522
  H   0.86192716184202      2.26408206801186      0.76682400376446
  C   -1.92841488598021      0.31103776108967     -0.81001166798228
  N   -2.96398746672901      0.85665707741437     -0.90574507258321
  N   -0.70655142140888     -1.77528903119346     -0.56438257205303
  O   -1.75917110191935     -2.24340079138005     -0.15084139471419
  O   0.30227158374899     -2.39885925007587     -0.88198759631429
