16
Coordinates from ORCA-job run
  C   0.25584446712151      0.09287168463082      0.71429681948889
  C   -0.68717257144258     -0.81079263430965     -0.11595696826047
  Br  1.08050250868151     -1.11144469860183      2.03805201809425
  H   -1.52808475629759     -1.09422806985833      0.52555220329878
  C   1.36891813665164      0.68291043774932     -0.14119304081603
  H   2.06382050344981      1.23398650140663      0.49443433566548
  H   0.93832170018311      1.38267115204850     -0.86333930259774
  H   1.92795706697941     -0.08917850834573     -0.67410916425147
  N   -0.53826305104931      1.02377632410260      1.48148167943859
  H   -0.97162747742688      1.69184811445360      0.85518754042797
  H   0.05464004832276      1.51550418989028      2.13966420529061
  C   -0.02650976278541     -1.98982139994344     -0.66262623945105
  N   0.51127893571607     -2.93918856527753     -1.09766591556711
  N   -1.31692718012993     -0.04739424702082     -1.28687459036933
  O   -1.67521447064106      1.10461025653389     -1.06328279401382
  O   -1.45648409733306     -0.64813053745833     -2.34262078637754
