16
Coordinates from ORCA-job run
  C   0.43923804051070      0.06856420531320      0.65176186523112
  C   -0.52321275594446     -0.90237656474249     -0.10316709951370
  Br  1.54108608578857     -1.16382751315107      1.74231065855516
  H   -1.05685857891961     -1.51673349172467      0.62398093529254
  C   1.35436937332445      0.83751845684462     -0.28113496480410
  H   2.02565624938943      1.45034125403400      0.32060559018157
  H   0.76348978214358      1.48524710272929     -0.93467168372356
  H   1.94397995741243      0.16587507223690     -0.90400426279741
  N   -0.23280468836205      0.96250674352300      1.53201099776353
  H   -0.58452684096482      1.77906024830672      1.04895894161787
  H   -0.96875817589099      0.52567320001047      2.07123437545656
  C   0.14231520375314     -1.73407281139090     -1.09423783065866
  N   0.68462053622942     -2.40602170703542     -1.89054836210605
  N   -1.58721064758819     -0.06988499153018     -0.77873841932401
  O   -2.62431502734123      0.08670691750341     -0.13943660084814
  O   -1.31506851354036      0.43142387907310     -1.86492414032274
