16
Coordinates from ORCA-job run
  C   0.10376389732393      0.41481009097978      0.47197257251002
  C   -0.61847475772740     -0.24037334209313     -0.72917999863829
  Br  -0.92839944276024      0.10586764080842      2.10047055348577
  H   -0.06642168514226      0.04787807983979     -1.62897584912582
  C   1.50461793165718     -0.14507674026773      0.67271273984489
  H   1.50189663016439     -1.19873907369374      0.95101748016665
  H   1.99755164372240      0.42147009729033      1.46438328828569
  H   2.07801421271043     -0.03592495106252     -0.25361032447679
  N   0.05104866586734      1.83855123595726      0.18600153443871
  H   0.82515539125439      2.08746137394978     -0.42303700429198
  H   0.13324527068804      2.37676213070800      1.03959856283732
  C   -2.00865284272425      0.17223423058028     -0.85061761976020
  N   -3.13183212012065      0.48139796922372     -0.99584966399190
  N   -0.51966231687899     -1.74514483963964     -0.68484521911193
  O   -1.39739938271923     -2.35963828423993     -0.09181217516162
  O   0.47454890468493     -2.22153561834067     -1.22822887701054
