16
Coordinates from ORCA-job run
  C   0.21172591031495      0.37798219315766      0.52725973889398
  C   -0.57960629934351     -0.27063525555313     -0.65102531618396
  Br  -0.67630169684681     -0.14226788913652      2.19505967916692
  H   -0.03005843188820     -0.03809927898040     -1.56913682697727
  C   1.65626113444666     -0.08650216997845      0.56307954772930
  H   1.74042143768029     -1.15684320958338      0.73645603629700
  H   2.16249539298540      0.45322733445626      1.36316917699025
  H   2.14338678812502      0.14627357663816     -0.39007507010877
  N   0.17560284565566      1.81151300787937      0.45185021532486
  H   -0.76752101537753      2.18021930113618      0.41924556288830
  H   0.71449057494746      2.15000162708232     -0.33743992028690
  C   -1.93432342268400      0.25631044701022     -0.74257013776275
  N   -2.99435510771124      0.75432186696011     -0.83144628508871
  N   -0.61259210312915     -1.77949941921861     -0.59335304072669
  O   -1.62347043564747     -2.31917891775589     -0.16213786190977
  O   0.41284442847248     -2.33582321411388     -0.97793549824578
