16
Coordinates from ORCA-job run
  C   0.37883042332882      0.09903435007581      0.59230296978574
  C   -0.32202838732690     -0.70918205841414     -0.54546807933244
  Br  0.57817162852020     -1.17843339963834      2.08225051149579
  H   0.30177973971795     -1.54937610447255     -0.85524679300852
  C   1.76627241101480      0.49531276823333      0.11357363096677
  H   2.28344797259624      1.00082261319019      0.92911116806957
  H   1.68671047278633      1.18457550702535     -0.73330822703152
  H   2.34764735066569     -0.37566629467703     -0.19049535178005
  N   -0.31338384595053      1.24752832877507      1.07102477522062
  H   -0.23037920278377      2.01921881222531      0.41970070343109
  H   -1.28959765731016      1.05962556571647      1.25959559011898
  C   -0.59941408197088      0.18267816277723     -1.66558410329567
  N   -0.77708521856670      0.94352964877991     -2.54307799024884
  N   -1.62202874534632     -1.32434769675722     -0.09165816295639
  O   -2.49334238698566     -0.54975320838256      0.29381904330471
  O   -1.69560047238911     -2.54556699445684     -0.13553968473985
