16
Coordinates from ORCA-job run
  C   0.36231546048326      0.17341200946403      0.49392973985479
  C   -0.35962398801937     -0.70367401259051     -0.54385305679590
  Br  0.61137549076442     -1.06920778017979      2.09779110551905
  H   0.26051424708553     -1.56848439566840     -0.78355368861718
  C   1.76072195966622      0.50006808122039     -0.00214721309540
  H   2.30097163113917      1.05460383864640      0.76741260873559
  H   2.32534604914584     -0.40555990389253     -0.22398856660691
  H   1.68646598228784      1.12388780956936     -0.89654632171309
  N   -0.35258055405322      1.34214852149552      0.78123058068445
  H   0.14347634508863      1.95011458475200      1.41854443663084
  H   -1.29988293624335      1.17669636048435      1.09341711058321
  C   -0.65974924482541      0.06258715833001     -1.75107561745916
  N   -0.86898780314371      0.65962555624426     -2.74066631256367
  N   -1.65501598859925     -1.29028157501125     -0.02455332656117
  O   -1.77532208229073     -2.50452565754678     -0.11331639396277
  O   -2.48002456848587     -0.50241059531704      0.42737491536732
