16
Coordinates from ORCA-job run
  C   0.38417819043703      0.00444521073528      0.59202044791311
  C   -0.49380436602733     -0.87704949077237     -0.32117015332166
  Br  1.67024476664652     -1.35076309235540      1.40340201061264
  H   -0.93989387323976     -1.68507842592075      0.26171686789819
  C   1.23211141175878      1.02036618292468     -0.14569171005077
  H   0.57916270694526      1.74005170835572     -0.64198331476324
  H   1.87137926783871      0.54016924373469     -0.88519042893993
  H   1.87026262379706      1.54511174277103      0.56822676632081
  N   -0.44660386131565      0.62580563488033      1.54195608010149
  H   0.06467773654013      1.26036014504590      2.14082510027904
  H   -0.98315475741221     -0.02391286464216      2.10334847492682
  C   0.22845776846557     -1.41335494131003     -1.46539556819260
  N   0.80165255222162     -1.85313069429256     -2.39134366573020
  N   -1.66518847607788     -0.04796660617147     -0.81206469865897
  O   -2.73026063278072     -0.24127386739894     -0.23863527875572
  O   -1.44422105779714      0.75522011441604     -1.71002092963902
