16
Coordinates from ORCA-job run
  C   0.23055499730381      0.41825321968636      0.37735008559791
  C   -0.59238737060965     -0.34626100671971     -0.68556422378348
  Br  -0.65399147119199      0.10431359404065      2.15838608206616
  H   -0.03632841618960     -0.27339796834908     -1.62462468006735
  C   1.66032019328498     -0.07828311076505      0.49123674957092
  H   2.19045339399671      0.53677403117677      1.22138205168544
  H   2.15192159582148      0.01812504345003     -0.48016837688297
  H   1.70776214242389     -1.11375368030187      0.81746753086740
  N   0.21573083978047      1.78100079384282     -0.01676774980077
  H   -0.70934022710530      2.19285078720096      0.03072497554399
  H   0.84974224648839      2.33077292712486      0.54947381112405
  C   -1.92270287631277      0.22412261053528     -0.85201434383040
  N   -2.95937215892553      0.75362658519602     -1.00765744636912
  N   -0.69712962381619     -1.82403601406273     -0.39381591343541
  O   0.31644112339802     -2.47178326368414     -0.64043999890503
  O   -1.75167438834672     -2.25332454837117      0.05503144661865
