16
Coordinates from ORCA-job run
  C   0.40843744106671     -0.11259252011922      0.60645090108715
  C   -0.47797223395280     -0.91284619251183     -0.37799119610237
  Br  1.67098393290589     -1.44206184988508      1.30985787237691
  H   -0.89941037355451     -1.76573236220322      0.15404748560145
  C   1.21293169042747      1.00176247350251     -0.04404956304952
  H   1.84581368705676      0.63256921105032     -0.85219761297046
  H   0.53385661369551      1.75468739209270     -0.45016025271391
  H   1.84708053708237      1.46721650954431      0.71254444532678
  N   -0.44705612338229      0.28445767766912      1.70683322419668
  H   -0.97335247212310      1.11427344684280      1.44661119094963
  H   0.11679531847561      0.51873796705820      2.51530169161231
  C   0.22635346776174     -1.32394154867226     -1.58460175915476
  N   0.79937020161113     -1.66254901190412     -2.55220263180514
  N   -1.66774492654128     -0.06306112039860     -0.77600935904549
  O   -1.44930499611626      0.88216889032056     -1.52983725354453
  O   -2.74678176441293     -0.37208896238621     -0.28359718276472
