16
Coordinates from ORCA-job run
  C   0.23409070396011      0.40149952266694      0.49976533003805
  C   -0.60216147543309     -0.29378290678482     -0.61946794235588
  Br  -0.61595954946317     -0.00958017741867      2.21718073710187
  H   -0.07283417583370     -0.12496670815418     -1.56282181669336
  C   1.66991696182542     -0.08993084329535      0.52148098843279
  H   2.13470377117555      0.08387872224180     -0.45505827254009
  H   1.73841227643530     -1.15144618004194      0.74753209596367
  H   2.20859196025555      0.47932176670071      1.27872851589824
  N   0.22308436647178      1.82906104501721      0.34720000747755
  H   -0.71321116215632      2.21498693358953      0.31938747469905
  H   0.74688450384537      2.11382439223424     -0.47265842243105
  C   -1.94783354613564      0.25661071442850     -0.70487957115761
  N   -3.00003975723780      0.77093510233571     -0.79374089503263
  N   -0.66490038032132     -1.79620412233788     -0.47701313460462
  O   0.33771725735403     -2.39566116403260     -0.85684003235813
  O   -1.67446175474207     -2.28854609714922      0.01020493756218
