16
Coordinates from ORCA-job run
  C   0.34974393963787      0.16742063414753      0.50527891827291
  C   -0.33595234342485     -0.69453047145142     -0.56892574843341
  Br  0.60159284385361     -1.11738022544549      2.07553578424515
  H   0.30666220611743     -1.53932944817838     -0.82100599864631
  C   1.74796783410766      0.53932719582930      0.04171110759243
  H   2.26523730862444      1.07888907166018      0.83734521260231
  H   2.33478438148872     -0.34665395367681     -0.20120488541750
  H   1.67349083665246      1.19083628255015     -0.83275664946042
  N   -0.39551030293159      1.31114422822175      0.81590965084097
  H   0.07719328068381      1.90904690337048      1.47995848749514
  H   -1.34292107153297      1.11409312372647      1.10871585313761
  C   -0.62905521900556      0.09721268379091     -1.76169469676017
  N   -0.82875161801302      0.71144163646976     -2.74260969580963
  N   -1.62771362346015     -1.32207034333952     -0.09040129635727
  O   -2.47519297271703     -0.56551370724724      0.37349492127759
  O   -1.72257548008082     -2.53493361042765     -0.21935096457941
