16
Coordinates from ORCA-job run
  C   0.38166004381037      0.09424383965207      0.59090306764996
  C   -0.33709670400151     -0.70629120166344     -0.54097034997907
  Br  0.56095508054135     -1.18005842073402      2.08669706668599
  H   0.26926765238343     -1.55984916136047     -0.84882008918352
  C   1.77532788947245      0.46208262303932      0.10725102635417
  H   1.70647299697160      1.15059178200608     -0.74147617557032
  H   2.30457332470718      0.95961166196474      0.92008564198541
  H   2.33899438993523     -0.42071066411334     -0.19665493775740
  N   -0.28750799735999      1.25788460258155      1.06458629962339
  H   -0.18406300647540      2.02664019662480      0.41318912395258
  H   -1.26811824579378      1.09248896422841      1.25045132789305
  C   -0.59962605420097      0.18473064798440     -1.66528953574168
  N   -0.76483854597619      0.94403141970498     -2.54665531775539
  N   -1.64771164592406     -1.29297016588122     -0.08042240159279
  O   -1.74423779199310     -2.51297390105823     -0.11206011627603
  O   -2.50405138609660     -0.49845222297563      0.29818536971163
