16
Coordinates from ORCA-job run
  C   0.38787983259614      0.09690987013494      0.58662642761854
  C   -0.32643833948960     -0.70983268081177     -0.54418749865109
  Br  0.61956955255746     -1.18692103965450      2.06704973252622
  H   0.29527653439335     -1.54676641467861     -0.86634536918728
  C   1.76483291350055      0.50439648899312      0.08798402308976
  H   2.29335646259086      1.00725171995650      0.89787911150881
  H   1.66729282014642      1.19862908642768     -0.75289009986011
  H   2.34573923555231     -0.36115269924294     -0.23189772211319
  N   -0.30435206274204      1.23793589638627      1.08185835380505
  H   -1.27768339600898      1.04506655607332      1.28074646373225
  H   -0.23224856956094      2.01524103223183      0.43592260204249
  C   -0.62386185926452      0.18629214109599     -1.65551582983207
  N   -0.81749720765403      0.95109148691141     -2.52620097602305
  N   -1.61761619225863     -1.32979026018804     -0.07228229263839
  O   -1.68029289700606     -2.55229700126408     -0.09637568440990
  O   -2.49295682735231     -0.55705418237111      0.30762875839195
