12

C	0.0	0.0	0.0
C	-0.283521	-0.144774	-1.537149
Br	1.943274	0.0	0.0
H	0.411088	-0.917856	-1.886563
H	-0.379644	0.938169	0.398664
C	-0.418657	-1.145505	0.801772
N	-0.500445	-2.07926	1.51338
C	0.120117	1.10806	-2.192482
N	0.436507	2.10922	-2.718611
C	-1.584416	-0.541043	-2.128081
N	-2.169054	-0.930412	-3.08125
Br	-3.122285	0.0	0.0
