12

C	0.0	0.0	0.0
C	-0.557578	0.021434	-1.434408
Br	1.940051	0.0	0.0
H	-1.671873	0.003422	-1.268569
H	-0.354763	0.889332	0.522506
C	-0.411775	-1.202238	0.723128
N	-0.59153	-2.177994	1.352948
C	-0.148212	-1.145645	-2.208225
N	0.160376	-2.08807	-2.838079
C	-0.192042	1.256884	-2.119615
N	0.07527	2.259282	-2.671182
Br	-3.464388	0.0	0.0
