12

C	0.0	0.0	0.0
C	-0.446511	0.147209	-1.502242
Br	1.933845	0.0	0.0
H	0.47398	0.161124	-2.098961
H	-0.35677	0.841399	0.589376
C	-0.40595	-1.263342	0.610783
N	-0.509412	-2.321941	1.112699
C	-1.071354	1.449273	-1.748701
N	-1.336266	2.556429	-2.041659
C	-1.211484	-0.981938	-2.042904
N	-1.569969	-1.909981	-2.670494
Br	-3.154034	0.0	0.0
