12

C	0.0	0.0	0.0
C	-0.433058	0.88718	-1.228683
Br	1.93626	0.0	0.0
H	0.493652	1.207891	-1.719588
H	-0.359048	0.432731	0.930829
C	-0.405107	-1.397641	-0.108943
N	-0.501052	-2.566634	-0.194957
C	-1.078966	2.13098	-0.801502
N	-1.372928	3.232929	-0.519463
C	-1.166536	0.175446	-2.279916
N	-1.500996	-0.342037	-3.280413
Br	-3.131616	0.0	0.0
