15
Coordinates from ORCA-job run
  C   1.00026092575185     -0.59981495149379      0.06818028250633
  C   -0.38718926847986     -0.30613142359191     -0.50262239438102
  Cl  0.97951467790636     -2.29570381616783      0.64742455870798
  H   -0.67102928336841     -1.11586622933290     -1.17682458749538
  H   1.72669980420438     -0.59463408461310     -0.75287941162392
  N   1.32622307999356      0.25692165272249      1.17984826874480
  H   1.44546227753646      1.19700320086205      0.81908691385896
  H   2.20139803896999     -0.04074856461371      1.59387356021645
  N   -0.33032499874763      0.90657164747507     -1.39094930901044
  O   0.55459095508937      1.73987998917225     -1.18706280090447
  O   -1.20544719339555      0.99872894155876     -2.24500343122896
  C   -1.46385508589382     -0.07274659384896      0.54240851319832
  H   -2.43004618476896      0.05331636410735      0.05218048955919
  H   -1.51185755062103     -0.93290559615382      1.21001080455315
  H   -1.23340019417672      0.80712946391804      1.14132854329900
