15
Coordinates from ORCA-job run
  C   0.79344518424331     -0.29063982069003      0.70963635159885
  C   -0.28605554263902     -0.21264829195454     -0.37009870481188
  Cl  0.25090099214667      0.50089221084050      2.24029433649902
  H   0.07008866840993     -0.82626182033005     -1.20202071370191
  H   0.86810090363895     -1.34883646762155      0.98711215575028
  N   2.00919242796118      0.30585585356459      0.26871366833778
  H   2.81871974534107     -0.05665838846511      0.74826346721055
  H   2.12881944564279      0.29365959023157     -0.73366483422183
  N   -0.32259940979800      1.17703514938477     -0.93977689046938
  O   0.42336017047777      1.39207049674607     -1.89666988196119
  O   -1.06889041366785      1.99654619867879     -0.41621010024188
  C   -1.66558096663548     -0.64633135491410      0.07132172247889
  H   -2.34237008377352     -0.67074033090489     -0.78470737116423
  H   -2.06570362102886      0.03651425901503      0.81658708840570
  H   -1.61242750031894     -1.64945728358104      0.50021970629123
