15
Coordinates from ORCA-job run
  C   0.94461327217405      0.25004607895657      0.60562804031333
  C   -0.10486817991203      0.18136340596214     -0.50591134514706
  Cl  2.17225264940115      1.46422209737892      0.11601492408241
  H   0.38148111274906     -0.01534482913631     -1.46342788473341
  H   0.47214149393021      0.63684761665265      1.50952631166704
  N   1.59540298831536     -0.98779194509534      0.90726160149222
  H   1.91282289620492     -1.47049003946040      0.07677475278655
  H   1.01043459657568     -1.59108740528029      1.46815197979998
  N   -0.74374223126824      1.52724257372227     -0.66268321390968
  O   -0.74992327953064      2.02881475005126     -1.78292012864946
  O   -1.24169769991111      2.01537080530493      0.35021057581495
  C   -1.20529851517904     -0.82193051528745     -0.20642780122786
  H   -0.80217316577374     -1.83491205827836     -0.20402936337805
  H   -1.98140468578870     -0.76997025212305     -0.97265557050768
  H   -1.66004125198692     -0.61138028336754      0.76348712159671
