15
Coordinates from ORCA-job run
  C   1.02794120876538     -0.50337705874439      0.23427416861643
  C   -0.28341287370551     -0.35601623983445     -0.53771268462946
  Cl  1.07033912456646     -2.17584388671774      0.87811625312018
  H   -0.39699064826402     -1.20938561228807     -1.20816819910253
  H   1.86148729319214     -0.45757649636104     -0.47642352877729
  N   1.11636229235549      0.41264912863817      1.34245136807660
  H   1.94626198783760      0.21041040454183      1.88668084753643
  H   1.20101189159522      1.34900011485421      0.96294660559047
  N   -0.20326798221926      0.82764739653250     -1.46283804781425
  O   0.55935557269800      1.74964517032872     -1.16720662491909
  O   -0.94223487483129      0.80723235163764     -2.44122788027264
  C   -1.51481998351054     -0.18777122219391      0.33454537804102
  H   -2.40752137576852     -0.16289397363299     -0.29180898073359
  H   -1.58634462225981     -1.02847734830371      1.02445788095072
  H   -1.44716701045135      0.72675727154324      0.92191344431699
