15
Coordinates from ORCA-job run
  C   0.88635214475471      0.19962582100715      0.55572918533453
  C   -0.19473894152801      0.11103187999651     -0.51025517318156
  Cl  2.12943601751838      1.41864650291299     -0.01445189971689
  H   0.24878168734316     -0.14732772537615     -1.47393795782425
  H   0.46733021796783      0.63531136817487      1.46170392602229
  N   1.42294731812261     -1.08448824745724      0.82658709126523
  H   2.04890240191171     -1.05908592778158      1.62056185856432
  H   1.93085094911349     -1.44584745813524      0.02799059011019
  N   -0.78788935430550      1.47204766969757     -0.71450615472751
  O   -0.86473586728260      1.88770282567924     -1.86675228352843
  O   -1.19246217724959      2.05160452808402      0.29050311655013
  C   -1.31729407488799     -0.83597525552169     -0.12252926508115
  H   -0.93227872370422     -1.85066058029521     -0.04106825734777
  H   -2.10586078925587     -0.80865605040932     -0.87770090954843
  H   -1.73934080851811     -0.54292935057593      0.84012613310932
