15
Coordinates from ORCA-job run
  C   0.95574450312107      0.17817883115510      0.43463145248964
  C   -0.24692834131049      0.08698311488273     -0.49161039938583
  Cl  2.19221350499195      1.26773228026110     -0.36642345261516
  H   0.06383659730365     -0.26967732929795     -1.47565899879248
  H   0.67377075711260      0.70434469178617      1.34553651104838
  N   1.44465154750517     -1.11665979439478      0.74208800487582
  H   1.83052053560534     -1.56757447535168     -0.07892444392760
  H   2.16212397463104     -1.07716891849898      1.45377279953024
  N   -0.77837094645132      1.46694250814138     -0.73429779512314
  O   -1.02765448094186      2.14278976321618      0.26114097405500
  O   -0.96549370311831      1.80366348102175     -1.89975008067499
  C   -1.36983441305107     -0.75160422978001      0.09412664169545
  H   -1.03676763485733     -1.78055406857289      0.21549852336212
  H   -2.23716655478725     -0.72865250540192     -0.56924469207952
  H   -1.66064534575319     -0.35974334916620      1.07011495554206
