15
Coordinates from ORCA-job run
  C   0.94024195329322      0.23566188709395      0.46787543674265
  C   -0.18450656376223      0.15684796120990     -0.55406342409895
  Cl  2.17134597405115      1.38396937173266     -0.12065474289381
  H   0.23976477916632     -0.04354058659470     -1.53767557953448
  H   0.55316431970017      0.66575256961624      1.39685559137938
  N   1.54107422899008     -1.08017454613101      0.60192778922013
  H   2.49944341759290     -0.98726467329088      0.91443720353720
  H   1.03949261024839     -1.60154029824287      1.31240981778255
  N   -0.84160279140136      1.49704103571506     -0.65937436717593
  O   -0.94316024799369      1.99442666651481     -1.77743680908513
  O   -1.25816965756943      1.99054518839061      0.38782989602002
  C   -1.24276964749336     -0.86283868764519     -0.17241078766241
  H   -2.07208329438610     -0.82603259854949     -0.88157429616364
  H   -1.63312586473401     -0.65919726655110      0.82701759572958
  H   -0.81010921570205     -1.86265602326801     -0.20616332379715
