15
Coordinates from ORCA-job run
  C   0.97066309552069      0.23774951924224      0.56884337943372
  C   -0.11289699298049      0.16502606822443     -0.50915583671685
  Cl  2.22821729876743      1.38227577577546     -0.00421615514918
  H   0.33754468177502     -0.08861969007700     -1.47083446455240
  H   0.54009456202762      0.67843940714536      1.46901138546329
  N   1.58356359999164     -1.01142982453156      0.90293934677514
  H   0.98955895849895     -1.57128240595165      1.49847318081232
  H   1.86185329224313     -1.53591851612610      0.08373931230182
  N   -0.70575060199580      1.52682352226204     -0.70304851366119
  O   -0.72516533818631      1.98374340595101     -1.84213662616951
  O   -1.15562582331862      2.07354719886688      0.30240629003723
  C   -1.24046689543557     -0.78297273673557     -0.13851692788716
  H   -2.03759391653153     -0.72906047860021     -0.88272134503702
  H   -1.65659484457736     -0.51910180331218      0.83570059727256
  H   -0.87640107579880     -1.81021944213316     -0.10948362292277
