15
Coordinates from ORCA-job run
  C   1.04460899337478      0.13132510112323      0.23265124459296
  C   -0.26677652324390      0.07557688608487     -0.53703922274974
  Cl  2.29349086039872      0.86051430270831     -0.81110571769738
  H   -0.09423068469884     -0.39967650519419     -1.50243848761099
  H   0.93522872888357      0.81229390903237      1.08254666544944
  N   1.44364465040500     -1.22290128863899      0.57278621172493
  H   2.44457665540011     -1.25518701052148      0.72160965005161
  H   0.99891370208599     -1.48885695796248      1.44450536227798
  N   -0.71007791120674      1.47169823486538     -0.84392325038365
  O   -0.81801844752075      2.23866979852869      0.11190153693669
  O   -0.95914318675418      1.74416785929135     -2.01500299287878
  C   -1.37069859327193     -0.61239266145046      0.24626539412612
  H   -2.31411889928402     -0.54692811332470     -0.29931485484586
  H   -1.50308622452136     -0.14183024270200      1.22289263449689
  H   -1.12331312004645     -1.66647331183989      0.37166582650976
