21

C	0.0	0.0	0.0
C	-0.372846	0.339224	-1.467177
Cl	1.819384	0.0	0.0
H	0.312254	1.145662	-1.758874
C	-0.452467	1.089809	0.957144
H	-0.038689	0.912867	1.953058
H	-0.122001	2.07335	0.613901
H	-1.544026	1.079189	1.021596
C	-0.508438	-1.351665	0.462368
H	-0.235274	-1.518593	1.507366
H	-0.096895	-2.166621	-0.133729
H	-1.601024	-1.35932	0.384511
C	-1.798258	0.859745	-1.630929
H	-1.93179	1.838994	-1.167551
H	-2.56629	0.211225	-1.20551
H	-2.015285	0.97249	-2.698258
C	-0.136473	-0.837223	-2.414024
H	0.84524	-1.295182	-2.270967
H	-0.907893	-1.599735	-2.280479
H	-0.198295	-0.4893	-3.449137
Cl	-4.73789	0.0	0.0
