15

C	0.0	0.0	0.0
C	-0.258261	-0.130591	-1.511101
Cl	1.747853	0.0	0.0
H	0.357978	-0.953691	-1.865886
H	0.075401	0.804412	-1.953111
N	-0.422552	1.338686	0.574917
O	-0.319364	1.481829	1.783172
O	-0.680586	2.215781	-0.23555
N	-0.431585	-1.22091	0.796205
O	-0.69344	-1.118324	1.97826
O	-0.335511	-2.263327	0.160289
N	-1.603721	-0.395601	-2.111545
O	-1.977701	-1.561651	-2.153549
O	-2.138248	0.543196	-2.695739
F	-2.217111	0.0	0.0
