15

C	0.0	0.0	0.0
C	-0.228776	0.176929	-1.508902
Cl	1.780364	0.0	0.0
H	0.229451	-0.681872	-1.992224
H	0.281644	1.093188	-1.794323
N	-0.413971	1.204815	0.823024
O	-0.451126	2.252664	0.190766
O	-0.535137	1.087002	2.028286
N	-0.414979	-1.359404	0.524351
O	-0.513964	-2.227215	-0.332154
O	-0.471842	-1.528151	1.729844
N	-1.58427	0.292215	-2.129922
O	-2.054535	-0.729179	-2.620754
O	-2.025065	1.424778	-2.288511
F	-2.181211	0.0	0.0
