15

C	0.0	0.0	0.0
C	-0.517098	0.143119	-1.434969
Cl	1.770053	0.0	0.0
H	-1.619455	0.125296	-1.281196
H	-0.11735	-0.68656	-2.012936
N	-0.432145	1.163903	0.876515
O	-0.794639	2.165516	0.280092
O	-0.258989	1.059925	2.080657
N	-0.487281	-1.350699	0.532349
O	-0.450925	-2.246987	-0.303814
O	-0.748256	-1.478867	1.711167
N	-0.124094	1.382432	-2.161743
O	1.067434	1.680397	-2.262283
O	-1.035041	1.994707	-2.714913
F	-2.519949	0.0	0.0
