15

C	0.0	0.0	0.0
C	-0.486486	0.018401	-1.456203
Cl	1.761048	0.0	0.0
H	-1.583717	0.067995	-1.348935
H	-0.02813	0.873642	-1.947469
N	-0.485695	1.288322	0.663866
O	-0.694646	1.306216	1.860211
O	-0.493992	2.255482	-0.088292
N	-0.444422	-1.252304	0.738092
O	-0.77513	-2.192432	0.032168
O	-0.305707	-1.272361	1.951204
N	-0.132213	-1.168767	-2.290861
O	-1.045812	-1.63075	-2.970264
O	1.031739	-1.563882	-2.336262
F	-2.474269	0.0	0.0
