15

C	0.0	0.0	0.0
C	-0.460744	0.109169	-1.459574
Cl	1.79461	0.0	0.0
H	-0.048839	1.033134	-1.858713
H	-1.558172	0.093071	-1.373359
N	-0.419721	1.264346	0.740059
O	-0.301296	1.264946	1.954827
O	-0.712498	2.225918	0.045409
N	-0.468049	-1.283029	0.668579
O	-0.718056	-1.303579	1.856527
O	-0.42429	-2.247274	-0.085386
N	-0.002136	-0.968504	-2.384312
O	-0.869056	-1.700559	-2.856074
O	1.187202	-1.006881	-2.704113
F	-2.436561	0.0	0.0
