16

C	-0.489049	0.076665	-1.458314
C	0.0	0.0	0.0
F	0.0806	1.17199	-2.020329
H	1.096057	0.0	0.0
N	0.035123	-1.140759	-2.212725
O	0.918115	-0.967996	-3.036898
O	-0.520869	-2.202319	-1.939501
C	-1.9865	0.141399	-1.638628
H	-2.21798	0.163593	-2.708396
H	-2.470518	-0.719629	-1.182246
H	-2.352557	1.061983	-1.179997
C	-0.507153	-1.169015	0.714648
N	-0.908601	-2.083963	1.330587
C	-0.449995	1.212669	0.686844
N	-0.836568	2.183947	1.222137
Cl	3.132331	0.0	0.0
