16

C	-0.465947	-0.098478	-1.462722
C	0.0	0.0	0.0
F	-1.79733	-0.40082	-1.510865
H	1.095081	0.0	0.0
N	-0.325026	1.285917	-2.089953
O	0.817516	1.633877	-2.35914
O	-1.351497	1.933406	-2.260637
C	0.340002	-1.094555	-2.250423
H	0.14837	-2.090676	-1.846297
H	1.401402	-0.863445	-2.151315
H	0.031766	-1.069199	-3.297731
C	-0.431848	-1.21106	0.699143
N	-0.770657	-2.195256	1.242673
C	-0.52477	1.183498	0.675866
N	-0.945855	2.137341	1.216474
Cl	3.16148	0.0	0.0
