16

C	-0.478804	0.0293	-1.463542
C	0.0	0.0	0.0
F	0.036153	1.146255	-2.036403
H	1.096071	0.0	0.0
N	0.113227	-1.166091	-2.2024
O	-0.325329	-2.257904	-1.847155
O	0.910048	-0.950671	-3.10125
C	-1.974406	0.0081	-1.661743
H	-2.192625	0.030001	-2.731601
H	-2.401457	0.897792	-1.196491
H	-2.409349	-0.886238	-1.219772
C	-0.510849	-1.142669	0.752185
N	-0.911061	-2.034597	1.40297
C	-0.455954	1.234614	0.641924
N	-0.852435	2.221951	1.139847
Cl	3.132202	0.0	0.0
