16

C	-0.323418	-0.022336	-1.49297
C	0.0	0.0	0.0
F	0.122763	-1.207312	-1.999102
H	1.098333	0.0	0.0
N	-1.833104	-0.038918	-1.753744
O	-2.589594	0.209513	-0.818979
O	-2.167904	-0.286751	-2.907954
C	0.294405	1.127316	-2.240448
H	0.121405	0.984308	-3.307346
H	1.365222	1.121302	-2.020841
H	-0.139844	2.075469	-1.918184
C	-0.508974	-1.180693	0.688544
N	-0.912044	-2.137144	1.237082
C	-0.434145	1.237425	0.640182
N	-0.7289	2.256183	1.143862
Cl	3.156766	0.0	0.0
