16

C	-0.462955	-0.305419	-1.43466
C	0.0	0.0	0.0
F	-1.774788	-0.683317	-1.439524
H	1.106889	0.0	0.0
N	-0.386623	0.980402	-2.248776
O	0.686517	1.567841	-2.203874
O	-1.374247	1.296522	-2.901867
C	0.399073	-1.344039	-2.100897
H	0.069378	-1.479059	-3.133221
H	0.287283	-2.287589	-1.563057
H	1.443952	-1.031006	-2.054108
C	-0.424103	-1.105091	0.860799
N	-0.756046	-2.004832	1.538438
C	-0.536945	1.261516	0.50084
N	-0.98403	2.274929	0.89127
Cl	3.169451	0.0	0.0
