16

C	-0.464901	-0.22261	-1.448023
C	0.0	0.0	0.0
F	-1.796519	-0.525497	-1.476046
H	1.098725	0.0	0.0
N	-0.309603	1.091452	-2.208454
O	0.797452	1.609038	-2.144832
O	-1.2784	1.496484	-2.840813
C	0.344079	-1.280439	-2.150311
H	0.151056	-2.242119	-1.670556
H	1.405886	-1.041052	-2.063238
H	0.035688	-1.336229	-3.196624
C	-0.440351	-1.143634	0.799864
N	-0.791544	-2.074845	1.422733
C	-0.531392	1.239665	0.560828
N	-0.974848	2.235724	0.9978
Cl	3.170077	0.0	0.0
