16

C	-0.322325	0.060517	-1.500415
C	0.0	0.0	0.0
F	0.145686	-1.082809	-2.058868
H	1.09789	0.0	0.0
N	-1.834957	0.05153	-1.722754
O	-2.330411	-0.906142	-2.302265
O	-2.4364	1.033609	-1.297447
C	0.281856	1.262113	-2.176398
H	-0.149623	2.18205	-1.785023
H	0.096731	1.196191	-3.251383
H	1.356545	1.240259	-1.977663
C	-0.516001	-1.225738	0.601937
N	-0.948344	-2.212786	1.069372
C	-0.441728	1.178652	0.739219
N	-0.737991	2.109013	1.392535
Cl	3.147807	0.0	0.0
