17
Coordinates from ORCA-job run
  C   -0.78580433348944      0.07751721206381     -0.08262089861416
  C   0.61439442262059      0.36919689783053     -0.64971454040734
  F   -1.68017558430415      0.69135079486841     -0.99760844918087
  H   0.59492808481509      0.05886907840527     -1.69995421811435
  N   -0.92056956355595      0.62652145077258      1.21718814712227
  H   -0.82254513893561      1.63541502313770      1.19768822922033
  H   -1.82247562250162      0.39418206393534      1.61358906031622
  C   -1.12748964023651     -1.39720026643141     -0.08598625004035
  H   -0.54683666625779     -1.93803594080706      0.66002810926624
  H   -2.18953314949074     -1.51057561086779      0.14334181582484
  H   -0.95047066432842     -1.82587249367838     -1.07375991404304
  C   1.73391732704394     -0.35827316043396      0.09850464785772
  H   1.64230137535283     -1.43684769065868     -0.03584015048618
  H   1.68133922790715     -0.12728877257415      1.16243793640561
  H   2.70863536982480     -0.05120741884577     -0.28399781105636
  C   0.84216291039286      1.81696242187686     -0.62586466524196
  N   1.02722164514297      2.97428641140670     -0.55643104882860
