17
Coordinates from ORCA-job run
  C   -0.76677252767834      0.13244984176076     -0.11081049250780
  C   0.65038985974115      0.34735946452649     -0.67267381686349
  F   -1.62410680577125      0.85961022177096     -0.93437048413584
  H   0.68032386724809     -0.09192767972702     -1.67683167917391
  N   -0.86383852242006      0.71331863784186      1.21268021546511
  H   -0.89901753769503     -0.00425094716998      1.92485553934005
  H   -1.71056690919662      1.26451110743752      1.26641811218981
  C   -1.20944871462101     -1.31696820348873     -0.18478258431179
  H   -0.62030133158298     -1.94894710993401      0.48253511653364
  H   -1.12034794159085     -1.69737887954664     -1.20453301595991
  H   -2.25680367771910     -1.37342564090068      0.11830678980187
  C   1.72843286663983     -0.28674523023104      0.20842293730417
  H   1.68257065927990      0.13991409641598      1.21091092785496
  H   1.60018402163852     -1.36926737688040      0.26618700306655
  H   2.71864611492447     -0.08918996107701     -0.20475949267723
  C   0.89347113679293      1.78613639541468     -0.80299121130007
  N   1.11818544201034      2.93380126378726     -0.89956386462612
