17
Coordinates from ORCA-job run
  C   -0.69370649451515     -0.07749409660253      0.32462904971626
  C   0.82776426164033     -0.23259263555689      0.37535365940205
  Br  -1.33890924912307     -1.81173894778625      1.17458008649164
  H   1.16878664321740     -0.34498904658158      1.40171609869778
  N   -0.98821616121388      1.06346722013594      1.10182944775633
  H   -1.97267640249413      1.29454875861890      1.08143149691888
  H   -0.66987790954377      0.99923913668737      2.06083735362252
  C   -1.36345364182352      0.02291341994794     -1.03160181609230
  H   -0.99069945485135      0.90370352076606     -1.55550064043694
  H   -2.43921333542715      0.12691758704306     -0.87183387327265
  H   -1.18528220555059     -0.85828161479197     -1.63848344012649
  N   1.50005371079927      1.01437615261408     -0.14456876694457
  O   2.05059226001286      1.70618194482812      0.70565423738753
  O   1.42905188618043      1.23700624520371     -1.34732182295572
  N   1.39986722863183     -1.39980087623891     -0.36915020142017
  O   1.02465961683735     -1.59700581122719     -1.51868499785875
  O   2.24225924722313     -2.04645095705986      0.25011412911459
