17
Coordinates from ORCA-job run
  C   -0.67376651061814     -0.13812425403491      0.42555331913001
  C   0.85914293916857     -0.18882132143914      0.41706646642360
  Br  -1.21237605091747     -1.74024262489611      1.43259415563059
  H   1.23479168778573     -0.32050164976960      1.42891874624994
  N   -1.00379328559329      1.00806968673357      1.25652529396253
  H   -1.91059224800359      0.87433755666578      1.68619110655417
  H   -1.03932044957248      1.83525812719289      0.67012129166671
  C   -1.35941479285782     -0.19493785549932     -0.93086807303503
  H   -1.13197811342656     -1.11141089556675     -1.47368075431440
  H   -2.43785031449291     -0.14651115815352     -0.76909523316389
  H   -1.04924896077106      0.65849348328108     -1.53432201436556
  N   1.50479690003009      1.07299979467306     -0.10315937046950
  O   0.81845741165088      1.90528590069407     -0.68661408842500
  O   2.71064648950203      1.14178266823024      0.10514577156749
  N   1.42797610600201     -1.28541249662900     -0.43248862709851
  O   1.86936656171263     -2.26590473317507      0.15532785231752
  O   1.39516263040138     -1.10236022830726     -1.64721584263069
