17
Coordinates from ORCA-job run
  C   -0.71171711883877     -0.12703665930180      0.36221997641683
  C   0.81466568916426     -0.15607115501050      0.51017214060285
  Br  -1.33470828970784     -1.68469598555592      1.39002107445586
  H   1.08812443622242     -0.23411397427214      1.55963452948945
  N   -1.13453826027438      1.05425132650271      1.09665987607615
  H   -2.07733609657107      0.92764549861464      1.44284092995117
  H   -1.12204075292942      1.85004211486493      0.46745708601869
  C   -1.25650807344027     -0.26058622329205     -1.05147100599083
  H   -0.96706332940234     -1.19944809201553     -1.52164512310293
  H   -0.89493617972777      0.56611094561056     -1.66344793346563
  H   -2.34613667589357     -0.21957142402109     -1.00109472956892
  N   1.49715914698766      1.08854664232465     -0.00389979712654
  O   2.67418593632050      1.18707158614806      0.32325031340184
  O   0.86591361054975      1.87977267828141     -0.69650831058846
  N   1.47615050937780     -1.28361931674207     -0.22348879178727
  O   1.56647234714400     -1.15890991515524     -1.44263034283356
  O   1.86331310101904     -2.22938804698070      0.45293010805129
