17
Coordinates from ORCA-job run
  C   -0.74528037125668     -0.23203879496680     -0.01136256237761
  C   0.75206418572194      0.13369178805097      0.08542003726790
  Br  -0.94671461542103     -1.91944521434475     -0.98938370008645
  H   0.84199359170314      1.16619569003351      0.42733059683306
  N   -1.36159289036554     -0.38295060683339      1.27612518885169
  H   -0.90015092596607     -1.07533787089034      1.84971586739121
  H   -1.43564867511027      0.50467069986662      1.75846891325742
  C   -1.48975619205170      0.84866628672597     -0.78215478765202
  H   -1.13111671886392      0.94629599484909     -1.80383319893787
  H   -2.54670746898010      0.58347655707663     -0.78807487683288
  H   -1.36789202193257      1.81398816261672     -0.27809836892081
  N   1.49339425513624      0.07045572479112     -1.22291970567229
  O   1.29413074612402      1.01771583420099     -1.97641828006246
  O   2.20248023993650     -0.90476325520040     -1.43097165445708
  N   1.56613669029611     -0.67120030146677      1.06043476112062
  O   1.16533373740356     -1.77312878759435      1.41611598377674
  O   2.61032643362633     -0.12629190691485      1.40660578650080
