17
Coordinates from ORCA-job run
  C   -0.71553792512586     -0.13693222698667      0.11485322409473
  C   0.74648302426385     -0.43255664471922     -0.21213559606081
  Br  -1.44332914462688     -2.00907478905647      0.55746569394615
  H   0.83607331816318     -1.07411000705781     -1.08540973723587
  N   -0.84397145221576      0.80146665858168      1.14213888823657
  H   -0.37475298273317      0.53487396311086      1.99697396966247
  H   -1.80575746140087      1.06222280230175      1.31111174942715
  C   -1.48772264070884      0.29641209232567     -1.12040876095101
  H   -1.15147886358222      1.28558940202093     -1.43331729152453
  H   -2.55077892970621      0.34007991255155     -0.87604673661310
  H   -1.35696278966999     -0.40940953645083     -1.93988197791263
  N   1.53587974067459     -1.09504412754674      0.87859457878711
  O   1.26331005327578     -0.83362435002516      2.04465099554794
  O   2.43801778885551     -1.82857533994548      0.48626780011480
  N   1.47293594709053      0.85468906750382     -0.53537062364537
  O   2.11451494491616      1.39306966733481      0.35579270347467
  O   1.32307737253020      1.24992345605726     -1.68627887934824
