17
Coordinates from ORCA-job run
  C   -0.70629882171105     -0.08306587369248      0.02216303770560
  C   0.81626787324022      0.06756957810873      0.11296898418714
  Br  -1.15659774087787     -1.66042064598949     -1.13713738630809
  H   1.04446171866511      1.05085255342529      0.52441579808509
  N   -1.19429519871692     -0.18853402014210      1.35136526145373
  H   -0.97480889607037     -1.08480722428949      1.76683964704798
  H   -2.19453561510288     -0.03803067484775      1.37924834782581
  C   -1.32282102052392      1.13349570318291     -0.65364063694562
  H   -1.08334041746775      2.02799524321701     -0.07228948213558
  H   -0.96607122915653      1.25771968341588     -1.67245390457179
  H   -2.40690524692440      1.00672945852222     -0.68082921764621
  N   1.51481925148832     -0.01082747400978     -1.21650418548153
  O   2.09811523922390     -1.04870150948822     -1.49735689341971
  O   1.42091693063687      0.99821660319467     -1.90765025615231
  N   1.51603219127942     -0.91178315479898      1.01231830770274
  O   2.63302157225929     -0.55151941429956      1.36877582514150
  O   0.96203940975861     -1.96688883150882      1.29876675351119
