17
Coordinates from ORCA-job run
  C   -0.79297217878531     -0.16583349332554      0.30410274239216
  C   0.73517218409798     -0.13651712621665      0.50560551382772
  Br  -1.35128597960902     -1.80067117563292      1.26225822897352
  H   0.98876155369499     -0.18516678342842      1.56433141158706
  N   -1.44268938661593      0.93658755862515      0.95486942726886
  H   -1.16550389446305      1.03784303044062      1.92372360397460
  H   -1.27014926257610      1.79411982998840      0.44482382069708
  C   -1.26654657891984     -0.27527449332213     -1.13354070155833
  H   -0.92946291583714      0.58939565221516     -1.70604773379859
  H   -0.89892775525742     -1.17873225672153     -1.61450684388257
  H   -2.35620666384447     -0.29449049387271     -1.11732285055141
  N   1.41009403513717      1.11723413143131     -0.01394170476994
  O   0.76196313240080      1.93275141625901     -0.66089709829379
  O   2.59725106462855      1.20269584865002      0.27988756468681
  N   1.47927418800303     -1.25539220064899     -0.16487234544110
  O   1.56920637810116     -1.18439915312744     -1.38789879680396
  O   1.93102207984462     -2.13315029131335      0.56042576169191
