17
Coordinates from ORCA-job run
  C   -0.71757903493636     -0.15495930949789      0.07192031338231
  C   0.76253543143922     -0.40507292203941     -0.20935249991464
  Br  -1.43197490255979     -2.06533348845634      0.33883907099001
  H   0.90124082520576     -0.97871085149149     -1.12253877031261
  N   -0.90794129505342      0.70091281064895      1.15954866325860
  H   -0.47248681801122      0.37763202740441      2.01264093557778
  H   -1.88047300897463      0.93566048727122      1.30302069870113
  C   -1.44115433500601      0.35962278338306     -1.16165726480136
  H   -1.26211039622683     -0.28077122227240     -2.02459381769042
  H   -2.51463845530710      0.37051765635395     -0.96360773695781
  H   -1.10821062108510      1.37399212131207     -1.38454520482697
  N   1.51437779045008     -1.13581014291919      0.86407479297941
  O   1.18368064003630     -0.96960402448649      2.03253400057267
  O   2.44862730303281     -1.82123859686900      0.45995907544869
  N   1.48040162445972      0.91249623123073     -0.40309869490564
  O   1.37808124046392      1.38950944027766     -1.52787904966454
  O   2.07062401207265      1.39215700015012      0.55473548816340
