17
Coordinates from ORCA-job run
  C   -0.76970827683464     -0.24426926084835      0.14518077739736
  C   0.71826826636310     -0.46048284881390     -0.20161151178027
  Br  -1.40802069566962     -2.09552104047888      0.48580267578446
  H   0.84396076333374     -1.09842836047525     -1.07260166703467
  N   -1.08154691799977      0.56734257379934      1.26388963790014
  H   -1.08203153909715      1.55013676489496      1.02601761604436
  H   -0.48176311086265      0.38800191793083      2.05648171890999
  C   -1.49398989822876      0.27235590983519     -1.08841021412632
  H   -2.56309808078654      0.28880769560857     -0.87757351469737
  H   -1.16523562373984      1.28977071946171     -1.32126500108366
  H   -1.31023974909615     -0.35848442493608     -1.95788513363507
  N   1.55723064106046     -1.07241992141381      0.88235812571256
  O   1.28877341214943     -0.81925531714317      2.05156327012955
  O   2.48612899520758     -1.76905470291985      0.48221609071478
  N   1.35018688125001      0.85940366981094     -0.53803294298374
  O   1.47773201102558      1.10208016331613     -1.73527251851976
  O   1.63435292192519      1.60001646237163      0.39914259126765
