17
Coordinates from ORCA-job run
  C   -0.76722701818751     -0.24441776167694      0.14530803446906
  C   0.72218661992457     -0.45836394508374     -0.19715952686137
  Br  -1.39894807575145     -2.09891485748717      0.49552065187825
  H   0.85083225722150     -1.09789353434799     -1.06647396738231
  N   -1.08083328881801      0.57342290925971      1.25674082211119
  H   -0.47174979760298      0.41684037892605      2.04678618702877
  H   -1.11502793276307      1.55298891680901      1.00988026019061
  C   -1.49227086691088      0.25933602089432     -1.09305056748792
  H   -2.56176970209412      0.27487038482911     -0.88386881785267
  H   -1.30620721754640     -0.37882286415130     -1.95658732473016
  H   -1.16573305916543      1.27539628756450     -1.33482289012880
  N   1.55592358812143     -1.06737067358372      0.89158073020758
  O   2.47077195366786     -1.78711221077148      0.50006689497508
  O   1.29533977126632     -0.79145569762215      2.05763221483634
  N   1.35124491186795      0.86247399797780     -0.53566871728944
  O   1.47694049167891      1.10236611049862     -1.73382758217408
  O   1.63652736509128      1.60565653796539      0.39894359820985
