17
Coordinates from ORCA-job run
  C   -0.75405063319531     -0.29667308133012      0.12438164947142
  C   0.75347012509397     -0.40809433579567     -0.18674607994041
  Br  -1.27184936531381     -2.19156486620403      0.43475773767816
  H   0.94245091405122     -1.02763430963752     -1.05954998054330
  N   -1.14667242667474      0.48171931174457      1.24054455830737
  H   -0.55028986510674      0.34404034849170      2.04391816377470
  H   -1.22050195755706      1.46288471068453      1.00790965413361
  C   -1.48199798784861      0.17931713620833     -1.12313971443392
  H   -1.23564089626668     -0.43114582837875     -1.99164370221722
  H   -1.21719101920244      1.21829016710133     -1.34199706696825
  H   -2.55456804393494      0.12216976464149     -0.93842181984824
  N   1.60345322640775     -0.97365716763749      0.91295830643888
  O   1.29494808623047     -0.74152057534144      2.07677294708663
  O   2.58003550377840     -1.61365079593508      0.53191537711600
  N   1.30181568173201      0.95468396972105     -0.49652986143857
  O   1.44249019631639      1.21673583591334     -1.68824907834020
  O   1.51209846149014      1.70409971575382      0.45311890972319
