17
Coordinates from ORCA-job run
  C   -0.66378798929362     -0.13570836576319      0.44197540911505
  C   0.86853793820602     -0.18232438873474      0.39987393716277
  Br  -1.17517279057924     -1.72877676976411      1.47716490696682
  H   1.26743234611672     -0.30251869493542      1.40422851140135
  N   -0.97849783849666      1.01818213235949      1.26843943764842
  H   -1.87571749413528      0.88669298434417      1.71849405670593
  H   -1.02870583352180      1.83919333244301      0.67442971992690
  C   -1.37949671116475     -0.20821724296907     -0.89800575284490
  H   -1.08391398199919      0.63866524810670     -1.51782956007070
  H   -1.16331145543111     -1.13038068474961     -1.43574370307216
  H   -2.45407109920537     -0.15872273737232     -0.71256919993316
  N   1.49901503214282      1.07575145129879     -0.14759051800839
  O   0.79792616401344      1.89993496832543     -0.72496073662505
  O   2.70882927407997      1.14996528141382      0.03388586820914
  N   1.42128401770803     -1.28568747671330     -0.45123623219035
  O   1.36020884906069     -1.11529865539580     -1.66670780512728
  O   1.87944157249934     -2.25875038189386      0.13615166073559
