17
Coordinates from ORCA-job run
  C   -0.69351911425377     -0.14100027457336      0.39151286159005
  C   0.83716975665177     -0.11647810458159      0.48346464494091
  Br  -1.22603848601321     -1.69224574004559      1.47904928559986
  H   1.15161158963931     -0.16016231087741      1.52339989641913
  N   -1.12888589491436      1.04360314354860      1.11302663421445
  H   -1.16123579744419      1.82437042862713      0.46583996115801
  H   -2.05614326760486      0.89626142950916      1.49165798370996
  C   -1.28433414671364     -0.32841428581037     -0.99722614414724
  H   -0.97236981613337      0.49317010275071     -1.64254911390762
  H   -2.37220561891673     -0.32066042178104     -0.90754217483361
  H   -0.98179764676428     -1.26959920459669     -1.45433028091804
  N   1.45831195388820      1.13678086475708     -0.08417953984846
  O   2.64204071476596      1.28245134156847      0.19839265007716
  O   0.77707795160001      1.88861766601671     -0.77329689308547
  N   1.50918761415261     -1.23928967462863     -0.24849891250796
  O   1.95125859200464     -2.15608613063488      0.43392567125286
  O   1.55087161605587     -1.14031882924828     -1.47264652971397
