17
Coordinates from ORCA-job run
  C   -0.71539304536753     -0.08703836551609      0.27206514438043
  C   0.80162560700667     -0.16099088668007      0.45892909771489
  Br  -1.35474342771514     -1.78210433623544      1.20113685120693
  H   1.05766395925747     -0.17344011193009      1.51567085258582
  N   -1.12433688030398      1.09275748802818      0.93083936394350
  H   -2.11266913480271      1.27191508965069      0.81178313135605
  H   -0.88752304261149      1.11481305846294      1.91502247566875
  C   -1.27182854113538     -0.12103561190519     -1.13774070354594
  H   -0.89801976555970      0.73839254277290     -1.69537011772904
  H   -2.36092948840970     -0.06310686218259     -1.07401909625884
  H   -1.00120812588739     -1.03306648329242     -1.65858700600876
  N   1.46118066449633      1.07128565660965     -0.10848155022237
  O   1.48945505462667      1.18612556132082     -1.32817996157884
  O   1.90079576737611      1.86098917454252      0.72051564448489
  N   1.48842463347990     -1.35258078878834     -0.13518323073943
  O   2.32251064267019     -1.88463118280078      0.59461263326513
  O   1.20599512287969     -1.67728394205668     -1.28201352852312
