17
Coordinates from ORCA-job run
  C   -0.79807233209087     -0.15462921881479      0.29698979713796
  C   0.72606546974237     -0.11317379299566      0.52410544584873
  Br  -1.37123638203606     -1.74771701432893      1.31469042785032
  H   0.96077055625190     -0.11429963024540      1.58830916271954
  N   -1.46100168942284      0.97362532107272      0.88781338408945
  H   -1.28039900607161      1.80828911017249      0.34367156853206
  H   -1.20000547522193      1.11789793123976      1.85574901323481
  C   -1.24572417939732     -0.32673798481431     -1.14280995064779
  H   -0.86878056520337     -1.24949074656395     -1.57775282244051
  H   -2.33547792535193     -0.34694537407107     -1.14533048482688
  H   -0.89903823756979      0.51293341883799     -1.74598656437970
  N   1.40886624460316      1.11830657472271     -0.03792083318572
  O   0.76978986929904      1.90565843507482     -0.72730175755038
  O   2.59166304729625      1.21632375066916      0.26870290874815
  N   1.48344330659774     -1.25850743499658     -0.08376353868603
  O   1.92403077050246     -2.10269023857945      0.68683819343362
  O   1.59410652807281     -1.24084310637948     -1.30700394987766
