14

C	0.0	0.0	0.0
C	-0.555891	-0.065685	-1.41079
Br	1.917715	0.0	0.0
H	-1.665511	-0.184064	-1.2704
H	-0.373684	0.879148	0.515919
N	-0.428275	-1.200559	0.807295
O	-0.453644	-1.037137	2.019503
O	-0.653137	-2.239485	0.199821
C	0.024281	-1.09378	-2.255937
N	0.490913	-1.918935	-2.950282
N	-0.383479	1.27997	-2.071127
O	-0.448288	2.26635	-1.345678
O	-0.255406	1.2936	-3.291289
Br	-3.467401	0.0	0.0
