15

C	0.0	0.0	0.0
C	-0.529553	0.276776	-1.411961
F	1.378892	0.0	0.0
H	-1.490688	0.758835	-1.221526
H	-0.34196	0.795835	0.662622
C	-0.440883	-1.27938	0.576557
N	-0.604726	-2.301437	1.130758
N	-0.746404	-1.006598	-2.097411
H	-1.600726	-1.350864	-1.654318
H	-0.997635	-0.797422	-3.059377
C	0.431255	1.157776	-2.191821
H	0.639906	2.082457	-1.646809
H	-0.02785	1.435034	-3.147372
H	1.373421	0.645134	-2.389944
F	-2.621321	0.0	0.0
