15

C	0.0	0.0	0.0
C	-0.211954	-0.021677	-1.574833
F	1.387082	0.0	0.0
H	0.58565	0.674165	-1.873854
H	-0.390447	0.907344	0.451282
C	-0.470417	-1.191405	0.707789
N	-0.612404	-2.224027	1.249586
N	-1.466056	0.448259	-2.132514
H	-1.827863	-0.292295	-2.725723
H	-2.125207	0.44114	-1.30452
C	0.172666	-1.406021	-2.096101
H	-0.582908	-2.135254	-1.793155
H	1.148553	-1.734295	-1.732078
H	0.20458	-1.376563	-3.189702
F	-2.619818	0.0	0.0
