15

C	0.0	0.0	0.0
C	-0.415397	0.075271	-1.480517
F	1.38891	0.0	0.0
H	-1.505917	0.138652	-1.416476
H	-0.374169	0.855642	0.555482
C	-0.449081	-1.243569	0.640017
N	-0.560074	-2.298853	1.144746
N	-0.022741	-1.118793	-2.232921
H	-0.611572	-1.885706	-1.924818
H	0.931905	-1.363834	-1.984684
C	0.198777	1.308062	-2.126016
H	-0.164355	1.390906	-3.152813
H	1.291602	1.251478	-2.15252
H	-0.085522	2.213302	-1.580104
F	-2.529336	0.0	0.0
