15

C	0.0	0.0	0.0
C	-0.376224	-0.086685	-1.495523
F	1.389153	0.0	0.0
H	-1.466646	-0.116268	-1.483337
H	-0.377848	0.908959	0.457106
C	-0.462982	-1.172418	0.752673
N	-0.573141	-2.171747	1.361883
N	0.168748	-1.288814	-2.132572
H	-0.320036	-2.094558	-1.757602
H	1.142547	-1.383998	-1.860126
C	0.144524	1.144909	-2.221828
H	-0.270769	2.054565	-1.778997
H	-0.152801	1.097591	-3.271727
H	1.237291	1.205859	-2.179182
F	-2.48244	0.0	0.0
