15

C	-0.246283	-0.08501	-1.506585
C	0.0	0.0	0.0
Cl	-0.187496	1.691038	-2.183599
H	1.09559	0.0	0.0
H	-0.404835	0.926094	0.407083
N	0.738728	-0.917495	-2.059039
H	1.658628	-0.698516	-1.642455
H	0.759191	-0.90356	-3.068938
C	-1.599936	-0.519017	-1.885284
N	-2.685618	-0.897343	-2.131783
C	-0.502994	-1.229564	0.741745
H	-0.09456	-2.134608	0.288327
H	-0.148798	-1.18972	1.775677
H	-1.595634	-1.303462	0.750945
H	2.950299	0.0	0.0
