15

C	-0.272119	-0.042302	-1.502666
C	0.0	0.0	0.0
Cl	-0.143431	1.712033	-2.200407
H	1.09538	0.0	0.0
H	-0.313092	-0.980886	0.376726
N	0.661773	-0.92081	-2.076749
H	1.592471	-0.739463	-1.67422
H	0.676499	-0.879357	-3.08716
C	-1.651448	-0.415965	-1.850836
N	-2.747872	-0.756748	-2.10223
C	-0.635054	1.120682	0.794899
H	-1.718433	1.177555	0.644593
H	-0.448854	0.951377	1.858694
H	-0.197734	2.083239	0.531072
H	2.948508	0.0	0.0
