15

C	-0.213576	0.140692	-1.499449
C	0.0	0.0	0.0
Cl	-1.91702	0.75392	-1.944489
H	1.097244	0.0	0.0
H	-0.394954	-0.947723	0.371234
N	0.751619	1.06728	-1.994173
H	0.847064	1.007582	-3.000492
H	1.655459	0.861453	-1.530221
C	-0.160421	-1.182015	-2.15394
N	-0.072101	-2.225898	-2.688463
C	-0.482238	1.194513	0.804533
H	-0.027874	1.160431	1.798686
H	-1.569722	1.218103	0.912511
H	-0.160638	2.118405	0.321459
H	2.876891	0.0	0.0
