15

C	-0.552824	0.000426	-1.420027
C	0.0	0.0	0.0
Cl	0.080997	-1.419099	-2.329401
H	1.093446	0.0	0.0
H	-0.314636	0.954865	0.447254
N	-2.013613	-0.054428	-1.551342
H	-2.387962	0.704866	-0.990469
H	-2.32172	-0.923318	-1.125225
C	-0.117386	1.212426	-2.135344
N	0.207411	2.196177	-2.688246
C	-0.485838	-1.163043	0.851994
H	0.043941	-1.127848	1.806572
H	-0.231473	-2.116937	0.384707
H	-1.562345	-1.146969	1.058979
H	2.927148	0.0	0.0
