17

C	0.0	0.0	0.0
C	-0.638391	-0.065556	-1.376543
Br	1.959209	0.0	0.0
H	-1.694045	-0.281241	-1.104078
H	-0.253869	-0.932178	0.513135
C	-0.523483	1.170571	0.800004
H	-0.169832	1.136347	1.834018
H	-0.207367	2.113472	0.348859
H	-1.620563	1.078696	0.773989
C	-0.090389	-1.167663	-2.260868
H	-0.735633	-1.300819	-3.136891
H	0.920733	-0.928041	-2.601347
H	-0.059135	-2.118019	-1.722233
N	-0.54333	1.232846	-2.060294
H	-0.729117	1.076718	-3.047187
H	-1.323364	1.79135	-1.727217
H	-3.40841	0.0	0.0
