17

C	0.0	0.0	0.0
C	-0.470786	0.275663	-1.457613
Br	1.96322	0.0	0.0
H	0.286442	-0.17706	-2.110759
H	-0.241215	-1.041766	0.223377
C	-0.587713	0.893411	1.066684
H	-0.270758	1.930714	0.941096
H	-1.681903	0.820851	0.975721
H	-0.290933	0.557132	2.063749
C	-0.529664	1.767195	-1.761788
H	-0.724827	1.897238	-2.828533
H	0.4051	2.275824	-1.504411
H	-1.356036	2.227341	-1.215096
N	-1.743805	-0.328919	-1.790679
H	-1.663354	-1.339313	-1.720545
H	-2.50745	-0.076828	-1.120386
H	-3.758066	0.0	0.0
