17

C	0.0	0.0	0.0
C	-0.361462	0.025496	-1.49546
Br	1.973296	0.0	0.0
H	0.255086	0.823528	-1.944995
H	-0.28399	-0.971264	0.407353
C	-0.56354	1.139113	0.813966
H	-0.302942	2.106107	0.375235
H	-1.655633	1.027222	0.82756
H	-0.191944	1.110049	1.840924
C	-1.820839	0.357477	-1.75908
H	-2.556421	-0.193289	-1.158098
H	-2.032691	0.196878	-2.82421
H	-2.021477	1.409543	-1.546758
N	-0.038952	-1.289522	-2.065264
H	-0.414449	-1.33205	-3.005142
H	0.967592	-1.390122	-2.132585
H	-4.262178	0.0	0.0
