17

C	0.0	0.0	0.0
C	-0.497264	0.054282	-1.460297
Br	1.964312	0.0	0.0
H	0.29465	-0.376325	-2.085393
H	-0.243181	-1.001795	0.356331
C	-0.573541	1.032945	0.94135
H	-1.668423	0.938171	0.890752
H	-0.276096	2.046772	0.664913
H	-0.245627	0.842091	1.966444
C	-0.742505	1.489514	-1.938353
H	-1.596274	1.919863	-1.411191
H	-0.983546	1.476176	-3.006499
H	0.139296	2.127539	-1.800683
N	-1.648011	-0.837298	-1.55456
H	-2.429626	-0.507198	-0.939784
H	-2.016003	-0.782325	-2.501152
H	-3.733791	0.0	0.0
