19

C	0.0	0.0	0.0
C	-0.4949	0.048288	-1.444233
F	1.358261	0.0	0.0
H	-1.574413	0.23206	-1.4037
C	-0.482678	1.205121	0.776567
H	-1.581658	1.166994	0.799293
H	-0.148238	2.140141	0.325637
H	-0.090745	1.106511	1.789426
N	-0.600458	-1.170901	0.672153
O	-1.772519	-1.428019	0.140898
O	-0.304732	-1.329705	1.88363
N	-0.350168	-1.272495	-2.129116
O	0.51792	-2.051354	-1.74435
O	-1.08527	-1.460055	-3.09986
C	0.237598	1.067273	-2.303083
H	-0.178591	1.057426	-3.31187
H	1.303154	0.835806	-2.347549
H	0.114582	2.069218	-1.890053
H	-2.896145	0.0	0.0
