19

C	0.0	0.0	0.0
C	-0.499549	-0.015459	-1.443384
F	1.358326	0.0	0.0
H	-1.576331	0.182331	-1.408134
C	-0.482239	1.23802	0.723771
H	-0.156141	2.15314	0.227392
H	-1.580977	1.197877	0.75527
H	-0.082817	1.18936	1.737587
N	-0.597362	-1.14102	0.722743
O	-0.295352	-1.250182	1.938771
O	-1.771727	-1.419826	0.206326
N	-0.374892	-1.368925	-2.063827
O	0.520982	-2.117296	-1.679176
O	-1.150611	-1.615059	-2.988587
C	0.243748	0.949283	-2.353795
H	-0.181334	0.901027	-3.358521
H	1.304742	0.696321	-2.396138
H	0.143118	1.97149	-1.986361
H	-2.901233	0.0	0.0
