19

C	0.0	0.0	0.0
C	-0.233061	0.125157	-1.544078
F	1.367619	0.0	0.0
H	0.468195	-0.604796	-1.945542
C	-0.301576	1.15225	0.949414
H	0.144215	2.067134	0.557169
H	0.180106	0.895732	1.894778
H	-1.365437	1.287629	1.100653
N	-0.630743	-1.249117	0.452113
O	-0.62641	-1.443102	1.699579
O	-0.579084	-2.205537	-0.383264
N	0.343274	1.447737	-1.974578
O	-0.359925	2.451167	-1.842329
O	1.478298	1.45937	-2.454221
C	-1.566448	-0.04264	-2.237465
H	-1.37758	-0.046129	-3.322795
H	-1.984418	-0.999877	-1.938259
H	-2.258964	0.753623	-1.988084
H	-2.217097	0.0	0.0
