19

C	0.0	0.0	0.0
C	-0.242158	0.024148	-1.547117
F	1.367191	0.0	0.0
H	0.489321	-0.697124	-1.909178
C	-0.299616	1.220183	0.861129
H	0.141619	1.013764	1.837545
H	0.189513	2.093157	0.426206
H	-1.362819	1.397327	0.965801
N	-0.638506	-1.209903	0.537939
O	-0.644584	-1.317969	1.796862
O	-0.58041	-2.223805	-0.227295
N	0.27569	1.344543	-2.050807
O	-0.484054	2.31384	-2.008788
O	1.427739	1.390128	-2.486147
C	-1.569078	-0.244489	-2.222657
H	-2.286184	0.548572	-2.042611
H	-1.956097	-1.186325	-1.842657
H	-1.377447	-0.335787	-3.303311
H	-2.203189	0.0	0.0
