19

C	0.0	0.0	0.0
C	-0.238772	-0.02686	-1.545092
F	1.366317	0.0	0.0
H	0.482331	-0.771027	-1.879832
C	-0.332641	1.223269	0.832968
H	0.158746	2.093013	0.393715
H	0.081803	1.042824	1.826295
H	-1.40417	1.370966	0.889659
N	-0.55906	-1.239895	0.578769
O	-0.502035	-2.257098	-0.165664
O	-0.586396	-1.310243	1.832765
N	0.310052	1.263061	-2.095622
O	1.432008	1.244629	-2.606084
O	-0.403574	2.265054	-2.030835
C	-1.561708	-0.288429	-2.228995
H	-1.355827	-0.393303	-3.306823
H	-1.973723	-1.215616	-1.841408
H	-2.271509	0.510862	-2.052944
H	-2.392336	0.0	0.0
