16

C	-0.421568	-0.01004	-1.484458
C	0.0	0.0	0.0
Br	0.280737	1.641084	-2.36399
H	1.090127	0.0	0.0
N	0.234535	-1.09651	-2.174985
H	-0.064981	-1.963643	-1.734876
H	1.239412	-1.000135	-2.014923
N	-1.83648	-0.039971	-1.620343
H	-2.306165	-0.360204	-0.785441
H	-2.107074	-0.559456	-2.443499
C	-0.457971	-1.244092	0.597189
N	-0.758735	-2.302702	1.014795
N	-0.544338	1.131485	0.780254
O	-1.572816	0.938206	1.447334
O	0.069643	2.194236	0.726548
H	2.553266	0.0	0.0
