16

C	-0.316061	0.005559	-1.49952
C	0.0	0.0	0.0
Br	-0.121695	-1.985982	-2.101325
H	1.096062	0.0	0.0
N	-1.688921	0.289419	-1.823917
H	-1.808129	1.286722	-1.680674
H	-1.867977	0.060861	-2.794422
N	0.657917	0.800732	-2.108203
H	0.651495	0.733181	-3.117172
H	1.587187	0.61363	-1.704681
C	-0.555933	-1.079918	0.780396
N	-0.968419	-1.951415	1.45369
N	-0.34942	1.278075	0.671433
O	-0.754049	2.238163	0.008082
O	-0.118576	1.316969	1.880362
H	2.510018	0.0	0.0
