16

C	-0.327951	0.053302	-1.469729
C	0.0	0.0	0.0
Br	-2.498124	0.331049	-1.680536
H	1.092547	0.0	0.0
N	0.244809	1.185378	-2.063491
H	0.198512	1.147971	-3.074332
H	1.206661	1.259703	-1.722693
N	-0.025575	-1.177655	-2.080104
H	-0.523954	-1.955641	-1.668093
H	-0.215355	-1.141983	-3.073842
C	-0.487093	-1.209722	0.623563
N	-0.815593	-2.257127	1.046508
N	-0.413763	1.195945	0.749845
O	-1.220566	1.057184	1.674971
O	0.13768	2.253429	0.441645
H	2.450926	0.0	0.0
