16

C	-0.313636	-0.068028	-1.518973
C	0.0	0.0	0.0
Br	-0.01878	1.865296	-2.219483
H	1.091565	0.0	0.0
N	0.611427	-0.981215	-2.008729
H	1.554921	-0.794161	-1.636653
H	0.581677	-1.043972	-3.016468
N	-1.635928	-0.384798	-1.968831
H	-2.292448	0.270611	-1.561158
H	-1.851024	-1.318299	-1.628048
C	-0.516232	-1.197755	0.63368
N	-0.928582	-2.171299	1.149799
N	-0.611559	1.174478	0.680065
O	-1.841399	1.266135	0.619107
O	0.127457	1.96276	1.256296
H	2.643493	0.0	0.0
