16

C	-0.181815	0.006513	-1.512433
C	0.0	0.0	0.0
Br	-2.110772	-0.120962	-2.074268
H	1.094374	0.0	0.0
N	0.310136	1.255188	-2.029187
H	0.392921	1.17971	-3.036861
H	1.242267	1.391469	-1.626408
N	0.45111	-1.217356	-1.932834
H	1.417615	-1.157663	-1.584365
H	0.461825	-1.263929	-2.946853
C	-0.523762	-1.188218	0.638136
N	-0.856452	-2.166058	1.200911
N	-0.473326	1.220837	0.688696
O	-1.465678	1.137851	1.417053
O	0.191143	2.240039	0.515101
H	2.556107	0.0	0.0
