16

C	-0.385176	-0.080057	-1.466156
C	0.0	0.0	0.0
Br	0.138492	1.993467	-2.231082
H	1.090216	0.0	0.0
N	0.489333	-0.962734	-2.051935
H	1.451574	-0.786653	-1.729384
H	0.412824	-1.022924	-3.056741
N	-1.73845	-0.235968	-1.758122
H	-1.922724	-0.139024	-2.748176
H	-2.26977	0.451491	-1.237714
C	-0.471533	-1.172741	0.714929
N	-0.835794	-2.103224	1.336158
N	-0.531758	1.1949	0.72319
O	-1.693184	1.541668	0.491662
O	0.211341	1.72139	1.542008
H	2.589628	0.0	0.0
