16

C	-0.172044	0.054871	-1.523386
C	0.0	0.0	0.0
Br	-2.11491	0.266807	-2.000781
H	1.093209	0.0	0.0
N	0.535255	1.12258	-2.179857
H	0.196397	2.007303	-1.820812
H	1.499722	1.024729	-1.843023
N	0.27934	-1.222995	-1.983339
H	0.416429	-1.141776	-2.986091
H	1.194921	-1.379864	-1.552614
C	-0.518981	-1.20122	0.613245
N	-0.891036	-2.198427	1.113493
N	-0.413746	1.179179	0.76288
O	-0.336972	2.286825	0.218854
O	-0.703788	1.0158	1.951737
H	2.483053	0.0	0.0
