16

C	-0.501005	0.055533	-1.442619
C	0.0	0.0	0.0
Br	0.556959	1.284576	-2.5749
H	1.088905	0.0	0.0
N	-0.264074	-1.251119	-2.030904
H	-0.879	-1.933257	-1.598243
H	-0.451073	-1.211277	-3.025551
N	-1.855648	0.575922	-1.469259
H	-2.442822	-0.043613	-0.915777
H	-2.194775	0.58682	-2.426186
C	-0.481699	-1.207509	0.632405
N	-0.815889	-2.249609	1.069511
N	-0.366798	1.160952	0.799961
O	-0.091379	2.266071	0.326118
O	-0.784838	0.973641	1.954286
H	2.378065	0.0	0.0
