16

C	-0.320545	0.049309	-1.505492
C	0.0	0.0	0.0
Br	-0.076958	-1.970322	-2.10811
H	1.094279	0.0	0.0
N	-1.643892	0.349	-1.968955
H	-1.869281	1.264221	-1.590905
H	-2.295025	-0.339631	-1.611839
N	0.614911	0.879375	-2.084659
H	1.55438	0.713205	-1.706613
H	0.558818	0.887922	-3.092527
C	-0.572352	-1.084283	0.759495
N	-1.040887	-1.953415	1.400878
N	-0.345423	1.261817	0.705341
O	-0.056198	1.287465	1.903925
O	-0.816972	2.218785	0.08
H	2.489325	0.0	0.0
