18
Coordinates from ORCA-job run
  C   0.69137642874658      0.45686792068069     -0.31481298227025
  C   -0.82866170677957      0.31328525310565     -0.14664562358375
  Br  1.14752093379310      2.33492646987177     -0.55261123203836
  H   -1.30752983145451      0.80231326716295     -0.99272776358436
  N   0.99396818921137     -0.21527418645301     -1.66493335123845
  O   1.92797399694586     -1.00818434900996     -1.70030764554186
  O   0.26795675769519      0.08494129605958     -2.60520162110682
  C   1.55794798195013     -0.14286128072949      0.76516640647109
  H   2.60786137812615     -0.00594759045236      0.51356216881519
  H   1.34449950922489      0.34555319892632      1.71371290955364
  H   1.36396542259027     -1.21170907784086      0.86075637770208
  N   -1.28981623479073      1.08778955387893      1.05397883632376
  O   -1.96265846896095      2.09278176909142      0.83964336416926
  O   -0.98679777926935      0.64843766814313      2.16220028455865
  C   -1.28537258176362     -1.12870892418652     -0.00473907809530
  H   -2.37572875984851     -1.15508035212450      0.04850465016693
  H   -0.88557401166675     -1.58298581476972      0.90041254749793
  H   -0.98093122374956     -1.71414482135402     -0.87395824779936
