16

C	-0.55034	-0.0758	-1.419467
C	0.0	0.0	0.0
Cl	0.036273	-1.544105	-2.217
H	1.094252	0.0	0.0
H	-0.355065	0.941623	0.423525
C	-2.065152	-0.042223	-1.482208
H	-2.406582	-0.0996	-2.518571
H	-2.443302	-0.891284	-0.91621
H	-2.422669	0.883876	-1.029103
N	-0.05263	1.149951	-2.189342
O	0.523368	1.020087	-3.258434
O	-0.346612	2.22158	-1.660819
N	-0.551164	-1.117577	0.782476
H	-0.489991	-0.858198	1.759958
H	0.085632	-1.899241	0.668393
Cl	3.483494	0.0	0.0
