16

C	-0.444785	-0.020352	-1.449546
C	0.0	0.0	0.0
Cl	-0.163226	1.58093	-2.191631
H	1.09301	0.0	0.0
H	-0.362182	0.909403	0.483695
C	0.245692	-1.089458	-2.253037
H	-0.06219	-1.064958	-3.296518
H	-0.001556	-2.05693	-1.815377
H	1.320841	-0.921247	-2.163626
N	-1.961077	-0.205997	-1.498393
O	-2.437713	-0.824468	-2.446218
O	-2.616888	0.30444	-0.593298
N	-0.47306	-1.231328	0.635592
H	-1.250835	-1.034169	1.249565
H	0.282858	-1.623922	1.180844
Cl	3.45245	0.0	0.0
