16

C	-0.59626	0.030203	-1.395952
C	0.0	0.0	0.0
Cl	0.152107	-1.251196	-2.381552
H	1.092829	0.0	0.0
H	-0.316779	-0.957434	0.427259
C	-2.100548	-0.123929	-1.412647
H	-2.535174	0.679702	-0.817705
H	-2.480497	-0.091587	-2.431351
H	-2.356305	-1.0841	-0.960747
N	-0.255903	1.349165	-2.088529
O	-0.859483	1.598305	-3.131192
O	0.587543	2.069755	-1.567947
N	-0.573289	1.100325	0.78942
H	0.106975	1.851117	0.784354
H	-0.664022	0.795033	1.750585
Cl	3.542352	0.0	0.0
