17
Coordinates from ORCA-job run
  C   0.72799735889303     -0.26430475048757      0.50021005060732
  C   -0.74997846406434     -0.07873179985648      0.20918264404765
  F   0.96087189378523     -1.44710399254653      1.08616490596095
  H   -1.20445408462227     -0.30937258820542      1.17916301157339
  N   1.19844847077585      0.82390165132534      1.45522039859583
  O   1.97230915935098      1.66744959196080      1.02916173117814
  O   0.72289201888129      0.73328497554429      2.57695399396627
  N   1.62552921882228     -0.17455838521830     -0.71879892514743
  O   2.66767391317863     -0.81192697291292     -0.67420290247378
  O   1.23284168750504      0.54325482819520     -1.63211538793734
  C   -1.24184797532729     -1.09031980189210     -0.82455335802537
  H   -2.33295645440270     -1.06563146525332     -0.85586836185812
  H   -0.86715740486394     -0.84179714211806     -1.81870989141006
  H   -0.93455671896865     -2.10835592029145     -0.57271993021777
  N   -1.00644205832009      1.32313535345239     -0.05751937866969
  H   -1.97097788101500      1.54921910774173      0.14169947854139
  H   -0.80119267960803      1.54985731056238     -1.02126807873138
