17
Coordinates from ORCA-job run
  C   0.63122923607311      0.48771948285566      0.48276816117927
  C   -0.79685597655039      0.12431983515578      0.11561276897886
  F   0.66028099470557      1.71605321389996      1.03400146788338
  H   -1.34206070535917      0.18655638434257      1.06809819371393
  N   1.54407419470090      0.48842202476051     -0.72204988376490
  O   1.76965830075100     -0.62597476954904     -1.17906339829139
  O   1.94953431528788      1.56420803613386     -1.12501291922076
  N   1.28778259869273     -0.42396183992287      1.50230148904557
  O   2.50429427816091     -0.32198843670110      1.60074219702882
  O   0.54222696270593     -1.11059415905139      2.19286171289134
  C   -0.98872817637103     -1.26372870318146     -0.47533390462382
  H   -0.54267227336161     -1.32291278418362     -1.46697927317552
  H   -2.06234044694390     -1.45027728728934     -0.56204945711550
  H   -0.56479398303475     -2.04154031282170      0.15635460294997
  N   -1.19095462644145      1.13032233005455     -0.86370613662542
  H   -1.36292637755570      2.02501514926503     -0.42335596827312
  H   -2.03674831546002      0.83836183623261     -1.33518965258072
