17
Coordinates from ORCA-job run
  C   0.82543375734784      0.02405753869297     -0.00514585286664
  C   -0.68144384187172      0.16687675229754     -0.02696753145091
  F   1.28328812838035     -0.58322355226784     -1.09947441215453
  H   -0.95174408057965      0.67972800682390      0.89630292908808
  N   1.33633849042905     -0.74418537892068      1.20542101026721
  O   2.32314314731531     -1.44686434902196      1.02916925728487
  O   0.72168844243994     -0.56693133163403      2.25106019495421
  N   1.48257564235654      1.39726419174243      0.09056798083187
  O   2.30603085853788      1.67582681928651     -0.76451075607030
  O   1.10723933092927      2.08201853754825      1.03214970069861
  C   -1.35359504465537     -1.20154296088968     -0.09310229447950
  H   -1.03145932476855     -1.74698999536590     -0.98337114989119
  H   -1.13857121091593     -1.80877242635041      0.78850734135169
  H   -2.43498104414049     -1.06360588246463     -0.14999921412172
  N   -0.95570751711939      1.05706283090963     -1.14597542342250
  H   -1.83296749370230      1.53952643846842     -1.00963084820396
  H   -1.00426823998280      0.53975476114548     -2.01500093181530
