16

C	-0.305185	-0.020375	-1.497272
C	0.0	0.0	0.0
Br	-2.275307	-0.332989	-1.860006
H	1.107447	0.0	0.0
C	-0.002314	1.267623	-2.108532
N	0.295775	2.283674	-2.619774
C	0.49246	-1.118166	-2.174348
H	1.539963	-0.957648	-1.87891
H	0.375384	-1.081664	-3.258864
H	0.167758	-2.092023	-1.810464
N	-0.3345	-1.205038	0.728062
H	0.447554	-1.848303	0.656448
H	-1.183913	-1.634728	0.380434
C	-0.561302	1.180809	0.639195
N	-1.024636	2.139374	1.140098
H	2.601801	0.0	0.0
