16

C	-0.440512	0.123391	-1.467437
C	0.0	0.0	0.0
Br	0.317474	1.783796	-2.234596
H	1.101792	0.0	0.0
C	0.10668	-0.995174	-2.238331
N	0.430458	-1.919794	-2.889314
C	-1.95322	0.18401	-1.669578
H	-2.416996	-0.725888	-1.275288
H	-2.198788	0.266199	-2.730421
H	-2.355599	1.04713	-1.137598
N	-0.292101	-1.29651	0.593542
H	0.541252	-1.866989	0.470253
H	-1.092889	-1.764093	0.188817
C	-0.573992	1.080609	0.786441
N	-1.040493	1.955544	1.420726
H	2.583009	0.0	0.0
