16

C	0.0	0.0	0.0
C	-0.591024	0.299724	-1.376097
F	1.394	0.0	0.0
H	-1.617125	0.631781	-1.150193
H	-0.338389	-1.006845	0.252365
C	-0.462514	0.970034	1.06315
H	-0.038685	0.681938	2.030404
H	-1.555406	0.894863	1.060897
H	-0.132546	1.982101	0.81757
N	-0.666593	-0.813009	-2.286214
H	0.147497	-1.409704	-2.189533
H	-1.491959	-1.322527	-1.989366
N	0.209193	1.399892	-1.999399
O	1.126795	1.095873	-2.759436
O	-0.072952	2.556736	-1.677001
F	-2.853393	0.0	0.0
