16

C	0.0	0.0	0.0
C	-0.273769	0.09075	-1.509735
F	1.403545	0.0	0.0
H	0.356727	-0.692448	-1.954887
H	-0.353913	-0.960846	0.372014
C	-0.487651	1.143566	0.843239
H	-0.115938	1.013765	1.867015
H	-0.132838	2.096953	0.44726
H	-1.584893	1.050134	0.784541
N	0.036441	1.418098	-1.992124
H	-0.024126	1.440217	-3.004934
H	0.987461	1.612176	-1.712936
N	-1.632266	-0.336947	-2.021937
O	-1.818996	-1.54876	-2.022576
O	-2.305745	0.489517	-2.623062
F	-2.733376	0.0	0.0
