16

C	0.0	0.0	0.0
C	-0.564835	0.035298	-1.405279
F	1.395632	0.0	0.0
H	-1.667324	0.051208	-1.212195
H	-0.332871	-0.963337	0.388586
C	-0.5028	1.102611	0.895894
H	-1.597327	1.023483	0.832222
H	-0.148836	2.079168	0.561794
H	-0.145815	0.927704	1.915092
N	-0.103578	-1.082207	-2.16865
H	0.892673	-0.987492	-2.327208
H	-0.567539	-1.105544	-3.067331
N	-0.164799	1.353808	-2.058709
O	0.851648	1.369523	-2.764614
O	-0.86558	2.34171	-1.844644
F	-2.903129	0.0	0.0
