16

C	0.0	0.0	0.0
C	-0.59163	0.320892	-1.375409
F	1.394035	0.0	0.0
H	-1.575794	0.746387	-1.152615
H	-0.338326	-1.006666	0.249027
C	-0.454387	0.96633	1.070333
H	-0.136264	1.982823	0.823605
H	-1.54674	0.879117	1.077739
H	-0.015809	0.678992	2.034074
N	-0.800632	-0.794844	-2.254097
H	-0.031713	-1.45151	-2.177763
H	-1.648374	-1.219682	-1.895587
N	0.285342	1.337003	-2.037253
O	0.116807	2.517726	-1.717875
O	1.147351	0.941385	-2.818059
F	-2.835669	0.0	0.0
