16

C	0.0	0.0	0.0
C	-0.469672	0.40741	-1.404858
F	1.402812	0.0	0.0
H	0.425736	0.636199	-1.996008
H	-0.32061	-1.019377	0.196706
C	-0.477081	0.907768	1.105016
H	-0.040556	0.567806	2.050043
H	-1.565571	0.805872	1.117868
H	-0.18429	1.941309	0.915391
N	-1.406265	1.45692	-1.428571
H	-2.230555	1.054107	-0.892164
H	-1.667047	1.643141	-2.38949
N	-0.990136	-0.869419	-2.151827
O	-0.504713	-1.96526	-1.875215
O	-1.78648	-0.679745	-3.066107
F	-2.924981	0.0	0.0
