16

C	0.0	0.0	0.0
C	-0.430573	0.045074	-1.478216
F	1.388559	0.0	0.0
H	0.478492	0.22044	-2.063744
H	-0.338383	-0.929908	0.450917
C	-0.483846	1.177884	0.807401
H	-1.573381	1.100308	0.833466
H	-0.059517	1.111316	1.813863
H	-0.171712	2.115758	0.344508
N	-1.443072	0.970377	-1.77921
H	-1.688921	0.886338	-2.75695
H	-2.253138	0.677327	-1.152526
N	-0.770682	-1.414151	-1.937261
O	-0.126148	-2.344684	-1.449004
O	-1.585292	-1.536526	-2.848555
F	-2.958439	0.0	0.0
