17
Coordinates from ORCA-job run
  C   0.52652739847783      0.23765879970924      0.37004343211280
  C   -0.78473980764345     -0.14762334938295     -0.32476429905841
  F   0.57844849298712     -0.35848433973622      1.59130996215218
  H   -0.76420125412845      0.30264500195999     -1.32196998058108
  C   0.78729488444610      1.71517573952474      0.51046024848451
  H   1.75934120424006      1.86351344166660      0.98490753322967
  H   0.78263015012524      2.20008950596352     -0.46504721493247
  H   0.01632316055845      2.15420418994957      1.14499308402335
  N   1.64210534047695     -0.37165042415832     -0.47207751664212
  O   1.69500852283449      0.03496154834003     -1.62951013914051
  O   2.37489532813427     -1.19874508811419      0.04993870575127
  C   -1.89471837322327      0.44387350605003      0.42335182323746
  N   -2.78773844602308      0.91062452492296      1.02588309673821
  C   -0.95043403160942     -1.66621861282290     -0.44493424756895
  H   -1.91883521265899     -1.89978922980281     -0.88868138018951
  H   -0.17351852455384     -2.08367397182928     -1.08791250539900
  H   -0.89138883244001     -2.13756124224001      0.53600939778261
