17
Coordinates from ORCA-job run
  C   0.50579580518781      0.40375593909911      0.43552331015268
  C   -0.63532069073373     -0.61221299433429      0.31822759197145
  F   0.16207379318647      1.28876671803098      1.42462430471687
  H   -0.74274787239878     -1.04867355131307      1.31727217316193
  C   0.87023165022821      1.15227531718794     -0.81377040477300
  H   1.72986841554652      1.79279958865137     -0.61778982019606
  H   0.02600553192476      1.77778679836360     -1.10547129983799
  H   1.12076546622409      0.46931616657449     -1.62401062897544
  N   1.71097854991173     -0.36232252685069      0.98523273444870
  O   2.68846162180060     -0.49422527729232      0.25573518550783
  O   1.57927977603993     -0.80634918030404      2.12059839102006
  C   -0.25071650867328     -1.67598972954174     -0.60916767094332
  N   0.04212518100346     -2.51361718458209     -1.37842285840160
  C   -1.95438287611874      0.04113600596325     -0.10337495481958
  H   -2.18195031311573      0.87469370049146      0.56157973132684
  H   -1.91070312611131      0.39990278713876     -1.13217708697941
  H   -2.76176440390202     -0.68904257728271     -0.03360869737998
