17
Coordinates from ORCA-job run
  C   0.48875401576611      0.39359446272692      0.46257054649052
  C   -0.65508940217818     -0.60961864650237      0.28063579608606
  F   0.10664063373400      1.27203789662683      1.44384266578996
  H   -0.81301258888028     -1.05667839940116      1.26824425308407
  C   0.91887541940440      1.15169956804459     -0.75977452898097
  H   0.09674691179396      1.79229541633508     -1.08077033148364
  H   1.19576681121905      0.47507291600167     -1.56694180885691
  H   1.77752084487369      1.77752844588112     -0.51775827876077
  N   1.65907830414677     -0.38907204856217      1.06111422852313
  O   1.46882869578200     -0.84467977645613      2.18350744171624
  O   2.66992433089426     -0.52085066201383      0.37879985801109
  C   -0.23747855774998     -1.66656437314906     -0.64020903631602
  N   0.08290607114773     -2.49784539543410     -1.40537187289929
  C   -1.94690746574967      0.06186482238494     -0.19351728078455
  H   -1.85061397374815      0.43702126238758     -1.21293855579328
  H   -2.19942377321490      0.88655873510983      0.47361401424393
  H   -2.76251627724077     -0.66236422397974     -0.17504711006952
