16
Coordinates from ORCA-job run
  C   0.75258798297993     -0.23997260924248     -0.20482591494539
  C   -0.72437134910063     -0.54608675331855      0.16330299988167
  Br  1.39836928456360     -1.63063976495966     -1.35105201677396
  H   -0.71286643592215     -1.43944830829500      0.78830580680175
  N   0.91710678478140      1.10710873525031     -0.92216031957198
  O   0.33011328521643      1.19550833458758     -1.98964039193793
  O   1.59542743764115      1.95490332472843     -0.36906227635372
  N   1.64432683032902     -0.17624478757973      1.03389534549799
  O   2.84880595380196     -0.23713492755544      0.85823295634297
  O   1.04981190791428     -0.04185485912569      2.09870907365449
  N   -1.64307459105622     -0.69954946096340     -0.90934818778590
  H   -1.65777184359765     -1.64398035584586     -1.26272900514242
  H   -1.47625581525491     -0.04025201762114     -1.65765829486389
  N   -1.28536595184684      0.54818712011303      1.04780757255067
  O   -1.08963338741357      1.69909547989031      0.66729384229232
  O   -1.94621009303580      0.19136084993727      2.00892881035334
