16
Coordinates from ORCA-job run
  C   0.79180024221445     -0.40404151502458     -0.05538931688717
  C   -0.73822432876367     -0.36419593641137     -0.16498115585735
  Br  1.46632825964791     -2.15316578175385      0.27816382998066
  H   -1.02906074737232     -1.23021080913397     -0.76252008812299
  N   1.30232786327230      0.06330617372838     -1.43370340152542
  O   1.91418475655195      1.11852399155467     -1.46541638233067
  O   1.00586056253095     -0.66550936415859     -2.36304860667231
  N   1.33907372901283      0.60418940381792      0.94988314852019
  O   2.45883972240694      0.41667421982847      1.38890959846338
  O   0.60626220244297      1.56148630314545      1.17136335142745
  N   -1.20802591409849      0.80882510605646     -0.79664143245173
  H   -1.13063055162437      1.62337718046722     -0.20451269173160
  H   -2.15170670982699      0.69148492188370     -1.13616995107932
  N   -1.37400441046978     -0.62922881110572      1.21094969676539
  O   -0.65345021604332     -0.82098146309155      2.18373794505580
  O   -2.59957445988139     -0.62153361980263      1.19837545644568
