16
Coordinates from ORCA-job run
  C   0.79845301503727     -0.28842124425297     -0.26629501633454
  C   -0.67993134355281     -0.55299108698887      0.05448276044727
  Br  1.49247832893123     -1.69597726198879     -1.35549772626743
  H   -0.70180969173505     -1.49452454206112      0.60894558448271
  N   0.98033998845357      1.04803418868003     -0.97427705481332
  O   0.04330553742624      1.83312878106686     -0.84390054264139
  O   2.02528479544799      1.24066346187620     -1.56985785270289
  N   1.65417700968130     -0.24876962980646      1.01267308063343
  O   2.34172409267548      0.74041999888881      1.19532082088156
  O   1.55656273504868     -1.24309506985527      1.71024039059439
  N   -1.45712659880903     -0.63235752562069     -1.11773540259592
  H   -1.67648861793273      0.28920612772201     -1.47278050473220
  H   -2.31591011419219     -1.13739967524020     -0.95608704772749
  N   -1.21716068214913      0.48476413067261      1.07484547868377
  O   -0.46412227556924      0.82716007405434      1.97685129289968
  O   -2.37877617876158      0.83115927285351      0.92307173919239
