16
Coordinates from ORCA-job run
  C   0.60432526587642      0.47187809189208     -0.06207132095707
  C   -0.62079156356619     -0.43336400758031      0.02781937779593
  Br  0.14397586812116      2.30467491639971     -0.18022962525619
  H   -0.27109687828079     -1.43775213859986      0.27240168269779
  N   1.61533104425045      0.21242769710324      1.07118952521610
  O   2.39125438182039      1.11801400056898      1.33020376426723
  O   1.59542892250191     -0.91267510230578      1.54779401157914
  N   1.37377818470541     -0.00075956541267     -1.32746494969274
  O   1.57401689194987      0.79611499201518     -2.22279924358940
  O   1.70196009516883     -1.17769893039223     -1.27721120930606
  N   -1.32064836408538     -0.42535676961256     -1.19520496783925
  H   -1.80173842144088      0.45049062525108     -1.35501331418279
  H   -1.98165693222801     -1.18664244985927     -1.25111873543087
  N   -1.46483539447904     -0.01012188063827      1.24717849259032
  O   -0.86269659648876      0.36610403780704      2.24540810025780
  O   -2.67760650382539     -0.13333351663638      1.12711841185007
