16
Coordinates from ORCA-job run
  C   0.63246400867166      0.43716905883795      0.00135649523744
  C   -0.64693195252202     -0.39398779791979     -0.02947719306352
  Br  0.28693844368586      2.29313710728280      0.14703724673957
  H   -0.36093440599188     -1.44258707966227      0.06818212965898
  N   1.62323831135775     -0.04238249028906      1.07948326336538
  O   1.53483726768117     -1.22132163742438      1.38890682751160
  O   2.45065396473931      0.76867489367724      1.46251378697052
  N   1.37416891386509      0.10242108057008     -1.32282152543217
  O   1.63037014841897      1.00520649829224     -2.09499535024223
  O   1.62471722086633     -1.08832393717905     -1.44454775006600
  N   -1.34246610282240     -0.16910832645089     -1.23421058807604
  H   -2.04808797018095     -0.87349455041454     -1.39408091718889
  H   -1.76939329242845      0.74791046254457     -1.26393533144805
  N   -1.46469553672158     -0.09567527545525      1.24331915291718
  O   -2.68263123987179     -0.12037004541502      1.11545330254378
  O   -0.84124777874708      0.09273203900537      2.28081645057246
