16
Coordinates from ORCA-job run
  C   0.76198072341178     -0.17261891563590     -0.23461431177691
  C   -0.68441698714442     -0.60334038982861      0.12911868104351
  Br  1.47344964924861     -1.42318314881247     -1.49754066908721
  H   -0.60335163461074     -1.54078993617798      0.67991838657070
  N   0.82509588087792      1.23493402111828     -0.84429168264949
  O   1.45876941220312      2.07981895129243     -0.23675786935749
  O   0.21074129334485      1.36778651492520     -1.89169228197599
  N   1.67232276112159     -0.14930919351409      0.99182702479020
  O   1.09301240694595     -0.14859657412811      2.07339762962893
  O   2.87416684729698     -0.10874119270588      0.79328563459420
  N   -1.61190953585973     -0.72995211681031     -0.93869336964424
  H   -1.58189790821917     -1.64466189543242     -1.36182336195775
  H   -1.50076106695453     -0.00684003170199     -1.63646081545100
  N   -1.29532746240875      0.37752153551740      1.10874375106459
  O   -1.91647773721290     -0.09790190652113      2.04469949171673
  O   -1.17739664204055      1.56587427841557      0.82288376249122
