16
Coordinates from ORCA-job run
  C   0.60462122464928      0.47033942539571     -0.17143609118449
  C   -0.68535548466829     -0.33532242551167      0.03711384770944
  Br  0.31844326684565      2.28837156372185     -0.59862776074605
  H   -0.39126315470913     -1.37411458537621      0.23034259270621
  N   1.55134482347401      0.28266082740649      1.03402303240453
  O   1.67332574625140     -0.89708143469066      1.34752431000823
  O   2.10878863474276      1.24609628541005      1.51419311343264
  N   1.43016331016169     -0.17554423840944     -1.30008398136071
  O   0.88581325931752     -1.04351555362266     -1.97258474196845
  O   2.57308460482635      0.23556434024582     -1.41518152051788
  N   -1.63120059709457     -0.13129532211245     -1.02124070456696
  H   -1.30471191533463     -0.60780730862838     -1.85138309886628
  H   -2.51742498261781     -0.53306984827424     -0.73874300789525
  N   -1.36767419237567      0.10381557924201      1.32101473859131
  O   -2.50184947734991     -0.33199716616730      1.47638833659348
  O   -0.74610506611864      0.80389986137107      2.11068093566022
