16
Coordinates from ORCA-job run
  C   0.63784376932771      0.47943602605689     -0.03076803975497
  C   -0.62282727533695     -0.39103191099508     -0.02322756123159
  Br  0.37294495348967      2.34463744233739      0.18202655381828
  H   -0.29647838464404     -1.42532228700639     -0.12805918066173
  N   1.66934100073441      0.01564578630489      0.98828652665318
  O   1.25592514617477     -0.69905646865819      1.89244949449026
  O   2.81012485425290      0.41124805853313      0.80746378573871
  N   1.30584560572674      0.16363822707368     -1.39494549518503
  O   1.43861960870373      1.04986712930186     -2.21302694546841
  O   1.62892587004819     -1.01325203896522     -1.49444677329943
  N   -1.43739686403767     -0.00326871135775     -1.11891934049012
  H   -2.13862163754115     -0.70167950644738     -1.32671522889677
  H   -1.87497008160851      0.89637081459969     -0.96025121697634
  N   -1.37107111420620     -0.37329417390743      1.30665008138842
  O   -1.80756858290750      0.70906711940256      1.68569987322334
  O   -1.56763686817610     -1.46500550627268      1.82878346665221
