16
Coordinates from ORCA-job run
  C   0.81838357709968     -0.31920516429781     -0.14534591188220
  C   -0.71271487431368     -0.41835286787782     -0.14718881363117
  Br  1.67112708147732     -2.01715707733355     -0.01821091908902
  H   -0.96892442442556     -1.25489654978775     -0.79995804470116
  N   1.17840603300800      0.30887441010570     -1.50725305050990
  O   0.87939299920668     -0.36486787269441     -2.47645636241832
  O   1.68768787889823      1.41749872186932     -1.48482775402367
  N   1.34759636492350      0.64921832633224      0.90737903028567
  O   0.55050864399598      1.50905899043406      1.26481128472691
  O   2.51023436216146      0.53471675658010      1.24943088045679
  N   -1.33331575623827      0.75290413908001     -0.63519387243845
  H   -1.28408742806671      1.51840204081998      0.02178007597177
  H   -2.28571190544443      0.57460094658931     -0.91918146800639
  N   -1.21555837989855     -0.85928803735292      1.23920406007312
  O   -2.43401376894020     -0.97121063720125      1.30982453953811
  O   -0.40901040344344     -1.05929612526520      2.14018632564790
