16
Coordinates from ORCA-job run
  C   0.61005591741988      0.44266446714230     -0.00496435643585
  C   -0.69050238670856     -0.39104267968149      0.06769579741088
  Br  0.42537802083077      2.31705082280067      0.20958301361977
  H   -0.39491590231465     -1.43683836428376     -0.00854973248362
  N   1.68602635238412     -0.04688774875933      0.95639890866868
  O   1.29029633346923     -0.68117928361495      1.92554110025384
  O   2.83435692474689      0.25820439324908      0.67506564129483
  N   1.17862333351993      0.09823969345875     -1.39992830671801
  O   1.24101543366541      0.96407036962627     -2.25301914041919
  O   1.47308462127247     -1.08686009377183     -1.51172058363006
  N   -1.64536307207955     -0.06679088616380     -0.93378718219475
  H   -1.46782507314355     -0.52455143926446     -1.81496998124387
  H   -1.78736321149851      0.92757426123974     -1.04689672483344
  N   -1.38889961344126     -0.27992652733119      1.40463477138074
  O   -1.82350134410843      0.82742584177829      1.70051048715423
  O   -1.53646633401419     -1.32015282642430      2.03240628817582
