16
Coordinates from ORCA-job run
  C   0.75584293739866     -0.23375401877848     -0.20228439494947
  C   -0.71958155998572     -0.55326456695649      0.16075061274219
  Br  1.41817187304746     -1.61840838133317     -1.34611159195712
  H   -0.70247947926791     -1.44654306153000      0.78574357771666
  N   0.90961180138294      1.11485723356567     -0.91930938553807
  O   0.32500376016806      1.19707161511419     -1.98865015259250
  O   1.57697974896702      1.96994746440173     -0.36412512397120
  N   1.64272767712654     -0.16106758478260      1.03924744699065
  O   2.84838440388328     -0.20930195739310      0.86740640755410
  O   1.04364369711643     -0.03294075374325      2.10224889319813
  N   -1.63278899164744     -0.71443247339573     -0.91502134399598
  H   -1.63995299561467     -1.65896609835871     -1.26813233061134
  H   -1.47052811849667     -0.05327486438661     -1.66263628085840
  N   -1.29306846884367      0.53584325670875      1.04376224545741
  O   -1.95312360394664      0.17282255702465      2.00314539476547
  O   -1.10784268128768      1.68841163384313      0.66296602604946
