16
Coordinates from ORCA-job run
  C   0.83682042135690     -0.22783990556641     -0.19904526214401
  C   -0.63944785838875     -0.60161727843940     -0.00185914406518
  Br  1.72014036338322     -1.57530137843249     -1.22546689310499
  H   -0.63825436270490     -1.54611058694086      0.54798517453032
  N   0.97778049666217      1.12207152202430     -0.89109226980499
  O   -0.02094229992619      1.83685798969067     -0.83592043291587
  O   2.05027972465266      1.39295520932343     -1.40103585413567
  N   1.57869795589453     -0.13160949485048      1.14578830050177
  O   1.49622875474887     -1.13323232349982      1.83492412296756
  O   2.17554148712404      0.90395673569974      1.38269028040485
  N   -1.30909717782192     -0.72939321137926     -1.23453172496998
  H   -2.13862271527021     -1.29737300710902     -1.14557654956556
  H   -1.56525102564187      0.17575308434894     -1.60662813241899
  N   -1.33444599386152      0.38658249832803      0.97141030015829
  O   -2.50348200524655      0.64328590935948      0.72653636499527
  O   -0.68494576496047      0.78101423744318      1.93082171956718
