16
Coordinates from ORCA-job run
  C   0.61327155270487      0.45934640248525     -0.06215371136851
  C   -0.62945719894297     -0.42142327780460      0.02835885157723
  Br  0.18930318624896      2.30194324019263     -0.16445121797772
  H   -0.29916552924084     -1.43425555505636      0.26488403941181
  N   1.62540518198051      0.17150744788047      1.06354247896800
  O   2.41959212792338      1.06010128606613      1.32581776610184
  O   1.58672965448390     -0.95702454550807      1.53073713473930
  N   1.36611325790381     -0.01900517055242     -1.33486482978652
  O   1.66866845101140     -1.20327598104182     -1.29627406027190
  O   1.58060862030836      0.78099140194101     -2.22415649592729
  N   -1.33563743017184     -0.39094852554966     -1.19072313929434
  H   -1.79991219110404      0.49553092496172     -1.34148192599083
  H   -2.01237814844666     -1.13825515764144     -1.24747539720982
  N   -1.45810229132325      0.01177504832174      1.25509408181035
  O   -2.67398258635172     -0.08068362479483      1.13980962567265
  O   -0.84205665698386      0.36467608610023      2.25333679954574
