16
Coordinates from ORCA-job run
  C   0.83694419642329     -0.28370443672120     -0.11201171147396
  C   -0.68709722130079     -0.45512373947636     -0.16000115807695
  Br  1.76437815592868     -1.93517094241264      0.08111951363997
  H   -0.88265904885350     -1.31668301352467     -0.80116716835922
  N   1.21108715789703      0.33270198720933     -1.47532996307627
  O   1.66429160367450      1.46552680549991     -1.46176751757541
  O   0.97757871112050     -0.37521589840993     -2.43820500829149
  N   1.28527238108675      0.73127505516222      0.93512483943302
  O   2.44063942257862      0.68093671184363      1.31504718740303
  O   0.43671902587772      1.55828196635593      1.24873795420161
  N   -1.34512515987729      0.67454863491064     -0.69430140826281
  H   -1.35373703851826      1.45566634478620     -0.05417033565826
  H   -2.27787622820752      0.44587772103058     -1.00591505642264
  N   -1.21388048553677     -0.88968937947174      1.21937756797783
  O   -0.42884814340412     -1.03394409656767      2.14950066721812
  O   -2.42768732888884     -1.05628372021423      1.25396159732344
