16
Coordinates from ORCA-job run
  C   0.83513997392653     -0.22956256283746     -0.20197415116531
  C   -0.64189389649889     -0.59933926353182     -0.00083718235750
  Br  1.71003721689831     -1.57666275927522     -1.23633724302320
  H   -0.64057696485531     -1.54546842708258      0.54625001123777
  N   0.97832843400425      1.12200808574632     -0.89040938445690
  O   2.05075113107505      1.39153124807100     -1.40117451460474
  O   -0.01858989064985      1.83898548089793     -0.83201632896386
  N   1.58179789950241     -0.14048392655343      1.14028371524084
  O   2.18241468664998      0.89248175592417      1.37902971717921
  O   1.49906786205176     -1.14454251959900      1.82587074057300
  N   -1.31611236878060     -0.72277232006408     -1.23138556573113
  H   -1.57073698189291      0.18353910974179     -1.60160104911302
  H   -2.14681767963095     -1.28878194765482     -1.14100704268508
  N   -1.32988596468202      0.38890540290355      0.97639361542622
  O   -2.49782685053717      0.65344935214418      0.73464431900956
  O   -0.67609660658060      0.77771329116947      1.93527034343413
