16
Coordinates from ORCA-job run
  C   0.79451543558688     -0.38823732593321     -0.10242596951699
  C   -0.73636318710115     -0.35168613346118     -0.19760526917905
  Br  1.48691413146118     -2.15634952754551      0.04195853104733
  H   -1.02423413193869     -1.15294250085372     -0.88072437587003
  N   1.29106143625083      0.22523900319762     -1.42738828892275
  O   0.99308381342435     -0.40465175017194     -2.42603497803412
  O   1.89487529953582      1.28295854554824     -1.35247719625965
  N   1.34064082327467      0.51436206646259      0.99949948171818
  O   2.46557262770226      0.29254186769664      1.40836189615606
  O   0.60125975358258      1.43611932364532      1.32530722663325
  N   -1.22110575800203      0.87674989247265     -0.69873886812656
  H   -2.16579602782483      0.78738747192617     -1.04377847901485
  H   -1.14625756599406      1.62529158453215     -0.02488869043806
  N   -1.35963791921747     -0.76609755200159      1.14739687307859
  O   -0.63023088479153     -1.05113060251268      2.09026798148093
  O   -2.58529784594880     -0.76955436300154      1.14327012524775
