16
Coordinates from ORCA-job run
  C   0.82032233376774     -0.28358793996437     -0.19869551662929
  C   -0.70036129657985     -0.45466972382612     -0.08724447815374
  Br  1.76214918027976     -1.93583194229868     -0.10332150457360
  H   -0.96218302599627     -1.31619687885954     -0.70431286131795
  N   1.05082872891725      0.33132596977213     -1.59418186099979
  O   1.50840153927316      1.46194373633038     -1.62917015570879
  O   0.71423807331013     -0.37583182697820     -2.52658660800485
  N   1.37593413065407      0.73124211728659      0.79548548690476
  O   2.56401197620465      0.67877107352081      1.05518194475660
  O   0.56559865983178      1.56032663951279      1.19354198567122
  N   -1.41037175188623      0.67529830375180     -0.55018419972232
  H   -2.37068117163258      0.44606739387117     -0.76174767912588
  H   -1.35194165692801      1.45616630588052      0.08766066507335
  N   -1.08018015746202     -0.88859635419473      1.33970653863384
  O   -2.28363453336761     -1.05557005204920      1.50109769266608
  O   -0.20213102838598     -1.03185682175534      2.18277055053035
