16
Coordinates from ORCA-job run
  C   0.72083140714001     -0.27518844562997     -0.25626937022815
  C   -0.76316512857017     -0.51127602258900      0.14253907617473
  Br  1.28241781141390     -1.70027756296669     -1.40883245465284
  H   -0.75057405827800     -1.44222323892468      0.71544855656024
  N   0.93206349183969      1.05258611938153     -0.96792867129112
  O   0.02298249657063      1.86641574903283     -0.82523213270830
  O   1.97464097352934      1.20702169797507     -1.57975855047888
  N   1.64764003006454     -0.27489536135367      0.97106524021020
  O   2.25156360726602      0.75868811752934      1.20601610863714
  O   1.65952357269902     -1.31921278426438      1.59809277011112
  N   -1.71318709891193     -0.58340859036763     -0.89543514686757
  H   -1.64198694836574     -1.42950164840630     -1.43840281686863
  H   -1.74268082146888      0.24326784933289     -1.47379967809034
  N   -1.19760916857186      0.55781696712003      1.15226278799742
  O   -2.21962730347378      1.18121649608795      0.93137059414708
  O   -0.46383286288279      0.66797065804267      2.12986368734789
