16
Coordinates from ORCA-job run
  C   0.60278049345939      0.35583117450641     -0.13828573772054
  C   -0.76211866390767     -0.35909252475793      0.03276953392467
  Br  0.44308737315637      2.22659620052953     -0.40823987751258
  H   -0.54005929602190     -1.41887041764255      0.16199080531416
  N   1.50828787215049      0.01350783608645      1.05845142128719
  O   1.76170815681627      0.87998046299881      1.87353406590036
  O   1.84940457824915     -1.16254815162208      1.06741213023976
  N   1.36581116679743     -0.25313187384188     -1.32288407290865
  O   0.81254822941268     -1.15158799991852     -1.94521867393930
  O   2.48167150438395      0.20069332943506     -1.51622491539466
  N   -1.74276825187715     -0.16900153385453     -0.96613857727461
  H   -1.49111445671512     -0.64965226239950     -1.81706152177061
  H   -1.94707511875763      0.80640589986988     -1.13326405523387
  N   -1.31942093053136      0.11234969044208      1.36179032647573
  O   -2.15315643923149      1.00806534313443      1.32941993623564
  O   -0.86758621738341     -0.43954517296566      2.36194921237733
