16
Coordinates from ORCA-job run
  C   0.64536724082973      0.38722757761793     -0.03073102418625
  C   -0.71782475050600     -0.33083953981055      0.09904698695865
  Br  0.63649694727396      2.26674136895209      0.21780499299412
  H   -0.51911496380473     -1.39716914483490     -0.00209910530213
  N   1.72097808494304     -0.20942932454935      0.86890629400057
  O   1.31902492413799     -0.79705258389796      1.86443806408768
  O   2.87611553989126     -0.02194517191934      0.52062696288658
  N   1.11160415133972      0.01923967748340     -1.45754680667349
  O   1.22596404312139      0.89303529892010     -2.29680920009287
  O   1.28018250108057     -1.18662704956711     -1.60349883947777
  N   -1.68756106616904      0.08875880343968     -0.85095937643615
  H   -1.59745364790532     -0.37460935020729     -1.74231323216013
  H   -1.74874260537277      1.09271627941738     -0.94981461579393
  N   -1.33848817262241     -0.17818271504222      1.47031067679256
  O   -1.66808400247860      0.95711143876711      1.79409839010651
  O   -1.53846422375879     -1.20997556476897      2.09753983229605
