16
Coordinates from ORCA-job run
  C   0.83367970288426     -0.23735013588104     -0.20003230567755
  C   -0.64626201799497     -0.59513092826478      0.00118385237974
  Br  1.70041386544406     -1.59552558679589     -1.22642367001571
  H   -0.65338344129885     -1.53718923608970      0.55510483574407
  N   0.98773547511670      1.10977664246449     -0.89426718223428
  O   2.06229838916678      1.36871705763247     -1.40610388470588
  O   -0.00324867255886      1.83521610689281     -0.83884297243210
  N   1.57984648958990     -0.14683221184792      1.14322543754065
  O   2.18543246362310      0.88395861792845      1.37848037263663
  O   1.49095829512890     -1.14757246293954      1.83271638200455
  N   -1.31953881467554     -0.72076947330647     -1.22948887207289
  H   -2.15537059981259     -1.27881622863817     -1.13645768975550
  H   -1.56636090917299      0.18556044977150     -1.60507639574665
  N   -1.32830220914051      0.40512970051534      0.97162804881823
  O   -2.49062479247232      0.68515476142036      0.72102038962888
  O   -0.67627322382707      0.78467292713809      1.93533365388781
