16
Coordinates from ORCA-job run
  C   0.71245270188555     -0.36857872583147     -0.10141723896151
  C   -0.84048190089874     -0.37338147478797     -0.07390400910592
  Br  1.41558973014263     -2.08344418428619      0.34081850557525
  H   -1.15793498330758     -1.19869499087733     -0.70833304437745
  N   1.19240319781124     -0.03113348382953     -1.51399456893399
  O   0.39557440509520     -0.23400213995273     -2.42182988846746
  O   2.34291447963922      0.36469792747834     -1.61033893845784
  N   1.30231649416858      0.73337499010681      0.78084974396303
  O   1.00007815938147      1.85912691070113      0.39767851088285
  O   1.97916488536892      0.43243649417643      1.74452705132933
  N   -1.54053163160163      0.80822956396557     -0.42278809180826
  H   -1.60222992387040      0.91060691941871     -1.42520628487712
  H   -1.14368013666592      1.63740655434815     -0.00271850493878
  N   -1.24615439441240     -0.74323884244952      1.33151391804920
  O   -1.86608101353967     -1.78705578088418      1.48956962287290
  O   -0.94440006919647      0.07665026270377      2.19557321725578
