16
Coordinates from ORCA-job run
  C   0.78870860205561     -0.31315166714429     -0.26748156180387
  C   -0.69988853914382     -0.52851620151155      0.04181428414529
  Br  1.43617428837642     -1.72737557685240     -1.37677511555100
  H   -0.75983725602850     -1.47924553026841      0.57745242824621
  N   1.02257324067552      1.02733254150209     -0.95259274355778
  O   2.07510224559579      1.19047195847428     -1.54346863195627
  O   0.11611233210490      1.84521504369983     -0.80879064765850
  N   1.63898633137886     -0.32497809148465      1.01486892248771
  O   1.50071137096560     -1.32568422034064      1.69643379866468
  O   2.36245884306026      0.63450926552703      1.21596812637669
  N   -1.47296870833332     -0.55650851581046     -1.13542305100940
  H   -2.35020243142784     -1.03341091474083     -0.98831768220184
  H   -1.65653399559840      0.37878008764856     -1.47438240359697
  N   -1.20450155708618      0.50808881040211      1.07971068517243
  O   -2.35432735447917      0.89371384912596      0.93266064661778
  O   -0.44256741211573      0.81075916177336      1.98832294562484
