16
Coordinates from ORCA-job run
  C   0.76140977267934     -0.26561867605584     -0.06060591069321
  C   -0.77475221227143     -0.49240251535390     -0.09116456374178
  Br  1.68169496134611     -1.84729782996521      0.47079100651833
  H   -0.94427711580964     -1.37553457281826     -0.70417180184983
  N   1.24813495810525      0.09255057243044     -1.46574520485137
  O   0.52894115431006     -0.25347583451553     -2.39479923297068
  O   2.33267904491625      0.64827404303632     -1.53317683790867
  N   1.15067931961668      0.93654816352381      0.80173774483117
  O   1.82291194661471      0.76634495694440      1.79997173416782
  O   0.70767940038733      1.99467122137304      0.36627391344283
  N   -1.61977203332427      0.56396217934450     -0.51138634088478
  H   -1.65913635894890      0.62021115847965     -1.51842645037657
  H   -1.36286624037954      1.45593685745151     -0.11189447700167
  N   -1.18265911983109     -0.87057039055355      1.31184809414108
  O   -1.03789670032223      0.01232272757505      2.15403843672554
  O   -1.65377077708863     -1.98692206089643      1.48670989045180
