16
Coordinates from ORCA-job run
  C   0.85338751824482     -0.25398983745345      0.00216877661479
  C   -0.65421486260323     -0.51263808787037     -0.11822447364963
  Br  1.82709560593520     -1.78931433525060      0.56866175843045
  H   -0.76432422246032     -1.48729941809193     -0.59727808674726
  N   1.30915198554693      0.11585373097743     -1.42398814382849
  O   1.71960846330102      1.25237122450415     -1.59348339909920
  O   1.17673114171589     -0.76966883594110     -2.24923924555444
  N   1.17824409936075      0.96029957989868      0.86614008939721
  O   0.27642365379614      1.78549461146730      0.95664618241504
  O   2.30091964494004      1.04252620455738      1.32942250484720
  N   -1.31243462863515      0.46146963913826     -0.90106076768039
  H   -1.40230941367893      1.34611072295911     -0.42218800245360
  H   -2.20803395307567      0.12885509406760     -1.22776704511178
  N   -1.26975000039661     -0.71088552307753      1.27838902287856
  O   -0.55460573675033     -0.63690569653573      2.27101447358736
  O   -2.47488929524054     -0.93327907334919      1.25978635595417
