16
Coordinates from ORCA-job run
  C   0.76181551931672     -0.43575129050998     -0.14974322431791
  C   -0.76559355628199     -0.29409139636695     -0.17916545672843
  Br  1.33788830058236     -2.25013456927916     -0.09820544512545
  H   -1.13393620350655     -1.04678633011190     -0.87868003966048
  N   1.24585003634007      0.19420899765016     -1.47137757887032
  O   1.92263146777538      1.20580074651399     -1.38413576883338
  O   0.86644878127303     -0.37534754714153     -2.47860835662588
  N   1.41102275681616      0.38516521817923      0.95995047408761
  O   0.74890556701545      1.33979753783342      1.35066163497550
  O   2.53390781438121      0.07404816032936      1.31243115321428
  N   -1.18520734075459      0.98249111046767     -0.61429509708236
  H   -1.03316093653606      1.69759147893917      0.08249369326651
  H   -2.14664718186770      0.96971880894419     -0.92240986597681
  N   -1.36217934654676     -0.71907079228771      1.17455272677656
  O   -2.58453064606304     -0.64211786727848      1.22118599611971
  O   -0.61721503194369     -1.08752226588148      2.07534515478086
