16
Coordinates from ORCA-job run
  C   0.69880667792239      0.31900712637979     -0.03879904407893
  C   -0.70678725985478     -0.27253096973446      0.01119922533112
  Br  0.70007308455332      2.20178327757834      0.16144326600551
  H   -0.60609104629257     -1.35757596892412      0.06930759239198
  N   1.66072303587493     -0.35845531148255      0.95649314201717
  O   1.38512359797220     -1.51153569249844      1.25288635203848
  O   2.64404354742713      0.28239924395535      1.29024117222304
  N   1.27523111264288     -0.10322394065226     -1.41905776671033
  O   1.30136418842101     -1.31555180771115     -1.57741942194249
  O   1.63334516641067      0.76191221494520     -2.19374856897146
  N   -1.43372883513911      0.10693952912385     -1.13496543376085
  H   -2.26380361390327     -0.45598375442260     -1.25231513884722
  H   -1.69081709197053      1.08558811633682     -1.11813794149744
  N   -1.36822708677169      0.12669990634678      1.34576193425385
  O   -0.65007595643381      0.17771150198365      2.33684103249433
  O   -2.57817952085879      0.31381652877579      1.30826959905324
