16
Coordinates from ORCA-job run
  C   0.79402422070464     -0.30241830424640     -0.26599222318634
  C   -0.69201539967571     -0.53896928005309      0.04066204880154
  Br  1.46353632629691     -1.70848978954494     -1.37217195723085
  H   -0.74015702614497     -1.49200882555371      0.57344950047911
  N   1.00725084786229      1.04101752988728     -0.95239342254393
  O   0.09321589734979      1.84851122544567     -0.79759262650224
  O   2.05178431277849      1.21715132473778     -1.55363061047554
  N   1.64383798693343     -0.29819011812000      1.01648921611798
  O   1.52427404780153     -1.30091797151332      1.69847095105590
  O   2.34918187678766      0.67511482813958      1.21668771456496
  N   -1.46145251661671     -0.57391731646567     -1.13882769452810
  H   -1.65976015196692      0.36000892962422     -1.47322946857351
  H   -2.33108176339681     -1.06596213882196     -0.99663277620395
  N   -1.21425142620582      0.48669007664741      1.08052828602004
  O   -2.36617100588691      0.86354114632883      0.92689962392659
  O   -0.46221622662089      0.78983868350830      1.99728343827834
