16
Coordinates from ORCA-job run
  C   0.71649371075097     -0.28962545877166     -0.25150964912179
  C   -0.77806161181701     -0.49369905303565      0.12291180659572
  Br  1.25686414690464     -1.70831596649350     -1.42257364050799
  H   -0.79839854732171     -1.43463814307949      0.67908103655645
  N   0.97106499162076      1.04500904986259     -0.93530407141895
  O   2.02117115191711      1.18153404671480     -1.53860969112630
  O   0.08599017156783      1.88265902302391     -0.77967330303731
  N   1.62718109966708     -0.33631195032484      0.98707754745387
  O   1.59903549653420     -1.39030618007779      1.59728878666221
  O   2.26096265121654      0.67365236101509      1.24455037682160
  N   -1.71512439960077     -0.52134729208883     -0.92909457061550
  H   -1.65663485900443     -1.35779609467002     -1.48829315118515
  H   -1.71485563685054      0.31733881122044     -1.49078873604270
  N   -1.19846013285629      0.56792054217499      1.14645452321132
  O   -2.20420163797353      1.21768734995114      0.92684775334434
  O   -0.47202659475484      0.64523895457881      2.13263498241017
