16
Coordinates from ORCA-job run
  C   0.83930850030843     -0.22628368140417     -0.19052449806448
  C   -0.64223220317996     -0.59857709066807     -0.03009129851241
  Br  1.73447858816276     -1.54763410902414     -1.24029784870912
  H   -0.65433224388066     -1.55833699097060      0.49254274779643
  N   0.99824262916006      1.14215437662995     -0.84052335581026
  O   0.00120290083207      1.85920256695547     -0.78465223890372
  O   2.08175208978497      1.42300166750540     -1.32108282563936
  N   1.55765176967136     -0.17114297540432      1.16927727101382
  O   2.14483343073192      0.85907380095816      1.45002426707073
  O   1.46688091547542     -1.19426210742975      1.82495149810630
  N   -1.28988956879794     -0.68899717774241     -1.27760787375772
  H   -2.12229364863758     -1.25691305175172     -1.22023107114829
  H   -1.53741348986132      0.22718484244849     -1.62802808242632
  N   -1.34967163857313      0.36553569574122      0.95796849541848
  O   -2.50750130746459      0.64986412318093      0.69163516498183
  O   -0.72001672373180      0.71513011097558      1.94763964858408
