12

C	0.0	0.0	0.0
C	-0.551265	0.007242	-1.436166
Cl	1.773191	0.0	0.0
H	-1.665302	-0.014447	-1.284315
H	-0.371085	0.890051	0.509666
C	-0.425315	-1.198922	0.728269
N	-0.603819	-2.177497	1.353278
C	-0.122296	-1.162806	-2.195704
N	0.209236	-2.103883	-2.815352
C	-0.18245	1.23999	-2.125984
N	0.092311	2.239125	-2.679224
Br	-3.464492	0.0	0.0
