12

C	0.0	0.0	0.0
C	-0.551943	0.01268	-1.43464
Cl	1.773269	0.0	0.0
H	-1.666155	-0.008367	-1.280921
H	-0.3705	0.888193	0.513157
C	-0.425447	-1.201391	0.724383
N	-0.590735	-2.186312	1.342393
C	-0.12555	-1.155389	-2.198781
N	0.204028	-2.095019	-2.821532
C	-0.181868	1.246818	-2.121182
N	0.09363	2.247907	-2.670351
Br	-3.459995	0.0	0.0
