12

C	0.0	0.0	0.0
C	-0.528758	0.055032	-1.445223
Cl	1.773238	0.0	0.0
H	-1.643012	0.025512	-1.317349
H	-0.372779	0.873775	0.535394
C	-0.428397	-1.223854	0.681889
N	-0.593915	-2.224903	1.274046
C	-0.071499	-1.085086	-2.234726
N	0.29081	-1.998996	-2.877638
C	-0.143248	1.30958	-2.086586
N	0.147894	2.322003	-2.606179
Br	-3.436638	0.0	0.0
