14

C	-0.407356	-0.047171	-1.45769
C	0.0	0.0	0.0
Cl	-2.223469	-0.153155	-1.596113
H	1.099101	0.0	0.0
H	-0.04471	-0.980299	-1.893978
H	-0.337743	-0.918874	0.498396
C	0.09536	1.143773	-2.241222
H	-0.306751	2.060588	-1.812291
H	1.185842	1.163607	-2.151421
H	-0.18348	1.07436	-3.295016
N	-0.465854	1.223402	0.650865
H	0.215388	1.496029	1.346922
H	-1.350161	1.062706	1.114325
Cl	3.534149	0.0	0.0
