12

C	-0.506101	0.003998	-1.428313
C	0.0	0.0	0.0
F	-0.183304	1.218335	-2.032709
H	1.101127	0.0	0.0
H	-0.022243	-0.793743	-1.996071
H	-1.595611	-0.092073	-1.467257
C	-0.476737	-1.228057	0.634656
N	-0.850287	-2.228281	1.125876
N	-0.53718	1.174083	0.717575
H	-0.25476	1.967998	0.149311
H	0.023158	1.256099	1.563127
H	2.830261	0.0	0.0
