12

C	-0.432435	-0.084544	-1.461931
C	0.0	0.0	0.0
F	-0.246275	1.147516	-2.081233
H	1.095485	0.0	0.0
H	0.182312	-0.821533	-1.982621
H	-1.493625	-0.335549	-1.565977
C	-0.488662	-1.205282	0.671446
N	-0.909799	-2.182199	1.171991
N	-0.43973	1.199075	0.705105
H	-1.280713	1.578183	0.282264
H	0.3039	1.877976	0.587407
H	2.784163	0.0	0.0
