12

C	-0.505945	-0.050328	-1.42736
C	0.0	0.0	0.0
F	-0.184502	1.140782	-2.077349
H	1.101103	0.0	0.0
H	-0.021029	-0.868289	-1.964483
H	-1.595326	-0.149194	-1.462518
C	-0.477272	-1.202893	0.680593
N	-0.85077	-2.183873	1.209218
N	-0.537142	1.200606	0.671878
H	0.022952	1.315257	1.513671
H	-0.254351	1.972128	0.073662
H	2.831489	0.0	0.0
