12

C	-0.499064	0.124298	-1.427215
C	0.0	0.0	0.0
F	-0.43877	-1.087746	-2.105752
H	1.093726	0.0	0.0
H	-1.537104	0.468971	-1.452321
H	0.147996	0.838396	-1.941293
C	-0.526449	-1.19446	0.653622
N	-0.991104	-2.11392	1.222105
N	-0.355757	1.240723	0.701926
H	-1.171783	1.111361	1.289231
H	0.436725	1.482351	1.291329
H	2.759922	0.0	0.0
