16

C	-0.400835	-5.1e-05	-1.458486
C	0.0	0.0	0.0
F	0.073412	1.106016	-2.077305
H	1.091889	0.0	0.0
H	-0.018982	-0.896026	-1.951492
N	-1.901607	-0.029794	-1.682269
O	-2.452744	0.978511	-2.099003
O	-2.439522	-1.105994	-1.431602
C	-0.517713	-1.157109	0.829931
H	-0.065938	-1.090884	1.821764
H	-0.200742	-2.100305	0.381695
H	-1.603049	-1.1458	0.914582
N	-0.474153	1.286381	0.609549
O	-1.698741	1.428246	0.691137
O	0.359085	2.096038	0.997595
Br	3.461064	0.0	0.0
