16

C	-0.494852	0.022375	-1.430434
C	0.0	0.0	0.0
F	-1.850855	0.190864	-1.475671
H	1.092004	0.0	0.0
H	-0.010755	0.794435	-2.022674
N	-0.178768	-1.291257	-2.099386
O	-1.047584	-2.158551	-2.083525
O	0.93827	-1.378306	-2.596157
C	-0.537351	-1.146663	0.824735
H	-0.194024	-1.040422	1.851623
H	-1.627546	-1.185462	0.809527
H	-0.137446	-2.082495	0.432546
N	-0.403582	1.329466	0.575839
O	-0.214562	2.320248	-0.127006
O	-0.867206	1.358588	1.711728
Br	3.409439	0.0	0.0
