16

C	-0.532609	-0.064594	-1.419688
C	0.0	0.0	0.0
F	-0.192333	-1.248053	-1.989672
H	1.090924	0.0	0.0
H	-1.614836	0.068784	-1.469883
N	0.05596	1.04914	-2.251875
O	-0.54339	2.119155	-2.160512
O	1.049581	0.810442	-2.920662
C	-0.502354	-1.180289	0.810394
H	-1.592645	-1.249593	0.795323
H	-0.062494	-2.090726	0.401234
H	-0.160366	-1.078137	1.842281
N	-0.518308	1.274623	0.590424
O	0.281423	2.16419	0.860966
O	-1.740549	1.3365	0.760408
Br	3.530255	0.0	0.0
