19

C	0.0	0.0	0.0
C	-0.315306	-0.014933	-1.529064
Br	1.951914	0.0	0.0
H	0.322854	0.749434	-1.974555
N	-0.394303	1.275741	0.694865
O	-0.359666	2.298577	0.0245
O	-0.5888	1.219907	1.900164
C	-0.357523	-1.233833	0.81494
H	0.085896	-2.113528	0.346286
H	-1.445624	-1.270276	0.836146
H	0.067634	-1.132061	1.81239
N	-1.68881	0.40548	-2.055937
O	-1.873045	1.611876	-2.151598
O	-2.403186	-0.447061	-2.568907
C	-0.028033	-1.382773	-2.129554
H	-0.781412	-2.087146	-1.783924
H	0.967943	-1.735707	-1.865827
H	-0.103139	-1.324466	-3.216685
F	-2.425667	0.0	0.0
