19

C	0.0	0.0	0.0
C	-0.345813	0.054964	-1.519334
Br	1.951798	0.0	0.0
H	0.326052	0.797533	-1.954751
N	-0.362175	1.282375	0.726964
O	-0.170054	2.32504	0.112467
O	-0.708409	1.19764	1.896516
C	-0.415058	-1.22951	0.779862
H	-0.049331	-1.141614	1.802547
H	0.028462	-2.116862	0.326068
H	-1.509791	-1.217427	0.736943
N	-1.704302	0.585879	-1.993635
O	-2.4182	-0.177423	-2.633438
O	-1.86456	1.797342	-1.929816
C	-0.140111	-1.308432	-2.157427
H	-0.933893	-1.976731	-1.829716
H	-0.199601	-1.221693	-3.242602
H	0.833693	-1.719909	-1.892208
F	-2.519578	0.0	0.0
