19

C	0.0	0.0	0.0
C	-0.355575	-0.120913	-1.512424
Br	1.9495	0.0	0.0
H	0.324751	0.553191	-2.037049
N	-0.351078	1.362381	0.574959
O	-0.702029	1.414541	1.744835
O	-0.142935	2.327822	-0.150822
C	-0.42418	-1.121582	0.924333
H	-1.520021	-1.087879	0.89646
H	-0.013685	-2.065912	0.564827
H	-0.033416	-0.928418	1.922917
N	-1.707811	0.373116	-2.037694
O	-1.855733	1.586324	-2.098538
O	-2.430261	-0.445226	-2.594225
C	-0.177099	-1.554358	-1.980743
H	0.785106	-1.952387	-1.659204
H	-0.228409	-1.598583	-3.068556
H	-0.988505	-2.158403	-1.58021
F	-2.538854	0.0	0.0
