19

C	0.0	0.0	0.0
C	-0.626954	-0.054105	-1.400087
Br	1.944707	0.0	0.0
H	-1.71161	0.114863	-1.133478
N	-0.401818	1.323008	0.660172
O	-0.399066	1.354023	1.883738
O	-0.631825	2.283625	-0.063906
C	-0.498578	-1.134882	0.871048
H	-0.132419	-1.012686	1.88828
H	-0.132808	-2.081669	0.471584
H	-1.596224	-1.04642	0.809013
N	-0.562344	-1.472517	-1.89036
O	0.551358	-1.974205	-2.074725
O	-1.623771	-2.04277	-2.135391
C	-0.030314	0.793904	-2.507364
H	-0.097785	1.847066	-2.249241
H	-0.604967	0.622047	-3.423001
H	1.011897	0.52548	-2.693167
F	-2.853469	0.0	0.0
