16

C	0.0	0.0	0.0
C	-0.368203	-0.298813	-1.473022
F	1.357349	0.0	0.0
H	0.56124	-0.100405	-2.025909
N	-0.338063	1.409013	0.442423
O	-0.538573	1.597795	1.634629
O	-0.21511	2.278118	-0.415759
C	-0.491628	-0.962564	0.983881
N	-0.550654	-1.823685	1.784825
C	-1.397528	0.53218	-2.100226
N	-2.101894	1.085912	-2.860708
C	-0.735773	-1.77436	-1.654747
H	0.047503	-2.422729	-1.253716
H	-0.860276	-1.99253	-2.718438
H	-1.672284	-1.940144	-1.125128
F	-2.259119	0.0	0.0
