16

C	0.0	0.0	0.0
C	-0.41018	-0.057886	-1.486155
F	1.36513	0.0	0.0
H	-1.486694	0.180376	-1.438668
N	-0.401808	1.306635	0.669025
O	-0.692139	2.267716	-0.029613
O	-0.270647	1.32083	1.888678
C	-0.488367	-1.109036	0.818187
N	-0.539892	-2.069617	1.495347
C	-0.264699	-1.438266	-1.946437
N	-0.112054	-2.518085	-2.385102
C	0.429897	0.844128	-2.395665
H	0.041064	0.769863	-3.414331
H	0.355378	1.88025	-2.072076
H	1.479304	0.54242	-2.410233
F	-2.385542	0.0	0.0
