16

C	0.0	0.0	0.0
C	-0.306654	0.245046	-1.486933
F	1.3818	0.0	0.0
H	0.463729	0.95916	-1.800599
N	-0.359587	1.176313	0.876717
O	-0.461042	0.963218	2.078166
O	-0.370183	2.27376	0.332416
C	-0.481828	-1.251624	0.567503
N	-0.542179	-2.361719	0.956454
C	-1.589822	0.843809	-1.865433
N	-2.368984	1.371098	-2.5742
C	-0.09659	-1.062785	-2.258129
H	0.893557	-1.478373	-2.044973
H	-0.177673	-0.869754	-3.330652
H	-0.860523	-1.787537	-1.969216
F	-2.251889	0.0	0.0
