16

C	0.0	0.0	0.0
C	-0.208135	-0.213628	-1.552263
F	1.360306	0.0	0.0
H	0.196587	-1.229287	-1.673988
N	-0.413538	1.352245	0.505001
O	-0.428732	1.486773	1.723415
O	-0.546962	2.242331	-0.32478
C	-0.533828	-1.070203	0.829498
N	-0.605339	-2.050545	1.479474
C	0.746281	0.65371	-2.269911
N	1.459547	1.299765	-2.943558
C	-1.535033	-0.147534	-2.304977
H	-1.32599	-0.379101	-3.358583
H	-2.239273	-0.846814	-1.872919
H	-1.967918	0.84455	-2.220301
F	-2.275247	0.0	0.0
