16

C	0.0	0.0	0.0
C	-0.357769	0.142051	-1.492679
F	1.382161	0.0	0.0
H	0.539383	0.587622	-1.94495
N	-0.323499	1.235685	0.813118
O	-0.145427	2.300337	0.229994
O	-0.575407	1.095167	2.000808
C	-0.476475	-1.200602	0.677299
N	-0.542991	-2.252382	1.200926
C	-1.467065	1.034944	-1.841821
N	-2.171206	1.7679	-2.436879
C	-0.596875	-1.238337	-2.107227
H	-1.497462	-1.652283	-1.658722
H	-0.731924	-1.140915	-3.187398
H	0.25449	-1.89905	-1.915766
F	-2.254251	0.0	0.0
