16

C	0.0	0.0	0.0
C	-0.247944	-0.144233	-1.555724
F	1.380453	0.0	0.0
H	-0.136953	-1.227343	-1.705092
N	-0.373375	1.339778	0.56632
O	-0.38408	2.279308	-0.220746
O	-0.479761	1.414197	1.783574
C	-0.511521	-1.095282	0.809091
N	-0.58394	-2.079938	1.450766
C	0.889477	0.469677	-2.272213
N	1.722744	0.952379	-2.944391
C	-1.505865	0.305378	-2.307646
H	-2.361435	-0.245339	-1.941718
H	-1.32615	0.135625	-3.376607
H	-1.684676	1.363722	-2.137142
F	-2.251864	0.0	0.0
