16

C	0.0	0.0	0.0
C	-0.211834	0.034854	-1.566009
F	1.379683	0.0	0.0
H	0.090368	-0.985744	-1.842357
N	-0.388081	1.263918	0.709194
O	-0.476787	2.276051	0.025168
O	-0.420927	1.209974	1.933126
C	-0.519187	-1.183072	0.665636
N	-0.581923	-2.243614	1.174963
C	0.823004	0.90937	-2.154371
N	1.594991	1.58624	-2.725725
C	-1.51902	0.352004	-2.29511
H	-1.858142	1.352161	-2.039375
H	-2.289031	-0.345705	-1.993004
H	-1.310829	0.295476	-3.371305
F	-2.251552	0.0	0.0
