12

C	0.0	0.0	0.0
C	-0.534059	-0.310243	-1.390719
Cl	1.785812	0.0	0.0
H	-0.192032	0.440666	-2.107702
H	-0.279352	1.03831	0.215125
H	-1.636084	-0.234196	-1.222658
N	-0.542618	-0.955387	0.920561
H	-1.569257	-0.789696	0.766195
H	-0.319415	-0.655135	1.864354
C	-0.15405	-1.631703	-1.871735
N	0.121426	-2.683099	-2.316443
F	-2.829459	0.0	0.0
