12

C	0.0	0.0	0.0
C	-0.532221	-0.144954	-1.419268
Cl	1.787378	0.0	0.0
H	-0.244966	-1.127332	-1.805433
H	-0.273286	0.996872	0.360732
H	-1.633674	-0.088529	-1.248527
N	-0.554038	-1.074215	0.773391
H	-1.580222	-0.878213	0.638601
H	-0.336529	-0.902455	1.750967
C	-0.082774	0.895954	-2.330896
N	0.253029	1.731195	-3.087716
F	-2.830942	0.0	0.0
