12

C	0.0	0.0	0.0
C	-0.520477	-0.010132	-1.431526
Cl	1.786054	0.0	0.0
H	-1.62363	0.014205	-1.265194
H	-0.283634	0.967555	0.427958
H	-0.188924	0.884332	-1.963365
N	-0.544047	-1.130725	0.689302
H	-1.569985	-0.928244	0.578464
H	-0.310476	-1.053184	1.674757
C	-0.114139	-1.190335	-2.18177
N	0.198865	-2.111811	-2.839618
F	-2.821906	0.0	0.0
