12

C	0.0	0.0	0.0
C	-0.322379	0.097315	-1.499325
Cl	1.788106	0.0	0.0
H	0.096933	-0.810357	-1.947697
H	-0.301129	0.916323	0.514709
H	0.247003	0.938094	-1.909369
N	-0.5153	-1.214621	0.551491
H	-0.3172	-1.208951	1.547823
H	-1.546696	-1.002027	0.436324
C	-1.693697	0.241469	-2.019121
N	-2.484089	0.378844	-2.881786
F	-2.669033	0.0	0.0
