12

C	0.0	0.0	0.0
C	-0.518158	0.320572	-1.408036
Cl	1.789421	0.0	0.0
H	-0.227577	-0.482156	-2.09393
H	-0.304637	0.814149	0.657054
H	-1.61975	0.306089	-1.226674
N	-0.55038	-1.209607	0.528972
H	-1.57429	-0.964517	0.495244
H	-0.392365	-1.94955	-0.150074
C	-0.074364	1.59793	-1.944506
N	0.267303	2.634754	-2.379449
F	-2.815863	0.0	0.0
