12

C	0.0	0.0	0.0
C	-0.492599	-0.043029	-1.453662
Cl	1.790512	0.0	0.0
H	-1.592735	0.036283	-1.296459
H	-0.323989	0.95374	0.412732
H	-0.095461	0.792701	-2.037785
N	-0.518014	-1.039369	0.834672
H	-0.288519	-1.934789	0.411758
H	-1.544735	-0.859384	0.723102
C	-0.146938	-1.295653	-2.109619
N	0.125384	-2.31566	-2.625639
F	-2.779247	0.0	0.0
