12

C	0.0	0.0	0.0
C	-0.510216	-0.04632	-1.446762
Cl	1.790785	0.0	0.0
H	-1.612509	0.011125	-1.268535
H	-0.30253	0.963191	0.410305
H	-0.149634	0.80737	-2.029426
N	-0.522917	-1.026548	0.847962
H	-0.299585	-1.930304	0.441805
H	-1.548829	-0.852247	0.747413
C	-0.145724	-1.281837	-2.120043
N	0.142836	-2.287002	-2.656291
F	-2.799252	0.0	0.0
