13

C	-0.383324	-0.049709	-1.460613
C	0.0	0.0	0.0
F	-0.296087	1.262727	-1.991808
H	1.092147	0.0	0.0
H	-0.356193	-0.896709	0.513918
H	-0.421011	0.889624	0.466739
N	0.533424	-0.910445	-2.140375
H	0.495385	-0.730092	-3.137197
H	1.480777	-0.72754	-1.799843
N	-1.777717	-0.403013	-1.690104
H	-1.961801	-0.28378	-2.682456
H	-1.851475	-1.395205	-1.49597
H	3.11029	0.0	0.0
