13

C	-0.406663	-0.075248	-1.459602
C	0.0	0.0	0.0
F	-0.303949	1.248752	-1.973266
H	1.092677	0.0	0.0
H	-0.349548	-0.88841	0.532885
H	-0.40232	0.90119	0.466172
N	0.456099	-0.971853	-2.127355
H	1.418393	-0.798201	-1.840473
H	0.348404	-0.858975	-3.126121
N	-1.77782	-0.439496	-1.782157
H	-1.92895	-1.374584	-1.422398
H	-2.394144	0.192152	-1.281595
H	3.100288	0.0	0.0
