16

C	-0.458143	-0.030152	-1.45653
C	0.0	0.0	0.0
Cl	0.287351	-1.33228	-2.314858
H	1.097702	0.0	0.0
N	-1.981333	-0.153522	-1.587714
O	-2.638606	-0.106806	-0.554886
O	-2.419399	-0.263267	-2.724637
N	-0.157169	1.313378	-2.139546
O	0.881538	1.419482	-2.765526
O	-1.001808	2.181124	-1.936074
N	-0.390287	-1.240273	0.649021
H	0.376656	-1.543963	1.234631
H	-1.229305	-1.122697	1.198073
C	-0.449757	1.204469	0.702897
N	-0.768753	2.143547	1.33377
Cl	3.187374	0.0	0.0
