15

C	-0.198996	0.099981	-1.501882
C	0.0	0.0	0.0
Br	-2.043386	0.667341	-2.060179
H	1.10452	0.0	0.0
H	-0.190224	-0.927773	-1.873179
N	0.808535	0.945842	-2.045828
H	1.663075	0.787734	-1.487967
H	0.97796	0.703594	-3.013056
N	-0.612463	-1.248694	0.495733
O	-1.671098	-1.197103	1.1197
O	-0.029966	-2.285054	0.175155
N	-0.407101	1.152707	0.828611
O	-0.387051	0.976254	2.045452
O	-0.624519	2.223103	0.267686
F	2.529668	0.0	0.0
