15

C	-0.578328	0.033855	-1.398161
C	0.0	0.0	0.0
Br	0.335615	-1.224865	-2.58411
H	1.102626	0.0	0.0
H	-0.312904	1.006774	-1.817384
N	-1.99042	-0.284048	-1.416639
H	-2.46258	0.416419	-0.85392
H	-2.338345	-0.219401	-2.365794
N	-0.526078	-1.172972	0.744252
O	-0.029107	-2.254378	0.450233
O	-1.432169	-1.007105	1.563201
N	-0.414117	1.210523	0.755951
O	0.034243	1.322852	1.890934
O	-1.134587	2.053832	0.202377
F	2.466441	0.0	0.0
