15

C	-0.243193	-0.160104	-1.500907
C	0.0	0.0	0.0
Br	-0.634088	1.775695	-2.342356
H	1.087089	0.0	0.0
H	-1.185096	-0.622666	-1.780857
N	0.88739	-0.754391	-1.991483
H	1.763846	-0.474447	-1.503831
H	0.93036	-0.924784	-2.982622
N	-0.479172	-1.198948	0.744462
O	-0.343461	-1.152158	1.964322
O	-0.933212	-2.153608	0.118288
N	-0.663822	1.157523	0.633049
O	0.026398	2.12099	0.940802
O	-1.88252	1.062013	0.794232
F	2.581999	0.0	0.0
