15

C	-0.168415	0.076727	-1.498248
C	0.0	0.0	0.0
Br	-2.024532	0.334956	-2.166965
H	1.095659	0.0	0.0
H	0.05099	-0.930815	-1.860168
N	0.716563	1.104253	-1.966376
H	1.605861	0.938106	-1.47295
H	0.860876	1.003211	-2.962759
N	-0.591732	-1.229875	0.553811
O	-0.221615	-2.28001	0.030371
O	-1.411697	-1.149652	1.466459
N	-0.432027	1.17232	0.794222
O	-0.017214	1.193725	1.952329
O	-1.11939	2.045466	0.269408
F	2.521241	0.0	0.0
