15

C	-0.280015	0.053456	-1.511779
C	0.0	0.0	0.0
Br	-0.561556	1.95419	-2.055925
H	1.090477	0.0	0.0
H	-1.219403	-0.431648	-1.774036
N	0.823537	-0.49995	-2.219162
H	0.661254	-1.488032	-2.357512
H	1.678165	-0.362727	-1.65598
N	-0.424773	-1.315849	0.544105
O	-0.473296	-1.418729	1.768108
O	-0.629742	-2.240494	-0.246842
N	-0.690716	1.019792	0.812869
O	-0.020854	1.916356	1.314017
O	-1.916361	0.906347	0.898503
F	2.54545	0.0	0.0
