16
Coordinates from ORCA-job run
  C   0.82820195545290     -0.19461656903236      0.49182719514507
  C   -0.51713038419301      0.30593730752427     -0.03206695877331
  Cl  0.89129790326441     -1.99734831685491      0.41090498436695
  H   -0.45031090965425      1.40027465653103      0.03809931819979
  H   0.89681037341490      0.03936727706846      1.55730602014074
  C   2.01260697714732      0.37676949408923     -0.26017461672138
  H   1.94367670028637      0.11893676855560     -1.31555641509046
  H   2.00614789737191      1.46719497270177     -0.16871392936343
  H   2.95125692773149      0.00002094935729      0.14900509696561
  C   -1.69058523096375     -0.15282510748110      0.83181908431133
  H   -1.80676361290323     -1.23745912088377      0.78183781905622
  H   -2.61738873846303      0.30605813858476      0.47710215802287
  H   -1.55374225948676      0.12873619083726      1.88060562014002
  N   -0.64272271752797     -0.01360569926195     -1.45096764172786
  H   -1.44800436307028      0.46495593899236     -1.83626407410892
  H   -0.80335051840703     -1.00939688072794     -1.55676366056325
