16
Coordinates from ORCA-job run
  C   0.92656895282998      0.44715083981291     -0.20871755142861
  C   -0.58130270988529      0.44877438972255      0.04298769727253
  Cl  1.56535572065365      2.10939110098979      0.01217547065152
  H   -0.74604418212219      0.94873406807978      1.00435663414104
  H   1.10327495798139      0.20681409734598     -1.26247605344242
  C   1.71489367253055     -0.49542798700372      0.68320378743272
  H   1.51111719617723     -0.28612667159293      1.73624961702784
  H   2.78485499519485     -0.36951917906399      0.51415474468999
  H   1.45864057925018     -1.53554903317581      0.47262222274779
  C   -1.14065288015070     -0.97479554243652      0.12078369005434
  H   -0.89646754795434     -1.53594516068631     -0.78803095130883
  H   -2.22955456725436     -0.92997885120357      0.20116641368752
  H   -0.76513645320073     -1.53312709185174      0.98043829094228
  N   -1.22932112338327      1.26499072689607     -0.98044132374937
  H   -1.30625845896726      0.73163025903165     -1.84025265467445
  H   -2.16996815169971      1.50098403513585     -0.68922003404388
