16
Coordinates from ORCA-job run
  C   0.78390332634547     -0.15180590889657      0.46763423776375
  C   -0.62009147102820      0.28225973377125      0.01429337880054
  Cl  0.94349476233983     -1.94374153606438      0.38015172799895
  H   -0.61594216586586      1.37689281871669      0.11150121962668
  H   0.89951086679787      0.09394744603182      1.52694880770734
  C   1.90430725093621      0.47830066405461     -0.33666127054366
  H   1.82296901570328      1.56867254388115     -0.29261993806442
  H   2.87861401760474      0.18839966297523      0.05889062525316
  H   1.86004413613878      0.16242242912628     -1.38019061076450
  C   -1.71161790388151     -0.26491084263186      0.92303339324688
  H   -1.50818674677671     -0.03621481933621      1.97249233957155
  H   -1.79187699296007     -1.34940002091821      0.82246979767480
  H   -2.66865733635222      0.17566199037552      0.64164807704190
  N   -0.95896693285393     -0.01565534940251     -1.36902278241333
  H   -0.88967689947168     -1.01378341552883     -1.53191721495306
  H   -0.32882692667603      0.44995460384603     -2.00965178794658
