16
Coordinates from ORCA-job run
  C   0.76113482787348      0.70988981457511      0.26637642752023
  C   -0.74741998697716      0.49356248081361      0.05399419454859
  Cl  1.07492164783747      1.12352166925912      1.99125352557767
  H   -1.25074030961500      1.35577789420618      0.50525896177987
  H   1.05178575481210      1.60634539885948     -0.28932413910502
  C   1.64543660609019     -0.45568836581535     -0.13257788958053
  H   1.46488524519891     -1.32209516388038      0.50452968315609
  H   2.69794242869270     -0.18352383606447     -0.04166865223430
  H   1.45821075348887     -0.73508717162872     -1.17288956838043
  C   -1.27230852938529     -0.77200428137674      0.71320750089179
  H   -0.88098619716468     -1.66393044612794      0.21532246603000
  H   -2.35937681288339     -0.79501906248312      0.62795271489319
  H   -0.99847917312648     -0.81892342902883      1.76792453895893
  N   -1.12256610387182      0.47800506758961     -1.35668681403998
  H   -0.79234021905203      1.30975811028763     -1.83220195282531
  H   -0.73109993191786     -0.33058867918519     -1.82447099719080
