18

C	-0.318457	-0.064776	-1.504884
C	0.0	0.0	0.0
Br	-2.068994	-0.841917	-1.892139
H	1.09996	0.0	0.0
N	-0.32148	1.387888	-2.020979
O	-1.286079	1.862404	-2.601073
O	0.739501	1.963773	-1.802078
N	0.676298	-0.740019	-2.292309
H	0.524556	-1.738847	-2.251707
H	1.593228	-0.534102	-1.883867
C	-0.409367	-1.263143	0.737727
H	-1.490059	-1.29701	0.899295
H	-0.108368	-2.159354	0.192054
H	0.106086	-1.277604	1.702025
N	-0.595142	1.183811	0.610137
H	0.105075	1.916139	0.625337
H	-0.838436	0.979435	1.570794
Cl	3.427741	0.0	0.0
