19
Coordinates from ORCA-job run
  C   -0.64565857231650     -0.41757756006372     -0.34661050208006
  C   0.80238056974477     -0.33318678883024      0.16009030325489
  H   -0.68564895759099     -1.28917286186550     -1.01513760913505
  H   1.03537697520807     -1.31753689670195      0.60420464619906
  C   -1.06756816203605      0.82177815282150     -1.13220335342561
  H   -0.88986025546397      1.71857699574335     -0.53564810426457
  H   -0.51751557295954      0.91805060314349     -2.07086266623517
  H   -2.13185420100201      0.77403278932625     -1.37981302360647
  C   -1.61050985439912     -0.67073112589796      0.81135061561116
  H   -1.69811543278636      0.21697958742337      1.44399396594242
  H   -1.28073405516758     -1.50984002826928      1.43311404403092
  H   -2.61135326353349     -0.90557230854527      0.43957003939613
  N   0.92616266794625      0.75029932526381      1.14197918396716
  H   0.49800938351548      0.47231643132654      2.01735299667945
  H   1.90752462053275      0.91484508407923      1.33709687886510
  C   1.79907936340500     -0.08368835478732     -0.96294073346725
  H   2.82529574982762     -0.20656167650295     -0.60276257467588
  H   1.64783260622967     -0.78608835102124     -1.78655432025030
  H   1.69615639084600      0.93407698335790     -1.34421978680593
