19
Coordinates from ORCA-job run
  C   -0.60834174825981      0.21180230239370     -0.42904184093628
  C   0.70567149328724      0.04847760353174      0.34646296045487
  H   -0.35577717864000      0.69705800040457     -1.38524063263212
  H   0.44815392365711     -0.30939070053173      1.35343727161081
  C   -1.57417069860829      1.11893808195507      0.33018234065469
  H   -1.09994972802178      2.06576764471389      0.58449167477323
  H   -2.47169766778799      1.31634146733824     -0.26306054186844
  H   -1.89019207347834      0.63503407661511      1.26081829526565
  C   -1.27122720414774     -1.12981971621341     -0.73649722493987
  H   -1.42335453769947     -1.70275569006641      0.18475149419528
  H   -0.68218416716689     -1.74126060730825     -1.42248511055184
  H   -2.25226224765350     -0.97430516201280     -1.19322556115231
  N   1.31395066827317      1.37308413533980      0.52041456527060
  H   2.12218440881772      1.29708957851551      1.12833609158932
  H   1.65580835841259      1.69439903372384     -0.38055277629929
  C   1.65638784181593     -0.96256877560218     -0.29770805876949
  H   1.26258074343188     -1.98113625527512     -0.27954810942472
  H   2.61328448479284     -0.96819923854395      0.23224018108805
  H   1.85213532897533     -0.68955577897761     -1.34077501832816
