19
Coordinates from ORCA-job run
  C   -0.77781448436377      0.04828615577065      0.30549636000634
  C   0.73443781888449     -0.11883243449416      0.51979055254398
  H   -1.17394492550536      0.32396323445838      1.29033513193388
  H   0.85125886611366     -0.87511773150224      1.30710814054792
  C   -1.43951432045081     -1.25675809096985     -0.13268772194233
  H   -2.52843335661473     -1.17084777756128     -0.08206134038550
  H   -1.14106550645512     -2.09173774140822      0.50881826196143
  H   -1.17986281088217     -1.51259638885000     -1.16358535785061
  C   -1.12390993626592      1.18023601546979     -0.65983970906567
  H   -0.73184738439528      2.13814345620095     -0.31110004036915
  H   -2.20914903863968      1.28602859392952     -0.74307789707238
  H   -0.73971018670355      0.98709884419556     -1.66575782644056
  N   1.27997454148290      1.12799501084533      1.07167098974498
  H   2.19840518745605      0.94633665266808      1.46147986602274
  H   1.41669823964523      1.79492770249417      0.31921485368129
  C   1.48740030886210     -0.61148970912079     -0.71802006083952
  H   2.55003820351419     -0.72245282901931     -0.48382682999048
  H   1.40498923728875      0.10608665729514     -1.53962546031192
  H   1.12404954702902     -1.57926962040173     -1.07233191217446
