19
Coordinates from ORCA-job run
  C   -0.60576629670669      0.15335424491091     -0.45047287736143
  C   0.75842994194187      0.00214038108676      0.23500974903200
  H   -0.40701066802700      0.54972890134747     -1.45505089359818
  H   0.57638520101991     -0.46499634101815      1.22105316389786
  C   -1.48773768035924      1.15688549677641      0.29185930098911
  H   -2.48185316368584      1.20819005479451     -0.16013671403649
  H   -1.06626077766401      2.16329181703727      0.26238747892433
  H   -1.61637486506579      0.85998460069205      1.33927768747838
  C   -1.33005837531345     -1.18656284000892     -0.57287987839272
  H   -0.79873252522768     -1.89086784887672     -1.21530055123750
  H   -2.32739422999030     -1.04633275934804     -0.99822174403114
  H   -1.45332877458794     -1.65129630962660      0.41137405552418
  N   1.38956305598985      1.32104815542794      0.35807249890834
  H   0.92265526017149      1.86283407224895      1.07540973041664
  H   2.34922962111515      1.20404426505760      0.66408724379341
  C   1.70657727484164     -0.89451062911754     -0.55012716875637
  H   1.86020311735873     -0.48229305840229     -1.55105322547766
  H   2.68085524347842     -0.94955923541408     -0.05410467397805
  H   1.33061864071086     -1.91408296756753     -0.63818318209470
