19
Coordinates from ORCA-job run
  C   -0.69601552131478      0.03972794740640      0.31091644921781
  C   0.82592041589131     -0.18289482459956      0.44958842029696
  H   -1.03969363570267      0.36096852026995      1.30567007057106
  H   0.95495609756570     -1.01819174042408      1.15125250997800
  C   -1.43271090358088     -1.25499831269271     -0.02934872667403
  H   -2.51515097990160     -1.11870074197603      0.04683450005927
  H   -1.14947064601125     -2.06441385585842      0.65024539971595
  H   -1.21572728257176     -1.57992419370984     -1.05040947036876
  C   -1.05711699094315      1.14005874850118     -0.68372764156148
  H   -0.52727417965342      2.07274577914147     -0.47344856085586
  H   -0.82517239157371      0.83922297265323     -1.70889044156534
  H   -2.12769277649596      1.35837517742494     -0.64158790483241
  N   1.55691450055034      0.94612036114128      1.02974275556560
  H   1.54706487952758      1.73003577635732      0.38699373313222
  H   1.10233661247643      1.25101029051484      1.88371531427810
  C   1.51048806635542     -0.56217238629278     -0.85705617922932
  H   1.46800217905433      0.26154962560115     -1.57603356535218
  H   2.56242958564520     -0.77730557617467     -0.66211740431894
  H   1.05691297068288     -1.44021356728367     -1.32033925805663
