15

C	-0.399967	0.002499	-1.487414
C	0.0	0.0	0.0
Cl	-0.625829	1.715381	-2.074297
H	1.088893	0.0	0.0
H	-1.373097	-0.463273	-1.639642
N	0.579268	-0.644395	-2.310065
H	0.416232	-1.64045	-2.225119
H	1.500636	-0.45297	-1.908778
N	-0.358916	-1.342746	0.558356
O	-0.650303	-2.268132	-0.217717
O	-0.23769	-1.483967	1.772501
N	-0.511909	1.01023	0.883794
H	0.278377	1.386842	1.396495
H	-0.914102	1.761532	0.342658
H	2.69643	0.0	0.0
