15

C	-0.49285	0.002225	-1.417948
C	0.0	0.0	0.0
Cl	-2.450902	0.007341	-1.353055
H	1.091607	0.0	0.0
H	-0.320822	-0.940585	-1.920872
N	-0.012248	1.092047	-2.129056
H	-0.402298	1.179577	-3.053329
H	-0.080163	1.95171	-1.606614
N	-0.392228	-1.299791	0.637176
O	-0.262925	-2.309443	-0.064362
O	-0.71111	-1.318587	1.822925
N	-0.36691	1.116502	0.776711
H	0.416721	1.723971	0.963587
H	-1.233462	1.572564	0.545041
H	2.607159	0.0	0.0
