15

C	-0.566475	0.035943	-1.407094
C	0.0	0.0	0.0
Cl	-0.11605	-1.521697	-2.280605
H	1.089625	0.0	0.0
H	-0.005003	0.806656	-1.933073
N	-1.960493	0.306389	-1.456133
H	-2.277974	0.365544	-2.415213
H	-2.474349	-0.419415	-0.972553
N	-0.521655	-1.245492	0.699765
O	-1.728029	-1.243325	1.006159
O	0.246241	-2.167587	0.944838
N	-0.385213	1.190244	0.685104
H	-1.353781	1.178457	0.967584
H	0.239405	1.33167	1.46874
H	2.812938	0.0	0.0
