17

C	0.0	0.0	0.0
C	-0.653819	-0.03654	-1.355799
Cl	1.790952	0.0	0.0
H	-1.763479	-0.139172	-1.026162
H	-0.282884	-0.919313	0.510667
C	-0.479475	1.191347	0.807262
H	-1.576289	1.165221	0.781249
H	-0.099792	2.12897	0.39481
H	-0.132238	1.105711	1.839674
N	-0.297236	-1.284725	-2.061263
O	-0.229019	-2.320367	-1.391677
O	-0.147062	-1.258029	-3.290066
C	-0.463878	1.178171	-2.230163
H	-0.924551	2.037087	-1.739273
H	0.593295	1.389242	-2.415159
H	-0.959424	1.031313	-3.188404
H	-3.074336	0.0	0.0
