17

C	0.0	0.0	0.0
C	-0.321091	-0.012715	-1.513637
Cl	1.79296	0.0	0.0
H	0.286685	-0.807088	-1.951283
H	-0.287743	-0.993898	0.347467
C	-0.679012	1.033344	0.855157
H	-0.396361	0.885687	1.899561
H	-1.763698	0.853137	0.760122
H	-0.440753	2.050761	0.552095
N	0.22191	1.215311	-2.181894
O	1.023749	1.053429	-3.104486
O	-0.197264	2.305913	-1.810074
C	-1.768704	-0.180617	-1.921434
H	-2.135202	-1.143191	-1.58547
H	-2.461108	0.522936	-1.44565
H	-1.829126	-0.135392	-3.012559
H	-3.917113	0.0	0.0
