11
Coordinates from ORCA-job run
  C   -0.16782697635726      0.18982309672575      0.19313220769243
  C   0.90282905856491     -0.87747870944977      0.03895527341954
  Cl  -0.81743851318182      0.05777674931348      1.92147781096737
  H   0.45030213882506     -1.86329339209229      0.16447629005193
  H   1.33468164918074     -0.80041632554091     -0.96010797781433
  H   1.68098663972309     -0.75345077567406      0.79043834745126
  C   0.40846650734067      1.53639133073463      0.09864804330435
  N   0.87475941169419      2.60940727708473      0.00044323654962
  N   -1.17641874722530      0.04401454845321     -0.79327435482625
  H   -1.58326435005909     -0.88250878335746     -0.75850672668658
  H   -1.90707681850519      0.73773498380268     -0.69568215010934
