11
Coordinates from ORCA-job run
  C   -0.21260658955362      0.21001526271505      0.32570814771959
  C   0.84221163216916     -0.84422245243465      0.00078820536514
  Cl  -0.70245632528386     -0.02217366052096      2.04422176324890
  H   1.71052252815590     -0.75392397955086      0.65462202917236
  H   0.40600008182081     -1.83708111295190      0.12830425413115
  H   1.16177472590579     -0.72410156523634     -1.03764102826941
  C   0.36873184836802      1.55382675114121      0.20022450387628
  N   0.84566476083294      2.61480303078220      0.04133633309839
  N   -1.41512231367530      0.16573728300644     -0.47562481944106
  H   -1.19702839947698      0.40480178071405     -1.43676773122517
  H   -1.80769194926287     -0.76868133766422     -0.44717165767617
