11
Coordinates from ORCA-job run
  C   -0.20176055344613      0.08171086993869      0.32149455056733
  C   0.94476514380104     -0.84981982801843     -0.03105609007128
  Cl  -0.68882627512125     -0.20162869323973      2.02830062060796
  H   1.79253680997782     -0.68644987391167      0.63351621732049
  H   0.59281620230074     -1.87714540545197      0.06310785522204
  H   1.26396688498254     -0.66743304943086     -1.06088994517085
  C   0.24032361048994      1.48866959784861      0.24107081684197
  N   0.60189962414474      2.59845827410513      0.10314352887797
  N   -1.34512316138598     -0.20931651992354     -0.50962906571926
  H   -2.10828050512942      0.42502211749758     -0.30330682884910
  H   -1.09031778061403     -0.10406748941379     -1.48575165962726
