16

C	0.050293	0.048664	-0.027315
C	-0.347566	0.254145	-1.530913
Br	2.021956	-0.304002	0.043917
H	0.38559	0.959303	-1.945384
C	-0.126619	1.332831	0.64695
N	-0.268999	2.377305	1.168412
C	-0.709809	-1.063291	0.660887
H	-0.448262	-2.015808	0.194218
H	-1.799847	-0.88645	0.503768
H	-0.450468	-1.098719	1.721312
N	-1.679575	0.742069	-1.743494
H	-2.410219	0.155119	-1.220771
H	-1.735952	1.693429	-1.397687
C	-0.148893	-1.019853	-2.245493
N	0.020336	-2.023666	-2.830549
F	-3.312067	-0.593159	-0.282636
