15

C	0.0	0.0	0.0
C	-0.55076	-0.442556	-1.339936
Cl	1.801425	0.0	0.0
H	-1.638992	-0.300459	-1.186196
H	-0.297087	-0.732188	0.752646
H	-0.177622	0.234416	-2.119439
C	-0.535316	1.357108	0.400346
H	-0.233287	2.118128	-0.327584
H	-1.629707	1.204256	0.392759
H	-0.172493	1.653661	1.389431
C	-0.2415	-1.891804	-1.688023
H	-0.697504	-2.554122	-0.945611
H	-0.665	-2.155938	-2.66226
H	0.833779	-2.095753	-1.719681
F	-2.988288	0.0	0.0
