15

C	0.0	0.0	0.0
C	-0.550702	-0.176129	-1.40111
Cl	1.80136	0.0	0.0
H	-0.145777	0.616546	-2.042289
H	-0.301437	-0.859833	0.599792
H	-1.634765	-0.033135	-1.229274
C	-0.529025	1.259055	0.650133
H	-0.226144	2.140531	0.075874
H	-1.624178	1.116486	0.619391
H	-0.161746	1.36511	1.675376
C	-0.290861	-1.556106	-1.988293
H	-0.891606	-2.295914	-1.451958
H	0.761824	-1.848006	-1.921631
H	-0.58109	-1.595916	-3.04365
F	-2.98185	0.0	0.0
