15

C	0.0	0.0	0.0
C	-0.528558	0.216774	-1.425614
Cl	1.790148	0.0	0.0
H	-1.62347	0.276951	-1.30878
H	-0.304027	0.853136	0.609753
C	-0.4984	-1.291713	0.61303
H	-0.139665	-2.150866	0.04128
H	-0.128239	-1.38868	1.635505
H	-1.591852	-1.27276	0.620899
N	-0.221169	-0.831008	-2.38974
H	0.733004	-1.148929	-2.261815
H	-0.849043	-1.608713	-2.233393
C	-0.059984	1.509708	-1.947203
N	0.303139	2.548418	-2.356477
Br	-3.848301	0.0	0.0
