15

C	0.0	0.0	0.0
C	-0.404555	0.301803	-1.469829
Cl	1.789465	0.0	0.0
H	0.237168	1.129003	-1.795388
H	-0.301805	0.864708	0.596004
C	-0.589804	-1.26897	0.565555
H	-0.267539	-2.138602	-0.011069
H	-1.681874	-1.189334	0.533579
H	-0.28403	-1.40402	1.604997
N	-1.770158	0.682598	-1.73287
H	-2.4623	0.01879	-1.386829
H	-1.989145	1.545714	-1.249757
C	-0.03869	-0.847894	-2.317986
N	0.266	-1.755504	-2.997192
Br	-4.507181	0.0	0.0
