15

C	0.0	0.0	0.0
C	-0.555442	-0.151162	-1.411817
Cl	1.793819	0.0	0.0
H	-1.649574	-0.119179	-1.267701
H	-0.303641	0.979078	0.376458
C	-0.497812	-1.097429	0.919088
H	-0.145481	-0.917464	1.937348
H	-1.591299	-1.081432	0.908077
H	-0.136104	-2.06514	0.57514
N	-0.19187	-1.434288	-1.999782
H	0.751437	-1.393146	-2.366238
H	-0.824609	-1.641034	-2.763091
C	-0.17409	0.996042	-2.258488
N	0.125125	1.875831	-2.977875
Br	-3.886262	0.0	0.0
