15

C	0.0	0.0	0.0
C	-0.455891	-0.392792	-1.423101
Cl	1.789386	0.0	0.0
H	0.321969	-0.065515	-2.119741
H	-0.291936	1.045181	0.116583
C	-0.574583	-0.848221	1.113437
H	-0.221067	-1.877891	1.043041
H	-1.668813	-0.836585	1.049167
H	-0.279017	-0.44253	2.083385
N	-1.667795	0.319374	-1.767281
H	-2.439546	0.141395	-1.113829
H	-2.00378	0.019704	-2.675756
C	-0.505735	-1.87063	-1.55123
N	-0.545861	-3.031781	-1.726346
Br	-4.484783	0.0	0.0
