16

C	0.0	0.0	0.0
C	-0.367216	0.132824	-1.510109
F	1.362269	0.0	0.0
H	0.412772	0.79851	-1.892567
N	-0.245179	1.407854	0.672234
O	-0.084313	2.410519	-0.020539
O	-0.476944	1.408388	1.876887
N	-0.610437	-1.030344	0.68065
H	-0.426099	-0.947252	1.675399
H	-1.636116	-0.898797	0.522865
N	-1.647973	0.649598	-1.926633
H	-1.61629	1.653489	-1.785757
H	-2.387051	0.304004	-1.265183
C	-0.108863	-1.184894	-2.124379
N	0.118579	-2.20372	-2.662235
H	-3.19012	0.0	0.0
