16

C	0.0	0.0	0.0
C	-0.350982	0.022461	-1.510196
F	1.387716	0.0	0.0
H	-1.452298	0.026882	-1.503472
N	-0.572772	1.173744	0.716374
O	-0.62701	2.235867	0.063715
O	-0.536734	1.118609	1.967317
N	-0.399642	-1.220812	0.608023
H	-0.889368	-1.001965	1.461831
H	0.441806	-1.746984	0.792233
N	0.16165	-1.210141	-2.132568
H	1.096885	-1.053436	-2.483989
H	-0.428743	-1.43643	-2.926515
C	0.183857	1.179585	-2.243201
N	0.634184	1.969377	-2.992328
H	-2.474044	0.0	0.0
