16

C	0.0	0.0	0.0
C	-0.51178	0.042699	-1.44951
F	1.364073	0.0	0.0
H	-1.614834	0.137667	-1.296419
N	-0.586285	1.193725	0.643536
O	-1.749813	0.934292	1.171098
O	-0.258225	2.296028	0.13379
N	-0.424605	-1.168516	0.687747
H	-1.413125	-1.024014	0.894578
H	-0.353457	-1.927455	0.016387
N	-0.249293	-1.239231	-2.109419
H	0.695963	-1.234783	-2.47305
H	-0.880864	-1.339435	-2.894731
C	-0.01024	1.163336	-2.250436
N	0.396126	1.90503	-3.069358
H	-2.888769	0.0	0.0
