16

C	0.0	0.0	0.0
C	-0.399349	-0.042049	-1.519788
F	1.384512	0.0	0.0
H	0.007361	0.929189	-1.893373
N	-0.574098	1.212984	0.540833
O	-0.367246	1.319083	1.812211
O	-0.835524	2.246129	-0.250281
N	-0.409322	-1.124347	0.82762
H	0.170051	-1.315968	1.649315
H	-0.698144	-1.939862	0.281422
N	-1.860843	-0.146885	-1.750357
H	-2.054502	-0.244327	-2.75019
H	-2.255172	0.735883	-1.420541
C	0.237464	-1.170275	-2.172396
N	0.738983	-2.081541	-2.701726
H	-1.737011	0.0	0.0
