16

C	0.0	0.0	0.0
C	-0.584348	0.063871	-1.395358
F	1.38749	0.0	0.0
H	-1.704221	0.133823	-1.185699
N	-0.38186	1.251763	0.788294
O	0.007429	1.260629	1.956905
O	-1.078795	2.094662	0.246107
N	-0.489211	-1.110339	0.666802
H	-0.802769	-1.84634	0.058476
H	-0.026239	-1.349333	1.530165
N	-0.253724	-1.211569	-2.042091
H	-0.737427	-1.260383	-2.930282
H	0.745976	-1.23333	-2.225191
C	-0.040088	1.1943	-2.153019
N	0.449096	1.984142	-2.887444
H	-3.215544	0.0	0.0
