16
Coordinates from ORCA-job run
  C   -0.56760207118063      0.46763817745834     -0.53888284058392
  C   0.67112126052395     -0.43010202055875     -0.43854472522874
  Cl  -0.90045810482668      0.88924820654168     -2.22473392502715
  H   0.49236147474238     -1.28663182976656     -1.09398968736812
  N   -0.46192422482715      1.63561432359370      0.22935020959076
  H   -0.39284501049560      1.42414866425027      1.21646165066256
  H   -1.24821889224513      2.25438238052601      0.07870338384672
  N   -1.76886316344636     -0.44815365203025     -0.10286644783310
  O   -1.87317405105111     -1.53191559273029     -0.66053698846601
  O   -2.48717833408599     -0.01331861293121      0.79032189290081
  C   0.91912533530435     -0.92483950960008      0.99125917969337
  H   1.76210992367853     -1.61709218782203      0.99081572951253
  H   1.17245410201962     -0.10049285674716      1.66013656016680
  H   0.04887130381065     -1.45768306839989      1.37908211833622
  C   1.83526198893118      0.29957125960158     -0.93872014592396
  N   2.79795846314800      0.83962631861465     -1.33785596427878
