16
Coordinates from ORCA-job run
  C   -0.70918807612018      0.41120149224696     -0.52102173996334
  C   0.58537594298285     -0.44362609170840     -0.48266932170102
  Cl  -1.16531025730350      0.65229933838872     -2.21676472948134
  H   0.43293493160291     -1.29861868934925     -1.14809233806498
  N   -0.71484471281178      1.65968254145814      0.14026817266297
  H   -0.01602248202394      2.28367243042211     -0.24067632607582
  H   -0.63883977935692      1.56716822127558      1.14312914690172
  N   -1.76357707618675     -0.48634496360329      0.14592383026793
  O   -2.16729507256719     -0.13848204877567      1.24911964871323
  O   -2.03444946521567     -1.52756521031616     -0.43548017741143
  C   0.92349993314879     -0.93635741695381      0.92753180123001
  H   1.01142997452460     -0.10356692424727      1.62760100058660
  H   0.16259241753658     -1.62968373556518      1.28855275537925
  H   1.87843561115579     -1.46313221916112      0.91070939032912
  C   1.67124607150227      0.38124956615634     -1.00766579303399
  N   2.54401203913214      1.07310370973228     -1.38046532033891
