16
Coordinates from ORCA-job run
  C   -0.73803605558407      0.17248438132830     -0.06312228503357
  C   0.69970114915385     -0.11273373620981      0.37967590193249
  Cl  -1.62417902478370     -1.39305933514145     -0.30451054301271
  H   1.08893618834169      0.83994342845767      0.75253426906568
  N   -0.78296928488140      1.04617099367076     -1.16676380647895
  H   -1.74030576280915      1.33173548255421     -1.34174684768357
  H   -0.40621732131622      0.60890709151866     -1.99744531140274
  N   -1.50952541678566      0.89470860399556      1.05170446466103
  O   -2.60647641896706      1.33385095557596      0.73314711669930
  O   -0.97474745602625      0.98659659916790      2.14858898742058
  C   1.56929536803800     -0.59502940930621     -0.78682273943487
  H   1.13951649101046     -1.48296273095911     -1.25304720220780
  H   2.56136583910571     -0.85353545298616     -0.41544146594314
  H   1.68745455837395      0.19581661273239     -1.52851356314724
  C   0.75532669761929     -1.08143295325890      1.47485024705449
  N   0.88086044951056     -1.89046053113978      2.31591277751102
