16
Coordinates from ORCA-job run
  C   -0.61581395758335      0.49668177259982     -0.45609250009185
  C   0.64931545478957     -0.36673816408335     -0.52235217067558
  Cl  -1.07443364287985      1.05849307634715     -2.07029013456569
  H   0.44802559603583     -1.16353061052796     -1.24338495520135
  N   -0.48708805323634      1.59301279644009      0.40766648400443
  H   -1.29895937556637      2.19570812735500      0.37127355263517
  H   -0.33759305946477      1.29664211471873      1.36342302509990
  N   -1.76103197138328     -0.49210682923469     -0.02830514137145
  O   -2.42954347410856     -0.16036209667514      0.94417734284720
  O   -1.87441789606834     -1.52447429064985     -0.67462064905805
  C   1.00719154234103     -0.98514845848603      0.83414705384644
  H   0.18020944347395     -1.58163896967028      1.22421469423545
  H   1.28232461167384     -0.21954228400905      1.56189841723284
  H   1.86736497874252     -1.64485653379343      0.71237406952816
  C   1.75866351441149      0.44354209352503     -1.02320916695285
  N   2.68778628882265      1.05331825614395     -1.40091992151276
