15

C	-0.560716	-0.004586	-1.404862
C	0.0	0.0	0.0
Cl	0.349459	-1.054311	-2.525932
H	1.085217	0.0	0.0
H	-0.385273	0.872155	0.529144
N	-1.926919	-0.359177	-1.46327
H	-2.302547	-0.13662	-2.376453
H	-2.445672	0.116743	-0.734515
N	-0.338021	1.431775	-1.977492
O	-1.113393	1.777683	-2.869368
O	0.573933	2.104816	-1.519994
N	-0.514134	-1.172397	0.712656
O	-1.441333	-0.993356	1.521819
O	0.019183	-2.260143	0.492534
H	2.636428	0.0	0.0
