15

C	-0.543706	-0.043405	-1.417952
C	0.0	0.0	0.0
Cl	0.33564	-1.187925	-2.42454
H	1.089033	0.0	0.0
H	-0.294926	0.924932	0.492684
N	-1.95971	-0.264978	-1.603814
H	-2.445793	0.367559	-0.975947
H	-2.133767	-1.214675	-1.29258
N	-0.313655	1.386352	-1.97251
O	0.480019	1.586418	-2.876043
O	-1.008497	2.240987	-1.423785
N	-0.464836	-1.081705	0.820408
O	-0.367046	-0.924697	2.049141
O	-0.814606	-2.156032	0.288733
H	2.499067	0.0	0.0
