17

C	-0.394995	0.030577	-1.470899
C	0.0	0.0	0.0
Cl	0.473393	-1.157882	-2.438531
H	1.096329	0.0	0.0
H	-0.218009	1.012746	-1.906762
N	-1.88697	-0.194397	-1.615847
O	-2.317766	-1.328408	-1.798806
O	-2.579504	0.813901	-1.456853
C	-0.465703	-1.271066	0.700988
H	-0.002425	-1.313207	1.689237
H	-0.156421	-2.163114	0.154073
H	-1.55355	-1.298282	0.827205
C	-0.464507	1.255713	0.731668
H	-0.023372	1.25694	1.731295
H	-1.552706	1.307294	0.826758
H	-0.117498	2.157741	0.220929
Cl	3.414952	0.0	0.0
