17

C	-0.546496	0.015539	-1.414736
C	0.0	0.0	0.0
Cl	0.170832	1.269135	-2.433888
H	1.095279	0.0	0.0
H	-1.627755	0.156989	-1.426674
N	-0.349116	-1.324267	-2.078106
O	-1.366725	-2.013907	-2.190517
O	0.783699	-1.653069	-2.396047
C	-0.476268	-1.255752	0.72926
H	-1.568432	-1.351656	0.719191
H	-0.140553	-1.206204	1.76745
H	-0.042511	-2.158431	0.295315
C	-0.469848	1.258165	0.725942
H	-0.111776	2.16094	0.228547
H	-0.063031	1.260783	1.739771
H	-1.564796	1.298714	0.791843
Cl	3.506303	0.0	0.0
