13

C	-0.498562	0.038964	-1.433761
C	0.0	0.0	0.0
Cl	0.405278	1.22107	-2.459819
H	1.088662	0.0	0.0
H	-0.296079	-0.924572	0.494366
C	-0.279692	-1.290496	-2.020535
N	-0.146901	-2.364377	-2.479138
C	-1.931097	0.341348	-1.540062
N	-3.09226	0.504655	-1.625992
N	-0.470052	1.106748	0.792211
O	-0.396403	0.969198	2.02184
O	-0.783953	2.162832	0.217142
H	2.468527	0.0	0.0
