13

C	-0.495043	-0.00308	-1.435378
C	0.0	0.0	0.0
Cl	0.417114	-1.149058	-2.4972
H	1.088755	0.0	0.0
H	-0.299666	0.910574	0.517146
C	-1.925273	-0.311299	-1.548457
N	-3.085849	-0.480366	-1.635598
C	-0.285495	1.343645	-1.984456
N	-0.15123	2.425204	-2.424107
N	-0.472252	-1.127968	0.75899
O	-0.756968	-2.177545	0.155729
O	-0.429918	-1.01352	1.991924
H	2.46687	0.0	0.0
