13

C	-0.439229	0.02012	-1.440958
C	0.0	0.0	0.0
Cl	-2.252146	0.098817	-1.615787
H	1.092854	0.0	0.0
H	-0.33451	-0.904055	0.503466
C	0.126672	1.114737	-2.238866
N	0.590314	1.945163	-2.928086
C	-0.026717	-1.256202	-2.04708
N	0.25206	-2.28113	-2.548149
N	-0.439242	1.13964	0.752513
O	-0.568672	2.220477	0.157689
O	-0.532286	0.995436	1.980228
H	2.468581	0.0	0.0
