13

C	-0.436301	-0.003673	-1.444858
C	0.0	0.0	0.0
Cl	-2.253083	-0.083716	-1.621338
H	1.092973	0.0	0.0
H	-0.346979	0.892916	0.516316
C	-0.026687	1.273768	-2.042399
N	0.266444	2.292581	-2.54896
C	0.130208	-1.088839	-2.254133
N	0.565204	-1.888352	-2.99779
N	-0.444656	-1.15652	0.729398
O	-0.55841	-1.032671	1.957574
O	-0.557709	-2.229733	0.115973
H	2.476335	0.0	0.0
