13

C	-0.439909	0.033645	-1.442256
C	0.0	0.0	0.0
Cl	-2.255981	-0.039062	-1.618465
H	1.093071	0.0	0.0
H	-0.341835	0.879153	0.542058
C	-0.027881	1.324229	-2.009804
N	0.277523	2.359146	-2.475136
C	0.122236	-1.033633	-2.279153
N	0.546223	-1.809206	-3.053413
N	-0.439768	-1.176691	0.699324
O	-0.540987	-1.090068	1.931322
O	-0.559789	-2.230287	0.053974
H	2.474567	0.0	0.0
