13

C	-0.480058	0.014215	-1.44045
C	0.0	0.0	0.0
Cl	0.316236	-1.248345	-2.457675
H	1.088828	0.0	0.0
H	-0.277796	0.924445	0.506237
C	-1.935509	-0.136926	-1.562648
N	-3.106383	-0.179263	-1.664629
C	-0.113272	1.317979	-2.016245
N	0.141364	2.375557	-2.462266
N	-0.519459	-1.10042	0.771579
O	-0.400731	-1.00212	2.000722
O	-0.944405	-2.107318	0.182558
H	2.482203	0.0	0.0
