13

C	-0.436896	0.030136	-1.443461
C	0.0	0.0	0.0
Cl	-2.251241	0.112566	-1.619671
H	1.093106	0.0	0.0
H	-0.341998	-0.902816	0.501256
C	0.128269	1.131631	-2.233295
N	0.552865	1.939183	-2.974235
C	-0.023731	-1.235425	-2.064744
N	0.283595	-2.250791	-2.569425
N	-0.439972	1.143634	0.749411
O	-0.553293	2.226196	0.152151
O	-0.547099	1.001329	1.97629
H	2.473227	0.0	0.0
