12

C	-0.524267	-0.017119	-1.429286
C	0.0	0.0	0.0
Cl	-0.05797	1.463269	-2.314773
H	1.100971	0.0	0.0
H	-0.096848	-0.860395	-1.969839
H	-1.613755	-0.061005	-1.429377
C	-0.465283	-1.2423	0.627985
N	-0.858418	-2.235897	1.115129
N	-0.565948	1.140946	0.740869
H	-0.152521	1.971908	0.327511
H	-0.184552	1.096723	1.681189
Cl	3.370593	0.0	0.0
