12

C	-0.52895	0.021699	-1.430854
C	0.0	0.0	0.0
Cl	-0.030036	1.487937	-2.300213
H	1.094079	0.0	0.0
H	-1.61985	-0.003804	-1.435782
H	-0.134306	-0.833682	-1.978489
C	-0.440718	-1.272433	0.599757
N	-0.860757	-2.247442	1.104541
N	-0.455056	1.151111	0.774256
H	-1.267376	0.925517	1.333444
H	0.297702	1.435702	1.388632
Cl	3.338575	0.0	0.0
