12

C	-0.469472	-0.060321	-1.460342
C	0.0	0.0	0.0
Cl	-0.102011	1.452453	-2.328532
H	1.095207	0.0	0.0
H	-1.549606	-0.209741	-1.520777
H	0.047951	-0.867788	-1.977409
C	-0.474839	-1.244749	0.624907
N	-0.907345	-2.246585	1.059624
N	-0.455568	1.142162	0.776208
H	-1.373787	1.446024	0.470472
H	0.199584	1.899569	0.626511
Cl	3.330118	0.0	0.0
