12

C	-0.523425	-0.01486	-1.429395
C	0.0	0.0	0.0
Cl	-0.052455	1.465161	-2.312095
H	1.100949	0.0	0.0
H	-0.098319	-0.858576	-1.970964
H	-1.612796	-0.055358	-1.430096
C	-0.465767	-1.242679	0.626841
N	-0.856915	-2.236803	1.114634
N	-0.565286	1.140967	0.741439
H	-0.184051	1.096106	1.681631
H	-0.15113	1.971872	0.328408
Cl	3.372928	0.0	0.0
