12

C	-0.368236	0.025112	-1.470709
C	0.0	0.0	0.0
Cl	-2.130475	-0.011277	-1.778476
H	1.103862	0.0	0.0
H	0.07605	-0.83251	-1.973741
H	0.023839	0.940066	-1.915804
C	-0.493975	-1.215819	0.645369
N	-0.885073	-2.190927	1.169012
N	-0.531232	1.181668	0.701944
H	0.039541	1.965044	0.393045
H	-0.311008	1.069762	1.686729
Cl	3.333969	0.0	0.0
