16

C	-0.54648	0.007253	-1.417732
C	0.0	0.0	0.0
Cl	-0.045861	-1.667354	-2.076592
H	1.08863	0.0	0.0
H	-0.398897	-0.844208	0.563658
N	-1.953107	0.164205	-1.41921
H	-2.416629	-0.511471	-0.825401
H	-2.344598	0.136313	-2.352506
C	0.104315	1.019958	-2.336528
H	-0.26862	0.889365	-3.357653
H	-0.139511	2.022873	-1.985917
H	1.186546	0.888564	-2.325358
N	-0.489252	1.223897	0.674409
O	-1.35104	1.086577	1.563247
O	0.136389	2.266068	0.46785
H	2.72712	0.0	0.0
