16

C	-0.523868	0.042101	-1.421905
C	0.0	0.0	0.0
Cl	0.000167	-1.3858	-2.390945
H	1.08809	0.0	0.0
H	-0.334578	0.915661	0.495051
N	-1.976518	0.015302	-1.418267
H	-2.310755	0.746382	-0.799275
H	-2.320768	0.199207	-2.354921
C	0.115094	1.260026	-2.082014
H	-0.233968	2.168183	-1.578193
H	1.203091	1.197302	-1.985441
H	-0.167565	1.309243	-3.137071
N	-0.557029	-1.091788	0.807717
O	-0.229856	-2.245507	0.537029
O	-1.302878	-0.781792	1.748963
H	2.773941	0.0	0.0
