16

C	-0.402698	-0.046125	-1.472779
C	0.0	0.0	0.0
Cl	-0.179375	1.650479	-2.224713
H	1.088893	0.0	0.0
H	-0.372582	-0.916111	0.459905
N	0.477725	-1.000096	-2.039225
H	1.442738	-0.812257	-1.744096
H	0.407647	-1.015565	-3.046806
C	-1.860174	-0.384313	-1.72862
H	-2.062731	-1.370463	-1.306953
H	-2.064765	-0.406215	-2.802746
H	-2.51748	0.348598	-1.260994
N	-0.603507	1.105376	0.75996
O	0.003139	2.170292	0.847316
O	-1.701654	0.883891	1.293862
H	2.825387	0.0	0.0
