16

C	-0.314792	0.010571	-1.484274
C	0.0	0.0	0.0
Cl	-2.116813	0.228761	-1.735992
H	1.09266	0.0	0.0
H	-0.392377	-0.877637	0.510016
N	0.363848	1.03482	-2.245404
H	1.357936	0.876579	-2.053516
H	0.148861	1.923475	-1.804788
C	0.074459	-1.347446	-2.037166
H	-0.12336	-1.362685	-3.108655
H	1.143981	-1.490151	-1.853315
H	-0.483269	-2.149162	-1.551073
N	-0.454507	1.15763	0.762729
O	-0.858887	0.960068	1.912964
O	-0.347237	2.282722	0.260568
H	2.699224	0.0	0.0
