16

C	-0.283386	0.0026	-1.493099
C	0.0	0.0	0.0
Cl	-2.071142	0.237208	-1.807041
H	1.092711	0.0	0.0
H	-0.39565	-0.875331	0.511182
N	0.436553	1.012747	-2.237234
H	0.204299	1.908856	-1.821149
H	1.420147	0.851689	-1.994993
C	0.115405	-1.363026	-2.019959
H	1.168823	-1.523287	-1.762197
H	-0.490656	-2.153378	-1.572063
H	-0.006696	-1.373607	-3.104116
N	-0.463004	1.162853	0.747446
O	-0.856094	0.976799	1.904448
O	-0.379303	2.281704	0.227931
H	2.692893	0.0	0.0
