16

C	-0.498962	0.138107	-1.448199
C	0.0	0.0	0.0
Cl	-0.394816	-1.551455	-2.110358
H	1.087773	0.0	0.0
H	-0.361303	-0.908293	0.478893
N	-1.882701	0.549127	-1.616284
H	-1.941149	1.506898	-1.284731
H	-2.471683	-0.019653	-1.015061
C	0.412228	1.012625	-2.288245
H	1.445222	0.68522	-2.153858
H	0.110681	0.956603	-3.335911
H	0.335664	2.042303	-1.934496
N	-0.436091	1.098585	0.846512
O	-0.488957	2.243303	0.365226
O	-0.658229	0.85656	2.040335
H	2.665567	0.0	0.0
