16

C	-0.613741	-0.008112	-1.390261
C	0.0	0.0	0.0
Cl	0.32428	1.005295	-2.556369
H	1.086883	0.0	0.0
H	-0.307705	-0.90011	0.535316
N	-0.497121	-1.377249	-1.875754
H	-1.036329	-1.981005	-1.264043
H	-0.893855	-1.429951	-2.807291
C	-2.048632	0.513643	-1.426271
H	-2.451801	0.403275	-2.437277
H	-2.095906	1.562603	-1.139716
H	-2.659699	-0.077214	-0.734631
N	-0.402225	1.112926	0.831657
O	-0.382111	2.253275	0.340053
O	-0.599807	0.887764	2.038521
H	2.586892	0.0	0.0
