12

C	-0.445195	-0.036742	-1.463175
C	0.0	0.0	0.0
Cl	0.122876	1.441605	-2.315385
H	1.093148	0.0	0.0
H	-0.309472	-0.934745	0.480029
C	0.120065	-1.217235	-2.134061
N	0.474247	-2.184151	-2.700336
C	-1.905011	-0.092471	-1.602016
N	-3.076562	-0.148842	-1.686925
C	-0.564429	1.131846	0.705372
N	-0.976274	2.055961	1.305099
H	2.610002	0.0	0.0
