12

C	-0.451853	0.042622	-1.459807
C	0.0	0.0	0.0
Cl	0.14431	-1.418759	-2.330998
H	1.092992	0.0	0.0
H	-0.310925	0.930963	0.485815
C	-1.910463	0.068771	-1.594246
N	-3.0834	0.098001	-1.673904
C	0.100171	1.227702	-2.128891
N	0.486548	2.181454	-2.696795
C	-0.557646	-1.138727	0.700209
N	-0.961403	-2.069987	1.294225
H	2.610501	0.0	0.0
