12

C	-0.444503	0.044329	-1.461106
C	0.0	0.0	0.0
Cl	0.145851	-1.420514	-2.32209
H	1.093117	0.0	0.0
H	-0.310446	0.932848	0.486713
C	-1.906606	0.070879	-1.593661
N	-3.079974	0.105534	-1.668357
C	0.105813	1.235531	-2.124058
N	0.501676	2.187367	-2.689195
C	-0.560783	-1.137819	0.700415
N	-0.969363	-2.067937	1.293808
H	2.610641	0.0	0.0
