12

C	-0.427003	-0.00437	-1.456996
C	0.0	0.0	0.0
Cl	-2.239032	0.140272	-1.648614
H	1.094501	0.0	0.0
H	-0.323306	0.936755	0.462604
C	0.153995	1.146311	-2.15953
N	0.598792	2.057269	-2.753106
C	-0.030959	-1.242035	-2.135691
N	0.253708	-2.229232	-2.705515
C	-0.533313	-1.135331	0.722454
N	-0.925157	-2.062914	1.329932
H	2.599971	0.0	0.0
