12

C	-0.424835	-0.007177	-1.457607
C	0.0	0.0	0.0
Cl	-2.23559	0.134149	-1.653855
H	1.094476	0.0	0.0
H	-0.323506	0.937638	0.460691
C	0.156954	1.143343	-2.160045
N	0.606456	2.05502	-2.748988
C	-0.024537	-1.24514	-2.133645
N	0.260275	-2.234285	-2.699846
C	-0.533803	-1.133836	0.724061
N	-0.926731	-2.060079	1.332845
H	2.600097	0.0	0.0
