12

C	-0.450131	0.039671	-1.462128
C	0.0	0.0	0.0
Cl	0.137144	-1.42419	-2.32725
H	1.093137	0.0	0.0
H	-0.31247	0.931125	0.485207
C	-1.911881	0.076125	-1.596607
N	-3.083824	0.11475	-1.680679
C	0.102288	1.230716	-2.12625
N	0.509172	2.166148	-2.709517
C	-0.560465	-1.136529	0.701625
N	-0.968074	-2.066119	1.295925
H	2.609329	0.0	0.0
