12

C	-0.461446	0.033422	-1.458212
C	0.0	0.0	0.0
Cl	0.182694	-1.433179	-2.287841
H	1.093196	0.0	0.0
H	-0.343518	-0.934389	0.452949
C	-1.922889	-0.007126	-1.581709
N	-3.095838	-0.049689	-1.653553
C	0.033584	1.224743	-2.160501
N	0.376816	2.168066	-2.773114
C	-0.518538	1.139507	0.730564
N	-0.899985	2.074062	1.334184
H	2.618808	0.0	0.0
