17

C	0.0	0.0	0.0
C	-0.619471	-0.003406	-1.42533
Cl	1.793208	0.0	0.0
H	-1.625257	0.413874	-1.297705
C	-0.358266	1.241527	0.701698
N	-0.560534	2.235401	1.295049
C	-0.489888	-1.195023	0.805458
H	-1.583173	-1.181606	0.813266
H	-0.110428	-1.123003	1.826164
H	-0.121243	-2.118716	0.356948
N	-0.726458	-1.248484	-2.093154
H	-1.568162	-1.713414	-1.776644
H	0.089867	-1.834705	-1.989318
N	0.162213	0.967639	-2.275095
O	0.956466	0.511903	-3.092379
O	-0.030043	2.161851	-2.051231
Br	-3.786402	0.0	0.0
