17

C	-0.230198	-0.39228	-1.462948
C	0.0	0.0	0.0
Br	-2.149394	-0.853114	-1.823135
H	1.109741	0.0	0.0
C	0.030795	0.796049	-2.276029
N	0.261283	1.683273	-3.011118
C	0.682782	-1.523556	-1.926714
H	1.676243	-1.251093	-1.544238
H	0.670305	-1.599646	-3.015463
H	0.376171	-2.468947	-1.484662
N	-0.473505	-1.120018	0.889702
O	-1.414341	-0.892162	1.658604
O	0.101861	-2.204345	0.813941
N	-0.578574	1.251853	0.329368
H	-1.53865	1.140194	0.629614
H	-0.045044	1.678432	1.074229
F	2.56162	0.0	0.0
