17

C	-0.252036	-0.087517	-1.522381
C	0.0	0.0	0.0
Br	-2.150809	-0.581224	-1.944959
H	1.109255	0.0	0.0
C	-0.109814	1.268391	-2.053902
N	0.01185	2.347902	-2.504187
C	0.724306	-1.015098	-2.236586
H	1.706033	-0.764934	-1.808979
H	0.689962	-0.853667	-3.316517
H	0.495142	-2.052217	-2.002874
N	-0.49783	-1.255307	0.641229
O	-0.004455	-2.315141	0.252737
O	-1.370437	-1.176624	1.504478
N	-0.506746	1.136438	0.681495
H	0.145245	1.900812	0.577635
H	-1.437172	1.410139	0.390049
F	2.570791	0.0	0.0
