18

C	-0.501296	0.014337	-1.461701
C	0.0	0.0	0.0
Cl	0.10331	-1.479108	-2.256151
H	1.092098	0.0	0.0
C	-2.014672	0.025124	-1.590647
H	-2.458616	-0.868513	-1.153957
H	-2.42673	0.899795	-1.082466
H	-2.284015	0.068322	-2.648323
C	0.151681	1.202303	-2.153543
H	-0.076592	1.173388	-3.221391
H	-0.237746	2.133902	-1.735344
H	1.233451	1.168312	-2.008902
N	-0.493032	-1.215896	0.733208
O	-1.643308	-1.173968	1.176365
O	0.266188	-2.171817	0.807789
C	-0.490837	1.181718	0.699881
N	-0.871134	2.161215	1.225236
Br	3.421868	0.0	0.0
