18

C	-0.485487	0.03649	-1.469743
C	0.0	0.0	0.0
Cl	-0.019697	-1.522212	-2.235844
H	1.092127	0.0	0.0
C	-1.989859	0.195473	-1.617094
H	-2.243667	0.220231	-2.679204
H	-2.312684	1.13183	-1.155351
H	-2.527075	-0.627044	-1.146414
C	0.285929	1.149811	-2.165833
H	0.051292	1.14416	-3.232794
H	-0.002566	2.119243	-1.748799
H	1.359544	1.007449	-2.022555
N	-0.514508	-1.208482	0.728788
O	-1.685083	-1.167718	1.118304
O	0.249957	-2.15511	0.858614
C	-0.476022	1.187664	0.700765
N	-0.842274	2.173873	1.223871
Br	3.418463	0.0	0.0
