18

C	-0.490035	-0.019754	-1.469137
C	0.0	0.0	0.0
Cl	0.002644	1.576282	-2.148096
H	1.091276	0.0	0.0
C	0.235657	-1.094896	-2.263007
H	-0.095959	-2.087218	-1.952523
H	1.312208	-1.016568	-2.096601
H	0.014521	-0.965841	-3.325064
C	-2.002303	-0.120237	-1.574889
H	-2.349222	-1.07698	-1.175481
H	-2.489142	0.685721	-1.022491
H	-2.298601	-0.053147	-2.624102
N	-0.451378	-1.270959	0.673659
O	-1.46752	-1.230405	1.369383
O	0.213156	-2.276842	0.447269
C	-0.531765	1.129788	0.750607
N	-0.958553	2.051844	1.339939
Br	3.396633	0.0	0.0
