18

C	-0.3684	-0.013583	-1.493439
C	0.0	0.0	0.0
Cl	-2.171112	-0.076805	-1.668918
H	1.09383	0.0	0.0
C	0.13893	1.288272	-2.098371
H	-0.347529	2.155628	-1.650252
H	1.218268	1.3499	-1.926195
H	-0.059964	1.29124	-3.172024
C	0.240149	-1.203759	-2.217453
H	-0.198943	-2.145985	-1.896522
H	1.313402	-1.224473	-2.00756
H	0.074414	-1.083786	-3.290556
N	-0.469519	-1.226874	0.722613
O	-1.391712	-1.110486	1.528124
O	0.106407	-2.274517	0.446149
C	-0.504087	1.181041	0.68638
N	-0.865254	2.162607	1.220818
Br	3.372704	0.0	0.0
