18

C	-0.497655	0.007127	-1.463306
C	0.0	0.0	0.0
Cl	0.092603	-1.496963	-2.251154
H	1.0921	0.0	0.0
C	-2.011814	0.037305	-1.59436
H	-2.415971	0.918027	-1.087737
H	-2.274398	0.08565	-2.653639
H	-2.469938	-0.851859	-1.161154
C	0.166503	1.19126	-2.153165
H	-0.0598	1.162022	-3.221181
H	1.248055	1.151397	-2.004819
H	-0.219821	2.127103	-1.739272
N	-0.499666	-1.210662	0.739176
O	-1.657061	-1.164034	1.165067
O	0.26225	-2.16518	0.841101
C	-0.4869	1.187337	0.693146
N	-0.863845	2.169682	1.216317
Br	3.402895	0.0	0.0
