15

C	-0.270941	-0.047007	-1.466739
C	0.0	0.0	0.0
Cl	-2.009257	-0.083472	-1.947828
H	1.095183	0.0	0.0
H	0.195221	-0.930033	-1.896643
N	0.347309	1.105157	-2.216324
O	0.889219	0.823058	-3.282829
O	0.238532	2.225834	-1.737069
C	-0.367392	-1.328383	0.661375
H	-1.436918	-1.557193	0.616895
H	0.200977	-2.12697	0.177384
H	-0.052185	-1.295787	1.705808
C	-0.59908	1.113865	0.701568
N	-1.094895	1.953566	1.359548
F	2.508735	0.0	0.0
