10
Coordinates from ORCA-job run
  C   -0.45979756836484      0.46592060018526     -0.12207294410001
  C   0.46006626364151     -0.46558083450559      0.12239892355177
  H   -0.25700506387266      1.49983293356643     -0.36418792400158
  H   0.25607541237410     -1.49938023858522      0.36404137267585
  N   -1.87583253545558      0.11453319620874     -0.07492405650327
  O   -2.18446369833661     -1.04234640712290      0.19623855936762
  O   -2.65288020666183      1.03799018373397     -0.31944734480797
  N   1.87612481898494     -0.11458035621686      0.07511232877186
  O   2.18471064156434      1.04245901745310     -0.19530287547334
  O   2.65300193612663     -1.03884809471694      0.31714396051906
