10
Coordinates from ORCA-job run
  C   -0.46316638391141      0.46222449216072     -0.12398825786908
  C   0.46344871978227     -0.46138830741597      0.12510577277246
  H   -0.26695249508662      1.49123952901768     -0.39113289514682
  H   0.26667788971958     -1.49030823816600      0.39226768290432
  N   -1.87727200254177      0.10808567767402     -0.04694707144064
  O   -2.17795724916125     -1.03942919197098      0.26904330228016
  O   -2.66048246385936      1.01962177126977     -0.31516507765556
  N   1.87759928645863     -0.10824890872766      0.04713686858567
  O   2.17831951194724      1.04352952812902     -0.25307183360833
  O   2.66078518665268     -1.02532635197061      0.29575150917782
