10
Coordinates from ORCA-job run
  C   0.48705224315950     -0.38781238726058     -0.23619914418403
  C   -0.48705092337584      0.38777746649324      0.23625840662311
  H   0.34535508976458     -1.31738174822729     -0.76966547478054
  H   -0.34535165850663      1.31730875146157      0.76979050309668
  N   1.88040816346919      0.00289935028780     -0.04537867741772
  O   2.11980633986014      1.04821063497650      0.55230341434509
  O   2.71141519733653     -0.77486647072363     -0.51537073094625
  N   -1.88040941119407     -0.00287723898390      0.04534027225636
  O   -2.11981063432125     -1.04812324242729     -0.55245457596034
  O   -2.71141440619215      0.77486488440358      0.51537600696763
