10
Coordinates from ORCA-job run
  C   -0.67477799596228     -0.09299810907982     -0.70966153131027
  C   0.65650293734397     -0.09187336404125     -0.72663359444035
  H   -1.27054915345593     -0.23511870806639     -1.60170582370632
  H   1.22967517823152     -0.18168385940824     -1.64003095562219
  N   -1.46848177921915      0.06628046804431      0.50614657069902
  O   -1.15407136559945      0.95404234870844      1.29124920858705
  O   -2.41626768651912     -0.70903749334546      0.60556989689844
  N   1.48085565738811      0.05958172773732      0.46961236766070
  O   1.18738466350575     -0.59709432497692      1.46260437461435
  O   2.42972954428657      0.82990131442799      0.34484948661957
