10
Coordinates from ORCA-job run
  C   -0.53884245563102     -0.28794312868033      0.26484459861327
  C   0.53886426864854      0.28825297664331     -0.26450569969411
  H   -0.52879340594107     -1.07667832850904      1.00411607957531
  H   0.52931763962733      1.07636667234261     -1.00444791470070
  N   -1.86922475547580      0.14569050851510     -0.15078332582209
  O   -2.80497594332368     -0.43967134765976      0.39528150503353
  O   -1.96000021875769      1.03780273135640     -0.98923385321101
  N   1.86931082286952     -0.14574256798850      0.15065543546729
  O   2.80513974518064      0.43239901034555     -0.40285281810185
  O   1.96020430280323     -1.03047652636534      0.99692599284037
