10
Coordinates from ORCA-job run
  C   0.67221523866730      0.14167542753022     -0.70458912034743
  C   -0.65584259271280      0.23542085438875     -0.69435153049457
  H   1.26344590783052      0.31242160556424     -1.59461736745067
  H   -1.22714253405132      0.53831373145219     -1.56197847260534
  N   1.46578109608302     -0.22738049533214      0.46478209374577
  O   1.20253881712875      0.30782061432859      1.53609264242163
  O   2.36177736613789     -1.03793450184984      0.24222198026438
  N   -1.47665515333963     -0.02878313276606      0.48453725466320
  O   -1.23867140266338     -1.03579205799981      1.14233338189120
  O   -2.36744674308034      0.79323795468386      0.68456913791182
