10
Coordinates from ORCA-job run
  C   0.57224961542465      0.08990791767490      0.32858310245074
  C   -0.57196258477734     -0.08917985168451     -0.32884464468674
  H   0.67556274664293      0.58042980010197      1.28642166182244
  H   -0.67531521728172     -0.57992494665425     -1.28656448868239
  N   1.82160896176655     -0.39827760729445     -0.24711672439462
  O   2.82758961140982     -0.18984283059488      0.43182708296505
  O   1.78380628152126     -0.96575205316323     -1.33515380358338
  N   -1.82140914061253      0.39846933085310      0.24711273653694
  O   -2.82783872876362      0.18691358577112     -0.43019698210544
  O   -1.78329154533000      0.96825665499023      1.33393205967738
