10
Coordinates from ORCA-job run
  C   0.48436331101232     -0.39388457672209     -0.23206133215942
  C   -0.48427417168667      0.39483297118707      0.22998820938603
  H   0.33527250369785     -1.30461800376799     -0.79517142378092
  H   -0.33533576298279      1.30516433447523      0.79379298143480
  N   1.88031605203633     -0.04430073922761      0.01194791644156
  O   2.70631394250756     -0.82629770989072     -0.45984615138687
  O   2.12662434076235      0.97424158137002      0.65157013390598
  N   -1.88035029282672      0.04433206753128     -0.01181424747705
  O   -2.12669567140268     -0.96754859610867     -0.66195077991443
  O   -2.70623425111754      0.81807867115348      0.47354469355031
