10
Coordinates from ORCA-job run
  C   0.49080337925121     -0.33752326026443     -0.29753516509709
  C   -0.49090456605175      0.33786928241162      0.29720615111116
  H   0.35896049034432     -1.11311147110913     -1.03902123498584
  H   -0.35851107902321      1.11348041315921      1.03858519097122
  N   1.87981070170582     -0.04635305753824      0.04420066629825
  O   2.71849503023442     -0.72291378901176     -0.55180418276810
  O   2.10834280727115      0.82633630381677      0.87684858668044
  N   -1.87994133835272      0.04692119564026     -0.04416003797914
  O   -2.71857975351212      0.72140737268133      0.55424082222746
  O   -2.10847567186711     -0.82411298978563     -0.87856079645835
