10
Coordinates from ORCA-job run
  C   -0.67521003880562     -0.16805203739958     -0.69892445139101
  C   0.65605387698930     -0.14727510396280     -0.71287392139363
  H   -1.26708025523844     -0.40784246449809     -1.57216823612123
  H   1.23057272701429     -0.32054600444574     -1.61366438789390
  N   -1.47089970777083      0.09007128338817      0.49642624858811
  O   -2.51601548284749     -0.55300177373237      0.57130489973075
  O   -1.05685237947180      0.91765793150688      1.30215932109384
  N   1.48001939991737      0.12942237850130      0.46247172329198
  O   2.28191466382001      1.04775448047938      0.32078925063932
  O   1.33849719639319     -0.58818868983715      1.44547955345576
