19

C	-0.348579	-0.023771	-1.491749
C	0.0	0.0	0.0
Cl	-0.197415	1.702295	-2.19712
H	1.098477	0.0	0.0
N	0.559457	-0.902848	-2.140925
H	1.515101	-0.720672	-1.83584
H	0.500744	-0.81702	-3.14797
N	-1.74355	-0.356213	-1.734405
H	-1.814777	-1.361529	-1.617532
H	-1.969672	-0.146463	-2.699409
C	-0.457064	-1.313764	0.639485
H	-0.11945	-2.173943	0.057712
H	-1.546944	-1.347579	0.744872
H	-0.013893	-1.393917	1.634971
C	-0.566314	1.186788	0.760374
H	-0.432992	1.028473	1.834308
H	-0.057246	2.112011	0.494037
H	-1.634466	1.297594	0.551904
Cl	3.520599	0.0	0.0
