19

C	-0.335817	-0.099398	-1.487115
C	0.0	0.0	0.0
Cl	-0.116977	1.753841	-2.264349
H	1.096157	0.0	0.0
N	0.587467	-0.929038	-2.123825
H	1.535628	-0.716792	-1.815834
H	0.527183	-0.891078	-3.132867
N	-1.678801	-0.45397	-1.768281
H	-2.292292	0.259184	-1.393509
H	-1.829941	-0.491213	-2.769694
C	-0.448069	-1.296121	0.683827
H	0.026831	-1.356206	1.666277
H	-0.142578	-2.165496	0.102082
H	-1.533756	-1.329734	0.811764
C	-0.542157	1.21214	0.737519
H	-1.634526	1.29138	0.648569
H	-0.305601	1.11047	1.801698
H	-0.094717	2.136527	0.375516
Cl	3.492242	0.0	0.0
