19

C	-0.264514	-0.058351	-1.500961
C	0.0	0.0	0.0
Cl	-2.074422	-0.635414	-1.803544
H	1.099007	0.0	0.0
N	-0.112911	1.212432	-2.119921
H	-0.21021	1.129104	-3.124394
H	-0.801115	1.871648	-1.781376
N	0.551739	-1.077872	-2.073125
H	1.515256	-0.905757	-1.777266
H	0.494567	-1.068494	-3.085306
C	-0.458035	-1.257357	0.727812
H	0.05756	-1.317346	1.690212
H	-0.208514	-2.146224	0.148692
H	-1.53706	-1.24711	0.905391
C	-0.521505	1.260561	0.667618
H	-0.318499	1.211584	1.740139
H	-0.019882	2.150813	0.284191
H	-1.605805	1.361059	0.535747
Cl	3.498173	0.0	0.0
