19

C	-0.218284	0.012248	-1.514646
C	0.0	0.0	0.0
Cl	-2.01987	0.067583	-1.898775
H	1.102529	0.0	0.0
N	0.392262	1.189664	-2.058281
H	0.49825	1.042971	-3.056631
H	1.321857	1.267588	-1.646342
N	0.277018	-1.168506	-2.20503
H	-0.203759	-1.996674	-1.872945
H	1.260829	-1.249919	-1.945131
C	-0.498636	-1.260157	0.687619
H	-0.005291	-2.157624	0.308951
H	-0.2706	-1.201696	1.755209
H	-1.582129	-1.373805	0.574652
C	-0.520584	1.24929	0.695311
H	-0.119238	1.29479	1.711938
H	-0.218244	2.151727	0.164964
H	-1.613772	1.235181	0.752749
Cl	3.454484	0.0	0.0
