16

C	0.0	0.0	0.0
C	-0.447083	0.075558	-1.473661
F	1.362144	0.0	0.0
H	0.441852	0.367941	-2.046454
N	-0.231595	1.261431	0.894347
O	-0.926199	1.168041	1.891044
O	0.45471	2.225376	0.580552
C	-0.482438	-1.16746	0.733721
N	-0.548749	-2.160712	1.362135
N	-1.456952	1.179556	-1.851678
O	-1.344504	2.293473	-1.367198
O	-2.204815	0.890953	-2.781963
N	-0.905419	-1.210154	-1.857815
H	-1.101105	-1.205635	-2.850436
H	-1.789999	-1.282213	-1.343586
F	-2.337279	0.0	0.0
