16

C	0.0	0.0	0.0
C	-0.419493	-0.170406	-1.496843
F	1.350151	0.0	0.0
H	-1.443762	-0.529299	-1.47199
N	-0.414566	1.294757	0.681619
O	-0.510636	1.24099	1.898679
O	-0.46822	2.31858	0.012794
C	-0.463912	-1.117187	0.826427
N	-0.551383	-2.085035	1.490022
N	0.471724	-1.281	-2.018383
O	0.094838	-2.43382	-1.805239
O	1.503847	-0.973195	-2.609857
N	-0.27563	0.943219	-2.378053
H	-0.991788	1.607889	-2.115502
H	0.624644	1.38656	-2.23766
F	-2.343588	0.0	0.0
