14

C	0.0	0.0	0.0
C	-0.219637	0.070027	-1.530898
F	1.377714	0.0	0.0
H	0.440162	0.865724	-1.869036
H	-0.397326	-0.905683	0.447393
C	-0.463346	1.179111	0.761728
N	-0.628811	2.079008	1.49347
N	-1.495578	0.125835	-2.134448
H	-1.738602	1.110849	-2.193886
H	-2.148033	-0.230048	-1.388547
N	0.444825	-1.18671	-2.069209
O	0.124597	-2.262242	-1.56828
O	1.210839	-1.050002	-3.01554
H	-2.686173	0.0	0.0
