14

C	0.0	0.0	0.0
C	-0.531031	0.156506	-1.433717
F	1.380118	0.0	0.0
H	-1.513268	0.630307	-1.320995
H	-0.371058	-0.945044	0.392805
C	-0.416363	1.084117	0.912424
N	-0.482697	1.947572	1.707486
N	-0.704545	-1.057511	-2.162115
H	0.060507	-1.700627	-1.994543
H	-1.57074	-1.450251	-1.798779
N	0.399658	1.089222	-2.151719
O	1.108606	0.655245	-3.056951
O	0.401857	2.253055	-1.749535
H	-2.733515	0.0	0.0
