12
Coordinates from ORCA-job run
  C   0.15006961149926      0.47566247396414     -0.49128192170685
  C   -0.17905319409222     -0.46539005100975      0.44829645933933
  C   0.97167944312487      0.11143834047426     -1.58803201010634
  N   1.65619148965227     -0.32498887188459     -2.44158977040002
  N   -0.28253177653541      1.86609324310461     -0.42638576875752
  O   -1.03913324575316      2.19227320459097      0.48124046377866
  O   0.15743805891992      2.60122370539517     -1.30671335595767
  N   0.17530598912769     -1.77120337015901      0.33126450257039
  H   0.85646611927493     -2.03120069180122     -0.36743060802445
  H   0.10932273043037     -2.35830304069224      1.14647398941166
  C   -0.97936710455425     -0.17756632534467      1.60777235878939
  N   -1.59538812109426     -0.11703861663768      2.60838566106343
