12
Coordinates from ORCA-job run
  C   0.47402416223839      0.44342923007212     -0.24733269449496
  C   -0.25606673020507     -0.55285909069247      0.36289088396345
  C   1.82384923663036      0.70883580258142      0.10477078970590
  N   2.94288957402497      0.90403010601634      0.41238779264439
  N   -0.11151729541997      1.33293451604287     -1.23282433964468
  O   0.59879652756651      2.22912262695482     -1.67402558747524
  O   -1.28482891366494      1.12613647180461     -1.56519203186837
  N   -1.52022970846888     -0.93291262721202      0.09655038168971
  H   -2.06944788906851     -0.34739488636429     -0.51511407842836
  H   -1.97839719495969     -1.56857354528933      0.72824755890504
  C   0.42909916577094     -1.34103783350542      1.35353803041680
  N   0.95182906555587     -2.00071077040865      2.17610329458632
