12
Coordinates from ORCA-job run
  C   0.24734318270482      0.49033425392593     -0.43454369473035
  C   -0.27073077139637     -0.47147164518155      0.39186749887757
  C   1.07034152195557      0.10581070050568     -1.52343197253386
  N   1.73202388087127     -0.35283725203766     -2.38328897349129
  N   0.01625478670885      1.91817762368252     -0.25568063878482
  O   0.60483956358290      2.65470486303349     -1.04302453126398
  O   -0.73462386921525      2.27146878647149      0.64653963850764
  N   -0.10435987725118     -1.80031391223264      0.16355932620031
  H   0.57591756050650     -2.09514672209921     -0.52221704543944
  H   -0.29614538759780     -2.43867838541080      0.91840124744407
  C   -1.08977991623513     -0.17258133561436      1.53537484156507
  N   -1.75108067463417     -0.10946697504288      2.50644430364908
