12
Coordinates from ORCA-job run
  C   0.47077672041457      0.45908554306942     -0.22650332588002
  C   -0.25414278228037     -0.56418076338112      0.34422452878514
  C   1.81910888887974      0.71605542571369      0.13751270973515
  N   2.93613296775257      0.90291718330991      0.45758378848101
  N   -0.11533516088169      1.37709869963636     -1.18453805295837
  O   -1.29308865795536      1.18714129784055     -1.51189056615880
  O   0.59830458162310      2.27830050277984     -1.60932922661234
  N   -1.51641619222339     -0.93882668081845      0.06340422577699
  H   -2.06867682392142     -0.33511450180208     -0.52761498281983
  H   -1.96860818429594     -1.61287934589975      0.65794688914632
  C   0.43509527816116     -1.38810018587065      1.30235787062960
  N   0.95784936472701     -2.08149717457772      2.09684614187514
