12
Coordinates from ORCA-job run
  C   0.47093838474255      0.48714950458245     -0.16144842665262
  C   -0.28979480613372     -0.54063275636714      0.35172364208104
  C   1.81102831340442      0.70641423123365      0.25345974277382
  N   2.91939022189091      0.86012585661628      0.61846193629233
  N   -0.02918930149348      1.37379720887411     -1.19455133334977
  O   -1.19354532749469      1.20589447167361     -1.57753081968270
  O   0.73616608230000      2.23197875439213     -1.61831230895357
  N   -1.57534804046199     -0.83362681542298      0.07931369820842
  H   -1.95962375678034     -1.70106106557174      0.41514904550463
  H   -2.02176245174328     -0.34394115767156     -0.68181172871799
  C   0.33085782149888     -1.36929548941117      1.35159803359986
  N   0.79988286027074     -2.07680274292764      2.16694851889654
