12
Coordinates from ORCA-job run
  C   0.48707773656954      0.36003027654837     -0.33989211099315
  C   -0.27200059374242     -0.46020213713257      0.46565415896671
  C   1.86993915873177      0.57554586191139     -0.09949071200667
  N   3.01491571259236      0.73164671382437      0.12384663705414
  N   -0.09090657073897      1.10742860630015     -1.44090284115023
  O   -1.29167436128775      0.93478362216571     -1.68192256138838
  O   0.65267517996104      1.85734788826093     -2.06299481271013
  N   -1.57161191046134     -0.78361779977835      0.32467320658847
  H   -2.03721671781866     -1.26132613947061      1.07823925492279
  H   -2.11285950143432     -0.27137938931383     -0.35646863506477
  C   0.41389942125774     -1.11912167270188      1.54574391969463
  N   0.93776244637102     -1.67113583061367      2.44351449608659
