12
Coordinates from ORCA-job run
  C   0.25332374453857      0.51163126401274     -0.40541977270150
  C   -0.19596753245989     -0.48772342427986      0.41661452299378
  C   0.97628703317750      0.17935422984216     -1.57899242107061
  N   1.56271041554142     -0.23678024299544     -2.51204786069920
  N   -0.00121259664199      1.92676105636606     -0.16665614604595
  O   -0.53453024487763      2.24530866625091      0.89024087151381
  O   0.35240142576045      2.68919709000639     -1.06267378042238
  N   0.10620417842754     -1.79598915010820      0.21099431846664
  H   0.51498850980165     -2.06826879561455     -0.67126103287395
  H   -0.43602931438555     -2.49184994565833      0.69637455736457
  C   -0.97187506303745     -0.24465514134254      1.60263066694363
  N   -1.62630055584462     -0.22698560647933      2.58019607653117
