12
Coordinates from ORCA-job run
  C   0.20108021384192      0.50434331185352     -0.44186192888853
  C   -0.16374763662549     -0.47979926585038      0.43834223133820
  C   0.85885248699780      0.15439013095880     -1.64823220570404
  N   1.38957295521059     -0.27597241003339     -2.60780855149235
  N   -0.05599395588397      1.92193525401258     -0.22024693761532
  O   -0.64840365694025      2.24785995669843      0.80204976623924
  O   0.35216225597643      2.67931576783170     -1.09738984758065
  N   0.15151281180384     -1.78662296277661      0.24606405429660
  H   0.49984491761599     -2.07728953200401     -0.65598677010428
  H   -0.32806878799954     -2.47940399544854      0.79683564375192
  C   -0.84771154445018     -0.21855162758553      1.67607742038897
  N   -1.40810005954714     -0.19020462765657      2.71015712537023
