12
Coordinates from ORCA-job run
  C   0.20765026021854      0.50552787987707     -0.43825704577742
  C   -0.17178504012700     -0.48003894937895      0.43444166492695
  C   0.86874032180568      0.15490208604997     -1.64266993376442
  N   1.40290104230543     -0.27639220028105     -2.59988637896716
  N   -0.03511003240735      1.92414695094926     -0.20881094442280
  O   0.39798719726271      2.68376992167076     -1.07175962506820
  O   -0.64347043085000      2.24833696488320      0.80458947494581
  N   0.13090723423758     -1.78892322239870      0.23538815211606
  H   -0.35954036960761     -2.47958246206433      0.77946222648792
  H   0.47885188562295     -2.07797246637099     -0.66738458524456
  C   -0.85779160663163     -0.21981963125782      1.67122973971438
  N   -1.42134046182930     -0.19295487167843      2.70365725505343
