12
Coordinates from ORCA-job run
  C   0.33006378641943      0.53877807603441     -0.30189653568229
  C   -0.35209733532571     -0.50757287442851      0.26052096699013
  C   1.16295304653494      0.30761372373251     -1.42582463618427
  N   1.81467740558209     -0.02419200379437     -2.34927777471964
  N   0.27464330380149      1.90381710561504      0.20656676676916
  O   -0.48822555558376      2.14195561124048      1.13610314331648
  O   1.01211680013024      2.71036167866114     -0.35431215934308
  N   -0.33959289159795     -1.75828641743819     -0.26840039593790
  H   -0.66293002121955     -2.52154031749228      0.30297934019768
  H   0.33339606721718     -1.97742203272932     -0.98859012445393
  C   -1.19105693146114     -0.37077373464118      1.42037835063862
  N   -1.89294767449727     -0.44373881475972      2.36175305840905
