12
Coordinates from ORCA-job run
  C   0.46676706851837      0.45682059927314     -0.23976332076480
  C   -0.25518839476606     -0.53776967494975      0.38326488624950
  C   1.88143536350677      0.52957523690334     -0.14208970073280
  N   3.05347159798738      0.56388400454953     -0.04171714635990
  N   -0.16416581086530      1.44876818718608     -1.09001695595486
  O   0.56561906368941      2.27059736918827     -1.63221015433839
  O   -1.39471882787807      1.40242593462532     -1.20707890543677
  N   -1.59150985164684     -0.70055215806724      0.40273527138952
  H   -2.14680423300105     -0.12782130468666     -0.21543345037917
  H   -1.97214688008605     -1.55476336470493      0.77446458983783
  C   0.49147254292562     -1.47792618317717      1.17721988022581
  N   1.06476836161581     -2.27223864613993      1.82962500626402
