12
Coordinates from ORCA-job run
  C   0.30218978181916      0.51003554116745     -0.37074655523619
  C   -0.24417475516683     -0.49482502686004      0.38300808658372
  C   0.98608098108559      0.19076375695682     -1.57110449087608
  N   1.52458947169697     -0.21489130691059     -2.53702864957452
  N   0.19747303383569      1.92251715850577     -0.02822745120355
  O   0.60020874858075      2.70817023923497     -0.88239415325922
  O   -0.27231520525701      2.21650029333479      1.06544673821744
  N   -0.07649854159568     -1.80894413216892      0.08404387114587
  H   -0.68716100758163     -2.47946841152786      0.52133179345779
  H   0.30642565975275     -2.05799049660642     -0.81658655947834
  C   -0.99320295640653     -0.25649185714991      1.58716721981303
  N   -1.64561521076319     -0.23637575797606      2.56609015041004
