12
Coordinates from ORCA-job run
  C   0.45954006647788      0.46909154778288     -0.23970986281509
  C   -0.23440873380045     -0.56362726326742      0.35326364219151
  C   1.78822788839639      0.79524777505549      0.14160657086029
  N   2.88382052254004      1.04444322264213      0.49160644078048
  N   -0.14590723306976      1.32446129641370     -1.24241617778076
  O   -1.31398288640866      1.08456439260570     -1.56985291997031
  O   0.54232535651014      2.22842502766541     -1.70151679501415
  N   -1.47855616855227     -0.99468208669277      0.07359150164758
  H   -2.04691885381997     -0.44273092406058     -0.55105695052576
  H   -1.90944280699907     -1.67303092392495      0.67989480669158
  C   0.46305939470462     -1.31841755560119      1.36325190471613
  N   0.99224345402113     -1.95374450861839      2.20133783921848
