12
Coordinates from ORCA-job run
  C   0.24113767829825      0.49235324507545     -0.43608236101149
  C   -0.26675245692142     -0.47682705679127      0.38827159876217
  C   1.15442786393740      0.13154062674627     -1.45881359269942
  N   1.89709706204340     -0.30764706524690     -2.26075492548779
  N   -0.08309956178778      1.90788604311229     -0.31202779530920
  O   -0.91238330894188      2.23746009696095      0.52847475451641
  O   0.51399412959696      2.65942816260996     -1.07873372109235
  N   -0.00458557515962     -1.79786146081818      0.21244983614891
  H   -0.20795358799303     -2.42895388323698      0.97012854413625
  H   0.73178104244572     -2.06821651525723     -0.42358619639248
  C   -1.17021659421577     -0.19846165422625      1.47166806081532
  N   -1.89144669130223     -0.15070053892809      2.40000579761367
