12
Coordinates from ORCA-job run
  C   0.31731864862675      0.52275293410734     -0.33836058070431
  C   -0.33294971178400     -0.49067645682711      0.31845237393614
  C   1.15834079455559      0.20930528033644     -1.43551944041717
  N   1.78340499367476     -0.22418193265594     -2.33477681324666
  N   0.27228318157168      1.91648956008919      0.07798487666018
  O   1.09454371693910      2.65877250504916     -0.45205267807236
  O   -0.58090232469007      2.24096720055934      0.89638114827255
  N   -0.18102664356690     -1.78689218739382     -0.04003338051697
  H   -0.74608595663532     -2.51093509959680      0.37275389468025
  H   0.39140810792207     -2.01586689887495     -0.83714575708992
  C   -1.21633515382832     -0.28411122091314      1.43122730076124
  N   -1.95999965278532     -0.23462368387970      2.34108905573703
