12
Coordinates from ORCA-job run
  C   0.42581817205824      0.25660246393709     -0.48495305453586
  C   -0.27466035757340     -0.47567516635428      0.44830137073531
  C   1.64612430512279     -0.20821431127856     -1.04281218985779
  N   2.65350930716485     -0.62004791822475     -1.49067073820010
  N   -0.00585578112358      1.57494448008279     -0.91125138364399
  O   0.70485835363755      2.16633210400934     -1.71580314204252
  O   -1.06199934467383      2.01210562853555     -0.43837335105892
  N   -1.45832792367884     -0.17493317395982      1.01632167212889
  H   -1.82295325327369      0.75577043751605      0.87496333005334
  H   -1.76936689787410     -0.72010986721261      1.80316621829191
  C   0.27290847988333     -1.75733726980195      0.80724457108167
  N   0.68994494033068     -2.80843740724886      1.13386669704808
