12
Coordinates from ORCA-job run
  C   0.33992710281828      0.50852667188446     -0.34593806136530
  C   -0.35117944645659     -0.48004102452341      0.30359743526794
  C   1.29014429954148      0.14984878895355     -1.33610129850611
  N   2.05790851824078     -0.32976728524372     -2.09065493189041
  N   0.26480624242364      1.91466079670168      0.01819439306602
  O   1.04601535909628      2.65781598926587     -0.57066819378073
  O   -0.55565438578159      2.24840269104069      0.86626149340795
  N   -0.14862268904831     -1.79852242694359      0.05866591388859
  H   -0.85053503151241     -2.44854083054454      0.37162730946543
  H   0.41238741867420     -2.06134248606924     -0.73886527267766
  C   -1.33148847855953     -0.21416756194986      1.32138803531433
  N   -2.17070890943622     -0.14687332257188      2.14249317780996
