12
Coordinates from ORCA-job run
  C   0.51709351064615      0.39271856474698     -0.24711677035486
  C   -0.31831301609052     -0.49297616675451      0.39761886345153
  C   1.84022325850443      0.64089781612803      0.20450498005280
  N   2.93348739977557      0.82441868521533      0.59966521596653
  N   0.07697721459884      1.17688307136543     -1.38584212516593
  O   0.88056854141506      1.96532719323519     -1.87003001505471
  O   -1.07623465908251      0.99475700745407     -1.79444664563538
  N   -1.57061405904010     -0.84902436438308      0.05284694399317
  H   -2.03017883868711     -0.31329120543502     -0.66855004995572
  H   -2.11901332230542     -1.38316134673571      0.70633278303234
  C   0.22927966932907     -1.18728237544983      1.53330540897767
  N   0.63672430093654     -1.76926687938689      2.47171141069253
