12
Coordinates from ORCA-job run
  C   0.16836937884012      0.46973247595480     -0.49249954269557
  C   -0.18620044703987     -0.46031597215168      0.44997940876716
  C   1.09143695957523      0.11745533285721     -1.50904697055969
  N   1.86087322701215     -0.30472537504372     -2.29451556549052
  N   -0.35021717762322      1.83036221941274     -0.51254713511508
  O   -1.22454879348019      2.12557259672626      0.29505426361140
  O   0.13859933242335      2.57557219755293     -1.35837214205231
  N   0.24678366035577     -1.74605218624608      0.40873890003821
  H   0.98040255578917     -1.99816843933380     -0.23741693358925
  H   0.14623493693368     -2.31285134560450      1.23463531646786
  C   -1.08781179804203     -0.18089746742268      1.53494471241757
  N   -1.78392183474415     -0.11768403670147      2.48104568820022
