12
Coordinates from ORCA-job run
  C   0.24424894636287      0.48485986910876     -0.44743436701024
  C   -0.19884869665204     -0.44812251568088      0.45212595069996
  C   1.15766052154304      0.09807284527707     -1.46038257646670
  N   1.89388003482360     -0.37598388899242     -2.24795103430836
  N   -0.18064338870941      1.87863122291463     -0.43592949141283
  O   -0.89731333240329      2.25505733145763      0.48451883758043
  O   0.22856742394202      2.56620697946968     -1.36839159607211
  N   0.26198930853385     -1.72525269694013      0.47051598440602
  H   -0.25955129939607     -2.41485382445363      0.98590202541098
  H   0.81724375226453     -2.05370984065795     -0.30624950683553
  C   -1.15044559210118     -0.15497554843295      1.49002774124881
  N   -1.91678767820792     -0.10992993306982      2.38224803275958
