12
Coordinates from ORCA-job run
  C   0.32315587516420      0.52397069260336     -0.32501791272184
  C   -0.35568625795823     -0.50213421304420      0.27704361119130
  C   1.23069552652261      0.24128771316570     -1.37704413212679
  N   1.95937755598712     -0.12328936651916     -2.22812006167364
  N   0.19937532972081      1.92068925064021      0.07146889661380
  O   0.93647157860664      2.70865424157280     -0.51580041827480
  O   -0.62329396314706      2.20144086961758      0.93644500718935
  N   -0.28149566210078     -1.78651361711276     -0.15806045398324
  H   0.41814049857921     -2.02967775936206     -0.84468015902378
  H   -0.57783267753722     -2.51532905410402      0.47019355899608
  C   -1.24835677536238     -0.30698016443553      1.38693814793832
  N   -1.98155102847493     -0.33111859302194      2.30663391587524
