12
Coordinates from ORCA-job run
  C   0.46098223463235      0.43023755721093     -0.29752854968187
  C   -0.23668523949385     -0.53991061764921      0.38842684030195
  C   1.88022736229313      0.49962695051264     -0.25526740991966
  N   3.05424524215072      0.53973955700290     -0.18786112223650
  N   -0.21037888579551      1.42736963172429     -1.10854570329799
  O   0.49492022110135      2.24195054550949     -1.69213583922554
  O   -1.44616721533062      1.39729886614517     -1.15177094997406
  N   -1.56547258718075     -0.76018598900476      0.38362664086558
  H   -1.95335448929375     -1.39185312641366      1.06212866587783
  H   -2.15401981908000     -0.05887565303965     -0.04286476926582
  C   0.54102802570531     -1.48699162571617      1.14411449341771
  N   1.13267515029162     -2.29740609628198      1.75867770313839
