12
Coordinates from ORCA-job run
  C   0.47739662381016      0.41961310736914     -0.28098016432616
  C   -0.25840397324886     -0.55104323064801      0.36286380754941
  C   1.88114544221637      0.53829881977480     -0.10301011020790
  N   3.04412531144284      0.61109451791024      0.06186460240751
  N   -0.14267507938014      1.42075844906026     -1.12834771396218
  O   -1.36639527865039      1.35096184995868     -1.29487485186992
  O   0.58975630104536      2.26778754442164     -1.62645073078506
  N   -1.57724447061127     -0.79935687715886      0.25066913599384
  H   -2.14356753491470     -0.12321339177852     -0.24012273312228
  H   -2.00713046966713     -1.43725041216464      0.89968733254528
  C   0.47164623993207     -1.46668857156519      1.19969960653640
  N   1.03034688802570     -2.23096180517952      1.89900181924106
