12
Coordinates from ORCA-job run
  C   0.43172180746845      0.48057167373300     -0.27784409359813
  C   -0.36475497051852     -0.46513331218961      0.31382536510926
  C   1.29953679622692      0.10074692342312     -1.33562373284301
  N   1.96426696695590     -0.32114151765439     -2.21020227921989
  N   0.46759538247949      1.87777249914835      0.14813346443911
  O   1.38580637143500      2.54595311371993     -0.32276551090996
  O   -0.38726840743852      2.26915590771842      0.93220597593850
  N   -0.29701014011117     -1.79019152363294     -0.02179423781081
  H   -1.08968068285538     -2.35583941903727      0.24118237529237
  H   0.16325319770691     -2.04426035128693     -0.88503979752800
  C   -1.33962354563453     -0.17285214256235      1.32932037612401
  N   -2.23484277571453     -0.12478185137932      2.08960209500654
