12
Coordinates from ORCA-job run
  C   0.42308729587547      0.52987843328144     -0.15207469597750
  C   -0.21857017050967     -0.59734336735640      0.31248550782520
  C   1.79694773727100      0.77371106307417      0.11169809051904
  N   2.93683156527404      0.95162260746364      0.34408399965862
  N   -0.24473147128075      1.50359959531751     -0.99520348585993
  O   -1.43916325404042      1.31262202375112     -1.25379282432135
  O   0.41919544723945      2.45490494818003     -1.39028304376940
  N   -1.51510879760336     -0.92987494836451      0.16648698059657
  H   -1.81074521013809     -1.85657653329730      0.42479080795818
  H   -2.07330932849813     -0.38331716969609     -0.47250386794696
  C   0.56121177336740     -1.49804444391175      1.12023934770959
  N   1.16435441304305     -2.26118220844187      1.78307318360795
