12
Coordinates from ORCA-job run
  C   0.47559658962026      0.45348376155848     -0.22620061283223
  C   -0.30321305967875     -0.47265828217525      0.43219408928487
  C   1.81234001027139      0.72573044918573      0.16852627683420
  N   2.91735993766278      0.92830149175182      0.51897916273429
  N   0.00580229039931      1.15631248367218     -1.40571992261992
  O   -1.14646812696347      0.92264346360731     -1.79008060134176
  O   0.78253234031174      1.93946182877038     -1.93995887465585
  N   -1.58777946067224     -0.79592993499991      0.18770637319448
  H   -1.97716617299442     -1.60547227963604      0.64153981657818
  H   -2.00489864661753     -0.44953136623462     -0.66371893301457
  C   0.28886665025069     -1.12151772197248      1.57253465626612
  N   0.73902764841024     -1.68082389352759      2.50519856957218
