12
Coordinates from ORCA-job run
  C   0.44107716759458      0.50406750829128     -0.18316975078496
  C   -0.21273517127101     -0.63230204356050      0.24228911966169
  C   1.80667810203286      0.74120416053256      0.12775866908452
  N   2.94068950337371      0.90388952280108      0.39638089927986
  N   -0.24349961244991      1.56924205086713     -0.88783094623308
  O   0.40869647920329      2.57145672416106     -1.15878995433750
  O   -1.43450251665728      1.39635600571034     -1.17336184859959
  N   -1.48109325934466     -1.00026876899039     -0.01664663358774
  H   -1.87416158407374     -1.77431693599806      0.49321134851700
  H   -2.09309348119396     -0.30835290669163     -0.42537439166211
  C   0.56992394946660     -1.58562152846702      0.98328770524771
  N   1.17202042331952     -2.38435378865585      1.60324578341421
