12
Coordinates from ORCA-job run
  C   0.46872128275939      0.44486283316781     -0.25627743145991
  C   -0.24701266907440     -0.56284465947777      0.35206081896061
  C   1.85233719797687      0.64055890566519     -0.00440651376342
  N   2.99948102619829      0.77608558594636      0.22077400680132
  N   -0.15816556817818      1.40816080186340     -1.14207352413339
  O   -1.36535050788581      1.27098657213330     -1.37420472492542
  O   0.55316182237093      2.29238002550801     -1.60488915766279
  N   -1.54244607535809     -0.88303836997693      0.16989096600993
  H   -2.11742581026918     -0.23935904282117     -0.35339377025355
  H   -1.97173512405879     -1.54080439929609      0.79918773336665
  C   0.48504206082305     -1.43646721984472      1.23099801196870
  N   1.04339236469591     -2.17052103286739      1.96233358509126
