12
Coordinates from ORCA-job run
  C   0.46412951783306      0.46979280577509     -0.21625992416598
  C   -0.25286622225633     -0.55837964931108      0.35625978508380
  C   1.87609112927651      0.56066791005253     -0.09367439362509
  N   3.04603665310045      0.61041136691148      0.02487437579640
  N   -0.16864675976419      1.48457149569861     -1.03739579031602
  O   -1.39718367673696      1.42852320587887     -1.17020270248646
  O   0.55619114382655      2.33897047081122     -1.53356761705893
  N   -1.58686506384705     -0.74005477568198      0.34507801881217
  H   -2.13981986293480     -0.14879122138997     -0.25769243336120
  H   -1.96030303836558     -1.61216028124588      0.68250492269512
  C   0.49438394123254     -1.51619719674744      1.12784128298537
  N   1.06685223863579     -2.31935413075146      1.77023447564082
