12
Coordinates from ORCA-job run
  C   0.44650798295446      0.49290476324241     -0.20056784032430
  C   -0.24870411827848     -0.54997661644364      0.37155113166499
  C   1.82368060817132      0.71265096803309      0.06670838722531
  N   2.96459975950722      0.87130009152496      0.30799077653359
  N   -0.16551897953670      1.39129662718481     -1.16134985102254
  O   0.54393748300432      2.26609815529135     -1.64463256437846
  O   -1.36116877019244      1.21731053776587     -1.42630767650294
  N   -1.55549090428744     -0.84526297886034      0.23655308437911
  H   -2.08043792056518     -0.35250634262808     -0.47071345608207
  H   -1.89258575149782     -1.72561236092891      0.58883705411335
  C   0.48050503072376     -1.38502238647687      1.28955157017837
  N   1.04467557999699     -2.09218045770465      2.04237938421559
