12
Coordinates from ORCA-job run
  C   0.45852015001491      0.33770475116366     -0.39812134814868
  C   -0.26641097300045     -0.52700621289528      0.39232546297084
  C   1.83219533906784      0.12042353535772     -0.68449619631395
  N   2.96912567217502     -0.08643391141472     -0.90751488751792
  N   -0.11450975847126      1.56107229901007     -0.92769194570658
  O   -1.30647687824489      1.78607412864122     -0.68537902718605
  O   0.62131976249217      2.28865654798979     -1.58434469174573
  N   -1.57415620792388     -0.46028966223162      0.70649724372800
  H   -2.07250509126545      0.38535788354759      0.47152925129411
  H   -1.93364478720430     -1.07294111774441      1.41948638339980
  C   0.42705152643775     -1.68836773101754      0.88421332542152
  N   0.96049124592254     -2.64525051040648      1.31449642980464
