12
Coordinates from ORCA-job run
  C   0.46896428099954      0.45626638204678     -0.23361781999953
  C   -0.26714787454019     -0.52190062263809      0.39834325592790
  C   1.86843868547722      0.58942135749109     -0.03360776139976
  N   3.02692288513416      0.67827252219965      0.15367483150545
  N   -0.12544130478744      1.36976068835449     -1.19153486430373
  O   0.61787123108600      2.18102936129620     -1.73119557052644
  O   -1.34125727113019      1.27155297333539     -1.39697030793922
  N   -1.59588464851391     -0.73007299835284      0.33050767267916
  H   -2.11753537728827     -0.21976804223183     -0.36677562055916
  H   -1.97435699758793     -1.57738592536010      0.72000944248530
  C   0.44638270546203     -1.38357367994063      1.30395453527559
  N   0.99404368568898     -2.11360201620011      2.04721220685445
