12
Coordinates from ORCA-job run
  C   0.46243933590987      0.46015892897300     -0.23932750294026
  C   -0.23850543795113     -0.59161621172696      0.30867323040369
  C   1.86046651553794      0.61309223144931     -0.04338925631025
  N   3.01963473240751      0.71277534122530      0.13403255286172
  N   -0.19240631329076      1.51276715642267     -0.99299841757940
  O   0.50953756720845      2.42828184215295     -1.40670717556790
  O   -1.41239841301512      1.41443105477425     -1.17169137486478
  N   -1.54725782687895     -0.87614755396633      0.16680210063729
  H   -1.95521095895904     -1.58415848695519      0.75442894892734
  H   -2.13666395090293     -0.17708778018933     -0.26071768831777
  C   0.52305660118039     -1.55404713135605      1.06057704803034
  N   1.10730814875378     -2.35944939080362      1.68931753472000
