12
Coordinates from ORCA-job run
  C   0.47624484072391      0.43950567957235     -0.24995426169146
  C   -0.26194551178395     -0.54111492844796      0.37581460008975
  C   1.89608685911156      0.43228289164532     -0.23898323784624
  N   3.07228688097823      0.40209209552835     -0.21323039059619
  N   -0.14758149905763      1.50536256552370     -1.01145761255758
  O   0.59347437903652      2.31107229381357     -1.56251368067000
  O   -1.38362929876316      1.53205685232480     -1.05145163752023
  N   -1.60196229886173     -0.62799081476939      0.47921143356996
  H   -2.15895169048084      0.00040326994308     -0.08086160245699
  H   -2.00652835574060     -1.48165284008236      0.82644391550869
  C   0.47709927638490     -1.55924127442575      1.07508723287995
  N   1.04440641845279     -2.41477579062569      1.65089524129034
