12
Coordinates from ORCA-job run
  C   0.33859393646434      0.50231337628935     -0.35017603870046
  C   -0.35397465602565     -0.48587450369844      0.29826270193456
  C   1.45636623535616      0.16065012404037     -1.15291946433675
  N   2.35855274550721     -0.26246898991126     -1.78110646163869
  N   0.00977222120983      1.91880633005863     -0.24827715956048
  O   -0.98378961131277      2.23469674420547      0.39636976455622
  O   0.77289904555874      2.68480799425401     -0.83132442726912
  N   -0.07296832350013     -1.80485376971426      0.13356108285400
  H   -0.44714755869611     -2.45752065863840      0.80273966486453
  H   0.78956801034109     -2.06425808030050     -0.32359267773208
  C   -1.47782169600329     -0.22886383344055      1.15759579413888
  N   -2.39005034889942     -0.19743473314441      1.89986722088938
