12
Coordinates from ORCA-job run
  C   0.45056113038773      0.49115101102438     -0.19739623871954
  C   -0.25776822156974     -0.54087418793450      0.37828336415308
  C   1.81894174090060      0.72161838695806      0.10374447724808
  N   2.95311898397204      0.88793384416094      0.37047011545975
  N   -0.13544100448984      1.36305263317519     -1.19793848216191
  O   0.58790611223284      2.22207847035029     -1.68855378599260
  O   -1.32445811907952      1.18300793003670     -1.48748781107481
  N   -1.55878143677886     -0.84502755429661      0.21137990427112
  H   -1.90336046014687     -1.71908309145331      0.57196310493793
  H   -2.06569296957743     -0.36621559691682     -0.51810144302843
  C   0.44692626237513     -1.35337491873240      1.33502942102483
  N   0.98904798177393     -2.04426692637194      2.11860737388249
