12
Coordinates from ORCA-job run
  C   0.41249297949577      0.53470016202644     -0.16389842181020
  C   -0.22390708175612     -0.57321851820811      0.35166030295623
  C   1.74107782311974      0.87571984734936      0.20326309368517
  N   2.84265113101130      1.13462557599272      0.52669532339909
  N   -0.20781410900827      1.38304701644016     -1.16431168625173
  O   0.45217403944824      2.32288698614462     -1.59226981958733
  O   -1.36086877780894      1.10464770289040     -1.51514606592717
  N   -1.48520548694307     -0.98421423653204      0.12052257951569
  H   -1.76576267779701     -1.89510093585582      0.44362143851518
  H   -2.00010211652080     -0.53242089309723     -0.62073604398236
  C   0.51109829586739     -1.35109232385010      1.31415139069061
  N   1.08216598089177     -2.01858038330039      2.09744790879683
