12
Coordinates from ORCA-job run
  C   0.50613872587388      0.40152197482282     -0.25621909639460
  C   -0.30583914143960     -0.48774271815807      0.41293118868190
  C   1.82470255773415      0.69165442635410      0.18331502890533
  N   2.91476757272819      0.91055748409767      0.56907663058286
  N   0.04555919395426      1.14289023984222     -1.41552451361045
  O   0.82785336700611      1.93986518298762     -1.92032177468357
  O   -1.10184565200288      0.91843292208173     -1.81922944582942
  N   -1.54881755708237     -0.88433327335851      0.07952259282132
  H   -2.08234563750528     -1.41861136075288      0.74491095086794
  H   -2.02240610089319     -0.38152940980950     -0.65647797695504
  C   0.26045346876248     -1.14010995078871      1.56417596239238
  N   0.68177920286424     -1.69159551731851      2.51484045322136
