12
Coordinates from ORCA-job run
  C   0.35598983135772      0.52192675209859     -0.30922659139850
  C   -0.32196979380139     -0.49861609239667      0.30638480446415
  C   1.20928673696751      0.23696130993185     -1.40457932892316
  N   1.87796569445772     -0.14153469131041     -2.29755076440019
  N   0.26584793925249      1.91174985511151      0.11051870690904
  O   -0.37722177627998      2.16839131395963      1.12307817593136
  O   0.85010867803232      2.72467549044267     -0.60274852529787
  N   -0.22492193845887     -1.78674336465428     -0.09529041442050
  H   0.42016322085467     -2.05247770143487     -0.82397657168173
  H   -0.71946830884265     -2.50983227549207      0.39739898656973
  C   -1.25827238070213     -0.28819914977698      1.37569927280128
  N   -2.07850790283741     -0.28530144647898      2.21929224944638
