12
Coordinates from ORCA-job run
  C   0.45205805164393      0.24590691410353     -0.46720335527367
  C   -0.26072538195481     -0.43655836217143      0.49415023020179
  C   1.82168726267236     -0.02742129852929     -0.72259638449648
  N   2.95678462509025     -0.27287807922343     -0.91420459120634
  N   -0.12803869545675      1.33972896293822     -1.22397960544741
  O   0.59729742331653      1.91600512805387     -2.02621595916306
  O   -1.31509634199212      1.61527582377512     -1.01197487346253
  N   -1.56174356131530     -0.29818476468894      0.81253939972977
  H   -1.91246461456342     -0.75548909619668      1.63735287095479
  H   -2.06274014898076      0.48399206060890      0.41751752179526
  C   0.43847466157295     -1.47831731878045      1.19948613321129
  N   0.97550671996714     -2.33205996988943      1.80612861315660
