12
Coordinates from ORCA-job run
  C   0.26138125504490      0.54211540471507     -0.35740167413672
  C   -0.21138989897946     -0.51665165003866      0.37210621280403
  C   1.10930177482111      0.30297831236865     -1.46835815996713
  N   1.79797395391019     -0.03750160463513     -2.36151711637313
  N   -0.07945548559237      1.93131765623108     -0.07649966965305
  O   -0.75919347573874      2.16837646653856      0.91562108607604
  O   0.35519657493001      2.75717238506231     -0.87536999867991
  N   0.17370938061632     -1.79804620347952      0.13697400230251
  H   -0.37914285532430     -2.54125372485993      0.53212208204478
  H   0.67518289475099     -2.00604327620966     -0.71452937057841
  C   -1.10404048073249     -0.36957276836155      1.48989692947903
  N   -1.83952363770617     -0.43289099733125      2.40595567668197
