14
Coordinates from ORCA-job run
  C   -0.69501706144985      0.02589708233551     -0.40256156666556
  C   0.47035022045294     -0.69636577728291      0.25931002314941
  F   -0.44933613819762      0.12705896537068     -1.76471288673232
  H   0.22579757143037     -0.84892746352587      1.31620949168393
  H   0.53076481784650     -1.68777666139816     -0.19777641686232
  N   -0.83793228661191      1.35959310558546      0.09649813891196
  H   -0.87011473022755      1.36711198607103      1.10778800521289
  H   -1.67763306940966      1.79474009527088     -0.26582771756002
  C   -1.93561805988253     -0.78791335394016     -0.27709908943607
  N   -2.92137346503255     -1.40601026187440     -0.11524211670617
  C   1.78880472391096      0.05120185277025      0.09495191278742
  H   1.76599785260680      1.02135902728017      0.59012206483126
  H   2.00052049568299      0.21797833400532     -0.96145575071714
  H   2.60478912888113     -0.53694693066779      0.51979590810273
