14
Coordinates from ORCA-job run
  C   -0.81702881512976      0.08770012875545     -0.35792678390080
  C   0.64743911104009     -0.13545446539893     -0.70344562643906
  F   -1.52146854290569      0.13925272692619     -1.58014255498895
  H   0.96541358036988      0.73657566542436     -1.28639298573173
  H   0.69255347475735     -0.99756303053682     -1.37371706536562
  N   -1.00243707594220      1.26081914148764      0.41167075733195
  H   -0.62375822722542      2.06480742904452     -0.07356363035361
  H   -1.97986561260147      1.41827268402855      0.62241922069322
  C   -1.37627623182395     -1.06540289890820      0.37978268007258
  N   -1.80239101814074     -1.99267896898720      0.95913433631369
  C   1.53341564663205     -0.33765887716755      0.51906001244701
  H   1.22544464585605     -1.21995744344705      1.08462476243813
  H   1.48474459334101      0.52413094440628      1.18487856367588
  H   2.57121447177279     -0.48284303562724      0.21261831380731
