14
Coordinates from ORCA-job run
  C   -0.75577921705290      0.02014335009717     -0.23870204175389
  C   0.73689507562156      0.29545490283547     -0.31995765446794
  F   -1.03564086099113     -1.15070428983200     -0.93024103591045
  H   0.94657104482641      1.22149164688325      0.22619336127610
  H   0.94517212440075      0.47682453505792     -1.37810103085453
  N   -1.50138199793479      1.06724776931657     -0.86573458638203
  H   -1.19414146493496      1.97574653531406     -0.54481938045728
  H   -2.49374185039787      0.96844912603424     -0.68953069346934
  C   -1.16399354472568     -0.23894435218081      1.16969802285234
  N   -1.48743199572947     -0.37614872697266      2.29063175815597
  C   1.58587366543802     -0.84854272904769      0.21975205108852
  H   1.35674049880204     -1.77672430203544     -0.30439484552149
  H   1.41610452526740     -1.00409939877502      1.28739140472833
  H   2.64575399741060     -0.63019406669509      0.07681467071568
