14
Coordinates from ORCA-job run
  C   -0.79533557506789      0.00377710406027     -0.21084012135524
  C   0.49690119965398     -0.75365910174030      0.06639190305218
  F   -0.78063793953382      0.36615137616602     -1.57838672030059
  H   0.54188397051193     -1.57488793714512     -0.65315432369156
  H   0.42226033054889     -1.18894871800545      1.06588848367966
  N   -0.95626918479406      1.12855027653213      0.63221773374462
  H   -1.82820516551248      1.60720781440771      0.44427203715510
  H   -0.18698899587005      1.77514620415893      0.51725935403015
  C   -1.96309557783205     -0.88789475392705     -0.04807333686145
  N   -2.87616220358977     -1.61371992747933      0.07973432083992
  C   1.73809700180991      0.12453260437260     -0.05596458835325
  H   2.63675536620718     -0.49307186814025     -0.01256859103603
  H   1.80713985339371      0.84731325230433      0.75988872265869
  H   1.74465692007453      0.65850367443551     -1.00766487356219
