15

C	-0.357279	0.022046	-1.423084
C	0.0	0.0	0.0
Br	-2.684686	-0.339166	-1.553323
H	1.095337	0.0	0.0
H	-0.307129	-0.969854	0.407245
C	-0.402869	1.318626	-2.079777
N	-0.380369	2.368336	-2.608764
N	0.231392	-0.928669	-2.197151
H	-0.108013	-1.040351	-3.137698
H	0.481453	-1.772458	-1.709417
C	-0.523401	1.152166	0.83036
H	-0.152487	1.046358	1.852836
H	-0.135915	2.100407	0.44855
H	-1.616785	1.198053	0.84883
F	2.557156	0.0	0.0
