15

C	-0.143118	0.160249	-1.504952
C	0.0	0.0	0.0
Br	-0.410404	-1.818669	-2.353982
H	1.095259	0.0	0.0
H	-0.290201	0.993621	0.381468
C	-1.364676	0.792558	-1.986126
N	-2.349315	1.35678	-2.30169
N	1.011357	0.735617	-1.97534
H	1.851738	0.557301	-1.358786
H	0.947389	1.58425	-2.50303
C	-0.710077	-1.098292	0.76487
H	-1.780428	-1.136907	0.542794
H	-0.265155	-2.063589	0.542641
H	-0.596737	-0.901367	1.834663
F	2.728498	0.0	0.0
