15

C	-0.04343	-0.163937	-1.521051
C	0.0	0.0	0.0
Br	-1.767144	-0.951266	-2.203747
H	1.097551	0.0	0.0
H	-0.442309	0.944072	0.324411
C	0.025819	1.159587	-2.158542
N	0.104853	2.22441	-2.651343
N	1.057888	-0.96827	-2.028606
H	0.875815	-1.929079	-1.755552
H	1.8738	-0.6521	-1.446126
C	-0.499697	-1.192042	0.79252
H	-0.194184	-1.083382	1.837043
H	-1.587171	-1.306329	0.754602
H	-0.046442	-2.11553	0.422795
F	2.713157	0.0	0.0
