16

C	-0.246174	-0.016294	-1.501635
C	0.0	0.0	0.0
Cl	-2.015568	-0.012718	-1.909195
H	1.09428	0.0	0.0
C	0.427905	1.224806	-2.085908
H	-0.071706	2.125111	-1.728719
H	1.460147	1.196678	-1.725113
H	0.39072	1.196109	-3.174304
C	0.343131	-1.190982	-2.155205
N	0.782574	-2.031691	-2.84866
N	-0.482721	-1.195077	0.721179
O	-0.715171	-1.070347	1.922108
O	-0.558177	-2.24932	0.094238
C	-0.502023	1.202484	0.625522
N	-0.862762	2.214316	1.103978
F	2.458244	0.0	0.0
