16

C	-0.256958	-0.036474	-1.498732
C	0.0	0.0	0.0
Cl	-2.027026	-0.000811	-1.898044
H	1.093419	0.0	0.0
C	0.437054	1.183437	-2.104981
H	1.471394	1.143219	-1.749034
H	-0.045099	2.098739	-1.757382
H	0.39139	1.140025	-3.193935
C	0.313048	-1.229401	-2.132446
N	0.799554	-2.101838	-2.74974
N	-0.485295	-1.176592	0.75062
O	-0.651194	-2.224484	0.130117
O	-0.625039	-1.045315	1.965231
C	-0.492093	1.215804	0.60974
N	-0.849527	2.224157	1.097949
F	2.457836	0.0	0.0
