16

C	-0.255235	0.027861	-1.499615
C	0.0	0.0	0.0
Cl	-2.02445	0.065024	-1.899121
H	1.096766	0.0	0.0
C	0.427541	1.279658	-2.052114
H	0.383072	1.282115	-3.141341
H	1.46089	1.232828	-1.698155
H	-0.063031	2.173154	-1.664795
C	0.324136	-1.131549	-2.185304
N	0.789501	-1.963424	-2.871725
N	-0.483385	-1.208661	0.696017
O	-0.628499	-2.233749	0.033392
O	-0.645883	-1.125791	1.911876
C	-0.495702	1.185929	0.661499
N	-0.86713	2.185355	1.157431
F	2.45637	0.0	0.0
