16

C	-0.455118	0.005858	-1.469859
C	0.0	0.0	0.0
Cl	0.119981	-1.514169	-2.239881
H	1.091909	0.0	0.0
C	-1.956729	0.129461	-1.712645
H	-2.152215	0.173435	-2.785381
H	-2.47387	-0.724209	-1.278719
H	-2.326535	1.043209	-1.240914
C	0.225774	1.125271	-2.12971
N	0.639815	2.056765	-2.713947
N	-0.503586	-1.23641	0.688645
O	-1.721302	-1.341609	0.875915
O	0.334352	-2.065598	1.027651
C	-0.538921	1.154675	0.689579
N	-0.944469	2.111255	1.24209
F	2.454957	0.0	0.0
