16

C	-0.338661	-0.033768	-1.500675
C	0.0	0.0	0.0
Cl	0.134689	1.591101	-2.136156
H	1.09082	0.0	0.0
C	0.530681	-1.066868	-2.216536
H	1.544898	-0.916127	-1.832454
H	0.181806	-2.071322	-1.980907
H	0.487764	-0.909923	-3.295605
C	-1.772042	-0.177983	-1.774816
N	-2.9181	-0.265904	-2.023077
N	-0.433885	-1.230292	0.714179
O	-0.23651	-1.247232	1.924075
O	-0.929489	-2.158549	0.069017
C	-0.540606	1.141172	0.709889
N	-0.969565	2.071805	1.286411
F	2.478359	0.0	0.0
