16

C	-0.256773	0.044388	-1.497852
C	0.0	0.0	0.0
Cl	-2.026574	0.067502	-1.897274
H	1.096807	0.0	0.0
C	0.412373	1.309648	-2.035723
H	1.448433	1.270236	-1.686718
H	0.364	1.326168	-3.124877
H	-0.086267	2.193686	-1.636463
C	0.335767	-1.100732	-2.196613
N	0.813531	-1.916474	-2.89396
N	-0.47516	-1.221126	0.681629
O	-0.626626	-2.235517	0.004201
O	-0.623388	-1.157835	1.900947
C	-0.500068	1.174325	0.678141
N	-0.873489	2.16513	1.189704
F	2.454412	0.0	0.0
