17

C	-0.329272	0.054867	-1.497007
C	0.0	0.0	0.0
Br	0.024535	-1.837227	-2.248729
H	1.102495	0.0	0.0
C	-1.775963	0.34113	-1.840039
H	-2.047862	1.303981	-1.402941
H	-1.914175	0.37426	-2.924628
H	-2.424846	-0.432705	-1.428764
N	0.56721	0.998277	-2.039992
H	1.521905	0.802772	-1.71054
H	0.527405	1.032686	-3.050129
C	-0.589835	-1.120168	0.711694
N	-1.034633	-2.002887	1.347727
N	-0.469216	1.267481	0.619613
H	-0.009556	1.992349	0.070854
H	-0.01147	1.301697	1.527656
H	2.770968	0.0	0.0
