17

C	-0.365599	0.093704	-1.489078
C	0.0	0.0	0.0
Br	-0.103592	-1.839448	-2.271149
H	1.094628	0.0	0.0
C	-1.812855	0.412731	-1.78318
H	-1.985958	0.473965	-2.860999
H	-2.465609	-0.359377	-1.372053
H	-2.034182	1.37454	-1.315775
N	0.536627	0.991939	-2.05944
H	1.492669	0.801246	-1.742606
H	0.470378	1.03722	-3.066961
C	-0.559171	-1.146246	0.692203
N	-1.035898	-1.999862	1.347109
N	-0.389145	1.258192	0.669492
H	0.480175	1.695686	0.964046
H	-0.930877	1.057599	1.50001
H	2.728279	0.0	0.0
