17

C	-0.345592	0.028973	-1.443455
C	0.0	0.0	0.0
Br	-2.650073	0.507271	-1.505723
H	1.09654	0.0	0.0
C	0.237448	1.208912	-2.151162
H	-0.017157	1.207389	-3.21342
H	1.325959	1.116466	-2.007293
H	-0.102243	2.128422	-1.684988
N	-0.181367	-1.163429	-2.085212
H	-0.567952	-1.967167	-1.610972
H	-0.401103	-1.145367	-3.068973
C	-0.45345	-1.230361	0.646015
N	-0.817279	-2.22051	1.168561
N	-0.341756	1.222238	0.693831
H	0.310862	1.339699	1.460718
H	-1.29481	1.196973	1.033946
H	2.563906	0.0	0.0
