20

C	0.0	0.0	0.0
C	-0.376403	0.263284	-1.463674
F	1.429167	0.0	0.0
H	0.245122	1.119041	-1.761259
C	-0.460403	1.086216	0.94311
H	-0.007087	0.929472	1.926222
H	-1.546857	1.049753	1.032336
H	-0.152592	2.066216	0.573315
N	-0.485382	-1.259678	0.439443
H	-0.366778	-1.373194	1.437378
H	-0.016888	-2.015961	-0.041412
C	-1.850404	0.613794	-1.641091
H	-2.112554	0.626316	-2.704375
H	-2.514664	-0.096117	-1.143812
H	-2.0968	1.597014	-1.234693
C	0.005948	-0.923532	-2.348415
H	-0.682969	-1.756759	-2.185694
H	1.030928	-1.255748	-2.159452
H	-0.069517	-0.642067	-3.402515
Cl	-5.03929	0.0	0.0
