20

C	0.0	0.0	0.0
C	-0.467813	-0.020443	-1.456645
F	1.429196	0.0	0.0
H	-1.561208	0.036444	-1.3894
C	-0.486011	1.209327	0.763821
H	-1.579637	1.20477	0.742326
H	-0.137854	1.152999	1.800169
H	-0.098188	2.13084	0.329795
N	-0.431351	-1.184463	0.668215
H	-0.308735	-1.094523	1.668131
H	0.097535	-1.981359	0.340689
C	-0.09093	-1.330616	-2.14748
H	-0.62484	-2.173927	-1.706399
H	-0.368188	-1.290888	-3.204354
H	0.98783	-1.509898	-2.087893
C	0.072007	1.168439	-2.249532
H	1.165698	1.178465	-2.239008
H	-0.261238	1.104898	-3.289361
H	-0.286885	2.120637	-1.854903
Cl	-4.077751	0.0	0.0
