19
Coordinates from ORCA-job run
  C   0.83853928283787     -0.44952573929290      0.07344306058966
  C   -0.65477926191111     -0.44399055801876     -0.27773574437128
  Cl  1.33338943303333     -2.08343030970499      0.59648533446862
  H   -0.80444063242261     -1.30871354857805     -0.93206958644541
  C   1.27555233290697      0.54864558021778      1.11967884195015
  H   2.35941176173765      0.53121301708166      1.22657754902644
  H   0.97407677925168      1.55921069860393      0.84590255171019
  H   0.82741686386010      0.28070281127698      2.07610844924805
  N   1.57576300566636     -0.18569463945989     -1.24055586671234
  O   2.21159677830863      0.86145409505143     -1.32826820890802
  O   1.41130863378756     -1.00244253797114     -2.13802279596558
  C   -1.04726616599682      0.81430639438430     -1.05463575264769
  H   -0.86331582342614      1.72377127596286     -0.47760099674464
  H   -2.11660189995718      0.77549582235722     -1.27492598022084
  H   -0.52194307677492      0.89607547674899     -2.00782265246666
  C   -1.52361579870772     -0.60169481853687      0.96716950179714
  H   -1.21929000747466     -1.45601330404005      1.57376161716695
  H   -2.56186872414831     -0.75872442728070      0.66583872206244
  H   -1.49393348057068      0.29735471119820      1.58767195646282
