19
Coordinates from ORCA-job run
  C   0.76877481482420     -0.17590640240504      0.30605284962051
  C   -0.61178460196435      0.11517427248943     -0.30173586152474
  Cl  0.63175379915802     -1.01562813975372      1.86012027980059
  H   -0.38870011057435      0.63132595906727     -1.24265430829805
  C   1.65159953346725      1.04710011830353      0.47860481670139
  H   2.65885609058403      0.74159689844482      0.76828304795013
  H   1.25163333574617      1.68460185012753      1.26568964382731
  H   1.70238684194149      1.60416775633067     -0.45700511167923
  N   1.47761166388089     -1.10065652763729     -0.69312357107817
  O   1.72943966492248     -0.56134607829477     -1.76853298932112
  O   1.70810308401547     -2.26506610928623     -0.40357067282710
  C   -1.43866453438444      1.04784502133646      0.57918726139213
  H   -1.67384261354874      0.58094077695926      1.53746545878986
  H   -2.38158989929700      1.27406419498889      0.07584035346388
  H   -0.93371632276669      1.99647568031712      0.76937907663611
  C   -1.38261235356913     -1.16171822817185     -0.62876462713903
  H   -0.84822574152314     -1.79550730766934     -1.33945778303871
  H   -2.34209170987832     -0.89981471859236     -1.08053698142497
  H   -1.57993094103387     -1.74664901655438      0.27175911814922
