19
Coordinates from ORCA-job run
  C   0.81354025468397     -0.26977997972617      0.41701370994384
  C   -0.71611964723077     -0.07964286560786      0.37865748070562
  Cl  1.21560827863843     -1.52835544724693      1.60766949380131
  H   -0.99679632877753      0.01440383407881      1.43440037028604
  C   1.60450271493753      0.97729623953107      0.75604281962429
  H   2.66661532415897      0.73728630948456      0.82639136377871
  H   1.27002649531679      1.35565549198443      1.72362884523689
  H   1.46557677504997      1.74204833791680     -0.00419824212346
  N   1.24713742582159     -0.76386701106291     -0.96577336058415
  O   1.35539736879333      0.12008968613162     -1.81489915742735
  O   1.38217449930535     -1.96272997185787     -1.16465666853434
  C   -1.43418710749482     -1.29575946948076     -0.20485905334089
  H   -2.50795666318681     -1.19986885982011     -0.02942453299008
  H   -1.09702696006718     -2.23027380609912      0.24384710739010
  H   -1.27976497306968     -1.35967668637247     -1.28527964951204
  C   -1.15047934884713      1.19597771005795     -0.34353090978406
  H   -2.24183993967400      1.25030965025777     -0.33371415648448
  H   -0.82208283696221      1.19872432371889     -1.38423987779617
  H   -0.77332533139582      2.09716251411230      0.14192441781021
