19
Coordinates from ORCA-job run
  C   0.80646768695848     -0.29045018397542      0.41742569783692
  C   -0.71845211691989     -0.06584129372999      0.37638142343164
  Cl  1.17666805748086     -1.56465629491585      1.60185318462909
  H   -1.00022255679117      0.02675832317556      1.43196938583823
  C   1.62441329660865      0.93648548453970      0.76574894673539
  H   2.68047965651814      0.67205838256269      0.83937336702805
  H   1.50604176331691      1.70777180922566      0.00865958195871
  H   1.29427686880611      1.31752312569109      1.73379064943186
  N   1.23232339522151     -0.78651280184273     -0.96710104933048
  O   1.36174922040145      0.09975001559922     -1.81091864870366
  O   1.34050304801006     -1.98693253609882     -1.17284427359844
  C   -1.46183312316001     -1.26159365441049     -0.21751763757772
  H   -2.53370176768649     -1.14300417073300     -0.04431045155121
  H   -1.14692016246329     -2.20636733999013      0.22583528413860
  H   -1.30587296169272     -1.32159934702501     -1.29794161860935
  C   -1.12281856200116      1.22410087512461     -0.33773307902603
  H   -2.21258272460802      1.30438553229551     -0.32626766365496
  H   -0.79560826021298      1.22485421491334     -1.37881618777036
  H   -0.72391075778645      2.11326985959406      0.15241308879371
