19
Coordinates from ORCA-job run
  C   0.75953760400827     -0.19292622920771      0.31969864279654
  C   -0.60239479021659      0.13344518492729     -0.31149717125150
  Cl  0.57404513131373     -1.05889209264197      1.85443541721593
  H   -0.35081302730617      0.67031164793183     -1.23346360959630
  C   1.65942769770727      1.01084097344652      0.53470142873555
  H   1.74262658887019      1.58289189450599     -0.38945309341077
  H   1.25188030836305      1.64172706406586      1.32323289747035
  H   2.65374448679506      0.68218232748125      0.84315922550658
  N   1.47372430439874     -1.11114232215606     -0.68155136877805
  O   1.75795391723087     -0.55611043434161     -1.74078180398685
  O   1.67576992980410     -2.28508339875379     -0.40990964044429
  C   -1.43781261257865      1.05410884177547      0.57413323101684
  H   -0.92004157094673      1.98406800077499      0.81520100760219
  H   -2.35802699040460      1.31874305887976      0.04794550736756
  H   -1.71525299229766      0.55948611202024      1.50684337786719
  C   -1.38330962386484     -1.12345474098828     -0.68837234534586
  H   -1.60174915037716     -1.73181115835928      0.19159001402704
  H   -2.33248496689441     -0.83645752880533     -1.14664758694680
  H   -0.84582424360447     -1.74292720055515     -1.40926412984536
