19
Coordinates from ORCA-job run
  C   0.83901399236285     -0.44720421374848      0.08098193416750
  C   -0.66254785293398     -0.45775273589435     -0.23338428072607
  Cl  1.34186869034276     -2.04742323405249      0.69307888948860
  H   -0.83010839891092     -1.36155075011942     -0.82786129424296
  C   1.30387621567761      0.61237264704900      1.05200990228354
  H   1.00124314736611      1.60558407474984      0.72181973477890
  H   2.38982649391626      0.59514186470114      1.13563498504926
  H   0.87642773201170      0.40780216959902      2.03322193500263
  N   1.54473057899597     -0.26903760324464     -1.26467482242583
  O   2.18127107580823      0.76778402472449     -1.43213223669502
  O   1.35646790624726     -1.13944725377188     -2.10496293149255
  C   -1.07076637396363      0.75046376723602     -1.07848090816829
  H   -0.86537496974687      1.69399670522802     -0.56702836258549
  H   -2.14620431349924      0.70527084337032     -1.26527766183111
  H   -0.57251883984254      0.76673238204481     -2.04941613362488
  C   -1.50108093884917     -0.53305265070694      1.03968529754260
  H   -1.18319315077792     -1.34746024353723      1.69247454931725
  H   -2.54650945579863     -0.70615832465331      0.77411126608953
  H   -1.45542153840585      0.40393853102608      1.60020013807238
