19
Coordinates from ORCA-job run
  C   0.75721292274109     -0.20033715556565      0.31846606476282
  C   -0.60170287073161      0.13111823854120     -0.31513642166300
  Cl  0.56725984669490     -1.08522396700655      1.84182195674286
  H   -0.34627235930344      0.66328120800688     -1.23867953015214
  C   1.65363999718570      1.00244691075654      0.55225741052449
  H   1.24150701576011      1.62233497464759      1.34707501763430
  H   1.73868882064510      1.58633830534806     -0.36437292453054
  H   2.64755302200503      0.67201587596541      0.85996467035386
  N   1.48046909319972     -1.10449252341871     -0.68991771184878
  O   1.69713884937245     -2.27745233788846     -0.42584012751957
  O   1.76275413386010     -0.53856365005987     -1.74375656197886
  C   -1.43127182870667      1.06133596952125      0.56598515892049
  H   -0.91764922289774      2.00041355022886      0.77882274827253
  H   -1.68886273758144      0.58329682913592      1.51302520449363
  H   -2.36248590717881      1.30732175479121      0.05026070905579
  C   -1.39083575211272     -1.12144871664497     -0.68862411398496
  H   -1.64020890145452     -1.71001671600009      0.19642522321296
  H   -2.32384396728054     -0.82895975431228     -1.17576557635794
  H   -0.84509015421672     -1.76240879604633     -1.38401119593793
