15
Coordinates from ORCA-job run
  C   1.08704501433137      0.21697316023958     -0.45388726022999
  C   -0.44206201393858      0.17184712423892     -0.52397784052117
  F   1.51821938304724     -0.67575127437845     -1.44611659104910
  H   -0.74251963376021      0.54021164885782     -1.50527359020623
  H   1.44453709185520      1.19712995747818     -0.78286420933498
  N   1.58756556687032     -0.15157426206886      0.81049371994533
  H   0.89572094311425     -0.29641561833405      1.52803400410992
  H   2.35044638047842      0.41593869089941      1.13859916438956
  N   -0.94021247253046      1.20199732686967      0.44355719274912
  O   -0.93863106387003      2.36735782943049      0.05225953272856
  O   -1.25790399428332      0.82926280662980      1.57281015983154
  C   -1.02944058634489     -1.19541009497573     -0.24938174851472
  H   -0.74545273464263     -1.58181983299319      0.72752019076538
  H   -2.11865415136772     -1.15606518291472     -0.29742415086593
  H   -0.66665772895895     -1.88268227897885     -1.01334857379728
