15
Coordinates from ORCA-job run
  C   0.94377314285026      0.23939516185751      0.43969057845436
  C   -0.32299054620933      0.19286616686602     -0.39536295799208
  F   1.53950056378304      1.49155081078242      0.19999297184248
  H   -0.06747159379409      0.30517186087921     -1.45131370512015
  H   0.69922744162158      0.21790759542545      1.50267194357891
  N   1.79287857197272     -0.84213635330773      0.11151881577227
  H   2.12055243799565     -0.76544292925327     -0.84368154044374
  H   2.59249429532340     -0.87826238564151      0.72919115583147
  N   -1.13374237200919      1.40977002637931     -0.06723192974699
  O   -1.46151370957422      2.14174975041166     -0.99661738019866
  O   -1.43486655329146      1.56684336536851      1.11372825616675
  C   -1.16384857092958     -1.04170963918877     -0.13466289632522
  H   -2.08676889906018     -1.00278780255098     -0.71671298884177
  H   -1.41838299385854     -1.10509867877157      0.92432616230569
  H   -0.60084121482008     -1.93081694925627     -0.41453648528332
