15
Coordinates from ORCA-job run
  C   1.09320067284586      0.33172278132269     -0.19067218899308
  C   -0.39330137976174      0.27591815568929     -0.53626481859754
  F   1.74205769197591     -0.40585519253524     -1.20481735264171
  H   -0.51535666068595      0.71088291566906     -1.53048264674424
  H   1.45773686087264      1.35492966304579     -0.27802085096878
  N   1.34947619129643     -0.15298247990535      1.10621540463393
  H   1.14614466030880     -1.13926627520089      1.19364636723359
  H   2.30295573419354      0.02094101782964      1.39122863751170
  N   -1.08107237129742      1.24101406651338      0.38971564072641
  O   -1.88779025463261      0.80488743695583      1.20382174144231
  O   -0.76105323369154      2.42101686005446      0.26106587208219
  C   -0.99753988888291     -1.10751334602314     -0.46017738738136
  H   -0.42954491604496     -1.77524415174622     -1.10955064435432
  H   -2.03424245985778     -1.09119705754703     -0.79654633159848
  H   -0.99167064663828     -1.48925439412228      0.55983855764940
