15
Coordinates from ORCA-job run
  C   1.02536272941993     -0.35430977345179      0.16895377188247
  C   -0.30549754345334      0.17271842048271     -0.37748595399991
  F   0.70205409447843     -1.38218537583680      1.07094167948565
  H   -0.08276030874830      0.97526117326314     -1.08298994877315
  H   1.55040904518586     -0.85160142581964     -0.65316551918565
  N   1.82827952763249      0.62108777763552      0.77146999198547
  H   2.78963015560963      0.65507341938203      0.48916032355424
  H   1.40907315182053      1.51355205472957      0.96687588316589
  N   -1.03733298316548      0.85352975857196      0.74588770606764
  O   -1.89839884944285      0.22432043008458      1.34906841690276
  O   -0.69362333228693      2.01214166471646      0.99725456993951
  C   -1.16596224070554     -0.90870794751998     -0.99190094117918
  H   -1.37439381261085     -1.68791460071602     -0.26305163676676
  H   -0.63703188667658     -1.34626563020560     -1.84188056351017
  H   -2.11080774705700     -0.49669994531613     -1.34913777956882
