15
Coordinates from ORCA-job run
  C   0.94365771938895      0.29804004534528      0.41979725561655
  C   -0.31162833553854      0.28308317505311     -0.43222465877916
  F   1.58701992121588      1.50294167849549      0.20653635361002
  H   -0.02927276398676      0.52582902235547     -1.45658267082634
  H   0.68050683376753      0.26764384240451      1.48390067076100
  N   1.83715158297443     -0.74926264035252     -0.02213863747655
  H   1.65325578385744     -1.60196680936223      0.49250050032920
  H   2.78379715557245     -0.46020451699988      0.19516606501703
  N   -1.20191306760058      1.39688722207564      0.02251984817393
  O   -1.53735154616871      1.38636849466423      1.20632024424680
  O   -1.54906300063314      2.22637832866068     -0.81361976272110
  C   -1.07165111084926     -1.02561861479998     -0.33752580751143
  H   -0.46669597707703     -1.82507279019650     -0.76629176129756
  H   -1.31011110548723     -1.25905199184706      0.70209428030147
  H   -2.00470208943540     -0.96499444549621     -0.90045191944389
