15
Coordinates from ORCA-job run
  C   1.02332494678283     -0.26782102891868      0.06123469907773
  C   -0.36707993099197      0.19414122951644     -0.37773627288494
  F   0.82878692139645     -1.04353185535509      1.22793873365482
  H   -0.24730200022481      1.00984871352899     -1.09344057644001
  H   1.41373182765284     -0.96615880766444     -0.68331413853758
  N   1.93691345255414      0.78857021662688      0.23481605854241
  H   2.83982988282183      0.44464845191057      0.53177085442760
  H   1.58825604441091      1.47624175807350      0.88929267556356
  N   -1.03715308574957      0.82444580507755      0.81740929598457
  O   -0.53551149765216      1.87015732853939      1.23197058361580
  O   -2.01337196468420      0.26839569598659      1.30571604058089
  C   -1.20531251784298     -0.93765973027472     -0.92839697584376
  H   -1.26977087314518     -1.75004700411426     -0.20610206877779
  H   -2.21475385015399     -0.60221287081392     -1.16402510128797
  H   -0.74058735517411     -1.30801790211879     -1.84513380767533
