15
Coordinates from ORCA-job run
  C   1.14949552113091      0.17595013128383     -0.19957875478058
  C   -0.33526438555462      0.30451387874364     -0.54016886426467
  F   1.73163380599046     -0.44122774142549     -1.29981511236163
  H   -0.40174863911625      0.73478200062939     -1.54025772541161
  H   1.60312997503640      1.17663202268585     -0.15167131506411
  N   1.38875729666431     -0.65819792403132      0.93585044817710
  H   2.38295382887202     -0.69276395389323      1.12561766071779
  H   0.91615391853806     -0.26373218685004      1.73953950265940
  N   -0.99279448352262      1.30955673982531      0.35196650683100
  O   -1.81935395003972      2.05922176745200     -0.15922735048862
  O   -0.69656881206410      1.29050520465629      1.54862751162285
  C   -1.09792202534965     -1.00513123270927     -0.46053292890295
  H   -2.11864787466571     -0.86582024832152     -0.82137685111613
  H   -1.11508202987771     -1.38477757120704      0.55984809276667
  H   -0.59374214604182     -1.74051088683838     -1.08782082038453
