15
Coordinates from ORCA-job run
  C   1.03760749786809     -0.32454929413228      0.15030982077951
  C   -0.31898441793853      0.15900563238072     -0.37333301723048
  F   0.76137462473693     -1.34370885294647      1.07755850622932
  H   -0.13375376443427      0.95695486087308     -1.09470349814394
  H   1.55682106906542     -0.82314696252311     -0.67473966569520
  N   1.82840907474118      0.68177794790311      0.71650586592071
  H   1.39159404052817      1.56657776902214      0.90767175253425
  H   2.78326116679948      0.73294075115806      0.41553434164454
  N   -1.04187678829454      0.83704287718550      0.75775748642558
  O   -1.87217194817268      0.19452703388459      1.38941470725578
  O   -0.72259922338760      2.00748524382635      0.98495898323544
  C   -1.16385405240256     -0.95391267877670     -0.95153276507142
  H   -2.12840796858369     -0.57337670705621     -1.29053396002337
  H   -0.64388873055851     -1.38841484184893     -1.80858903180014
  H   -1.33253057996690     -1.72820277894985     -0.20727952606060
