15
Coordinates from ORCA-job run
  C   1.09209632873593      0.32907702546824     -0.20146585033605
  C   -0.39764581709113      0.27370378937161     -0.53376327154137
  F   1.73024816460923     -0.41884931551922     -1.21507690859571
  H   -0.52674384935648      0.70579622669622     -1.52822428610852
  H   1.45734768563459      1.35097913516006     -0.30175624364497
  N   1.35970819380785     -0.14357187516526      1.09724264819430
  H   2.31843658640400      0.02425792425377      1.36805708785902
  H   1.14800535116076     -1.12673115366248      1.19875706907285
  N   -1.07479368837022      1.24147885378720      0.39613957019334
  O   -0.76510910510305      2.42250203798828      0.25145180698885
  O   -1.85841315493154      0.80600516011533      1.23293087102051
  C   -1.00423818201219     -1.10830809436251     -0.45039955592774
  H   -0.44935810643069     -1.77634290834601     -1.11057962745007
  H   -2.04640062520684     -1.08734929113177     -0.76941560073798
  H   -0.98313978185021     -1.49364751465341      0.56810229101354
