15
Coordinates from ORCA-job run
  C   0.99929808948578      0.28126365211248      0.48184581555441
  C   -0.26646374619111      0.30523253161119     -0.36601027270254
  F   1.53421267418785      1.56500415594774      0.39808201802522
  H   -0.00262796588493      0.56973525113052     -1.39266335364156
  H   0.74219558462919      0.11208044260856      1.52958018643890
  N   1.95952095556618     -0.66918289427589      0.05944350457215
  H   1.98544372665785     -1.50893134482370      0.61248938650842
  H   1.95597459308993     -0.86768346034222     -0.92934293093262
  N   -1.13279372286789      1.42940369244891      0.11244854058139
  O   -1.47166369958766      1.39198456211125      1.29369788201016
  O   -1.45495491940388      2.28918497589242     -0.70199400291961
  C   -1.06248831670020     -0.98344502338399     -0.28756149925646
  H   -1.98891096644749     -0.89529012457118     -0.85810304641659
  H   -0.48360855683339     -1.80894970037435     -0.70288765664307
  H   -1.31313372970024     -1.21040671609174      0.74997542882179
