15
Coordinates from ORCA-job run
  C   1.14671223750166      0.15128576985714     -0.28813780900865
  C   -0.35704291305818      0.26620257466388     -0.54880338277955
  F   1.64556034817954     -0.63294712001481     -1.33142443613908
  H   -0.48470870944639      0.73388105248589     -1.52513259730245
  H   1.62010016167240      1.13076838577506     -0.42547697955101
  N   1.42560845110463     -0.46574810152027      0.95545364039408
  H   2.29966709603294     -0.16433956518460      1.35788657656635
  H   0.67734096849080     -0.37746692594727      1.62710835042936
  N   -0.89659471896348      1.26568701836983      0.42890571825094
  O   -1.28438245280048      0.84849732775159      1.52120369736841
  O   -0.87070774336844      2.44610562340922      0.08739257825021
  C   -1.09465095905303     -1.05286660160843     -0.46879409910650
  H   -0.67206380293467     -1.72561862854580     -1.21515656422774
  H   -2.15433628233928     -0.90641208786600     -0.68501167142560
  H   -0.99950168101805     -1.51702872162536      0.50998697828125
