15
Coordinates from ORCA-job run
  C   0.52156739812376      0.49238182662836      0.75089096762965
  C   -0.27734788835382     -0.38586196103816     -0.20375128830842
  Br  0.26202431076919      2.39533398759948      0.39960938825186
  H   -0.03597316668109     -1.41370931314470      0.13856119357230
  H   0.13683215869319      0.35507576336091      1.76871724276757
  N   1.93858686900781      0.20425817994149      0.60071342044918
  H   2.49090962361210      0.85273715499005      1.14838269433273
  H   2.11518341427782     -0.73255573827807      0.95104983358507
  N   0.14245866767610     -0.13034997078460     -1.56943712717539
  H   1.15525180431751     -0.12247645156419     -1.60686409420383
  H   -0.20181298527495     -0.85890664891394     -2.18213950067185
  C   -1.77863070145975     -0.19701130429088     -0.06867802790563
  H   -2.05749665031964      0.80016136409159     -0.40966056560263
  H   -2.30631813543384     -0.92945402919007     -0.68553401794434
  H   -2.10623471895438     -0.33162285940727      0.96613988122372
