15
Coordinates from ORCA-job run
  C   0.73667145797661      0.06129444487416      0.90820620714503
  C   -0.25765667996780     -0.61472587059079     -0.03920707837588
  Br  -0.00647485581931      0.14399290099715      2.72909765977452
  H   -0.53029355864529     -1.57966075299266      0.41085164538906
  H   1.60377818738293     -0.59928082139351      1.04185733478694
  N   1.04516987284960      1.38213371644173      0.44706881702189
  H   1.85039717107708      1.75834781648826      0.93048549574996
  H   1.24965552280819      1.30531821875604     -0.54473636226376
  N   0.45323176647696     -0.76366659972680     -1.31704303875528
  H   -0.20945665927158     -0.95866014604455     -2.05790753167365
  H   1.09515729510805     -1.54711330660077     -1.27199113665150
  C   -1.51855483088593      0.20294759156878     -0.26489647938808
  H   -2.20391470085135     -0.34645826647866     -0.91721331218666
  H   -2.03097207381008      0.39879068249039      0.67637219207225
  H   -1.27573791442807      1.15774039221122     -0.73094441264483
