15
Coordinates from ORCA-job run
  C   0.88822544062730      0.30347626635049      0.33795078842912
  C   -0.36041104151294     -0.51706416138709     -0.00929340340324
  Br  2.23566076720479     -0.95147072466315      1.22955252836062
  H   -0.78096387333480     -0.88331379299863      0.93610135161773
  H   1.42166026288708      0.59506903596780     -0.56896308014631
  N   0.60242484366574      1.43469497519475      1.12525808818777
  H   0.16944059712806      1.17915122758409      2.00409401346238
  H   1.42122752156289      1.99842229146249      1.30855967171481
  N   -0.12467182891699     -1.67664291881791     -0.85221513386482
  H   0.25017083550188     -1.37946774445703     -1.74669829144646
  H   0.55457743161149     -2.29227043777650     -0.42234960434832
  C   -1.38143604439795      0.38436392826068     -0.69775913761676
  H   -1.67860011971489      1.21839228733685     -0.06463237897319
  H   -0.96054509831145      0.79838687043913     -1.62039572929249
  H   -2.25575969400020     -0.21272710249598     -0.96020968268084
