15
Coordinates from ORCA-job run
  C   0.95876176404513      0.21235648174800      0.51919858895574
  C   -0.23275986380112     -0.59343712907257      0.00899004751105
  Br  2.12021870695118     -0.92344231067839      1.59971694590415
  H   -0.66374366275802     -1.10424358894865      0.87532464597632
  H   1.58951755634707      0.49688176922552     -0.33538429824061
  N   0.52769889022567      1.32105701903768      1.35359874312062
  H   1.32268784039698      1.70131389828992      1.85267135897838
  H   0.16373587418514      2.05770549420264      0.75822794453033
  N   0.25147429277471     -1.60651192501892     -0.92346957819334
  H   -0.41617138425743     -2.36350224779137     -0.99318352598929
  H   0.35084310372962     -1.20476253347030     -1.84923859132202
  C   -1.29067959902994      0.33432398494705     -0.59424921534566
  H   -0.86267470339649      0.93326005401034     -1.40715637992389
  H   -1.72089897894602      1.00411624001585      0.15213721300320
  H   -2.10100983646647     -0.26411520649679     -1.01718389896498
