15
Coordinates from ORCA-job run
  C   0.88803491327784      0.01938440116042      0.71586672500783
  C   -0.24093553069375     -0.63456601096418     -0.09015312247577
  Br  0.36083305979505     -0.13193389243881      2.69387812693846
  H   -0.57021276498848     -1.51305598190474      0.47943264191432
  H   1.78329280770962     -0.60187861024165      0.68327203304249
  N   1.19804093916387      1.32852624386109      0.32560098068834
  H   2.02680933510824      1.68215289943300      0.78225489570837
  H   0.43257241575736      1.97228493701226      0.46933095032751
  N   0.30953404152369     -0.98560145409841     -1.39981853625555
  H   -0.44680983915658     -1.17986144659682     -2.04540972812400
  H   0.86650749178222     -1.82925284166790     -1.32768149052336
  C   -1.42517365846404      0.29831897188817     -0.27886497852247
  H   -1.77547180401402      0.69554908866885      0.67567466639413
  H   -1.14713641031908      1.11903887194858     -0.94377311783045
  H   -2.25788499648194     -0.24010517605986     -0.73861004628984
