15
Coordinates from ORCA-job run
  C   0.51818962484553      0.45881201137394      0.87420634468580
  C   -0.19862180903793     -0.49055796359349     -0.07924207532394
  Br  0.16138226139733      2.38822497852891      0.23544010692029
  H   0.01244660802219     -1.48125603531566      0.34281878982915
  H   0.04971755446347      0.47982080797376      1.85759958666580
  N   1.87755217359386      0.14514602088747      0.95083635430381
  H   2.26419009182222      0.05132891873145      0.01924636095518
  H   2.41255473042578      0.78756599731607      1.51693417770114
  N   0.47997575081498     -0.43531454868387     -1.37250225899880
  H   0.17493038510108      0.39055091663059     -1.87609875730670
  H   0.23686640942951     -1.24638051520634     -1.92721153328558
  C   -1.70926813147418     -0.29472326296853     -0.12483128458688
  H   -1.96671023672615      0.65467443118164     -0.59671932046564
  H   -2.14401207788174     -0.30616033908227      0.87925524371375
  H   -2.16819333479596     -1.10273141777366     -0.70073173480737
