12
Coordinates from ORCA-job run
  C   -0.80813707339618     -0.01450837027444      0.47127102772406
  C   0.60552692495794     -0.54743888683243      0.49547292660883
  H   -1.40943032790975     -0.69929964940987      1.07671673015541
  H   1.01994691108091     -0.60737466098226      1.50483868420093
  H   -0.83794592018692      0.96891157654462      0.95567480687008
  H   0.66796045546193     -1.52314899177381      0.01581167435204
  N   -1.31782147712591     -0.02991440608335     -0.89597932693739
  H   -0.98532967758822      0.79290445307519     -1.38192033366058
  H   -2.32839215304543      0.00587309221705     -0.89126926731847
  N   1.55306564735314      0.33125853697610     -0.26764226900419
  O   1.18892456677191      1.47148809179162     -0.55264454758700
  O   2.65063212362657     -0.14875078524842     -0.52833010540373
