12
Coordinates from ORCA-job run
  C   -0.69866463073457     -0.61677288723611     -0.08162098009822
  C   0.56994689809169     -0.33472282741560      0.68917020230347
  H   -0.45497567003983     -1.15667078113363     -1.00453819698565
  H   0.36006432989201      0.20636578435376      1.61066667394466
  H   -1.30028560523614     -1.28428800163229      0.54250451239503
  H   1.13937291602045     -1.23936015083656      0.91619944303436
  N   -1.43834085303441      0.62447913002856     -0.28548028908051
  H   -1.04880534940370      1.11459589673627     -1.08031839697062
  H   -2.40649953782766      0.42229034101771     -0.49606019983774
  N   1.51431174438079      0.54234659067982     -0.07972587752810
  O   1.32714557601353      0.68169286584617     -1.28782382531250
  O   2.43673018187783      1.03904403959190      0.55702693413581
