12
Coordinates from ORCA-job run
  C   -0.57759391854305     -0.23591316532351     -0.52992876976903
  C   0.45599028928033      0.22151187479539      0.50561194216053
  H   -0.45088221863794     -1.30722213875427     -0.70029671621034
  H   0.40888870694057      1.29689553102286      0.67274812927966
  H   -0.37529098745495      0.27386029120681     -1.47568392889482
  H   0.34180497654838     -0.32453444126366      1.44236729379310
  N   -1.95667763046895      0.01772838088801     -0.15243813121886
  H   -2.19322988460170     -0.46730244268752      0.70345749781200
  H   -2.11869210076661      1.00649027245315     -0.01159922408160
  N   1.82165173897985     -0.07752838389183     -0.00395912194570
  O   2.44505811831224      0.84095978533716     -0.53327012418027
  O   2.19897291041184     -1.24494556378259      0.08399115325534
