15
Coordinates from ORCA-job run
  C   0.70183738913775     -0.37033892698443      0.45783920774709
  C   -0.60450384492316     -0.23567218038178     -0.32615313031831
  F   0.73331673346255     -1.57758923302421      1.09507298140726
  H   -0.58346552555566     -1.05314373534946     -1.05946755459705
  N   1.85036595397583     -0.36887264041538     -0.54498486870658
  O   1.87126103154845     -1.34108025519964     -1.28863784582197
  O   2.61976654650790      0.58062482523918     -0.53717718732540
  C   0.88662872914269      0.71179574985459      1.42319097118530
  N   0.98649624683594      1.57672767953998      2.21091802720592
  N   -0.54664833129902      1.01321369355420     -1.03378338973762
  H   -1.11140326640766      1.00086541857067     -1.87072453896868
  H   -0.84713130157734      1.77166636392514     -0.43210757759886
  N   -1.68620275852696     -0.30896611697673      0.64173487029180
  H   -1.69834501305035     -1.21296421479076      1.10062810388373
  H   -2.57097258927095     -0.18726642756136      0.16365193135338
