15
Coordinates from ORCA-job run
  C   0.69576593541612      0.03304023328669      0.55177050389313
  C   -0.52925690965997      0.25436263273195     -0.34913586777057
  F   0.31230260001023     -0.32200231139169      1.79595490682213
  H   -0.16653587431248      0.72967476047455     -1.26714622729231
  N   1.51638977434386     -1.11810634438139     -0.02960016411171
  O   1.80584100657554     -2.04353347648187      0.70672294989812
  O   1.79505006834758     -0.98407456511784     -1.21667031920333
  C   1.56601632141613      1.21013331346191      0.60305929141066
  N   2.26646418278494      2.15232981793685      0.62824670775335
  N   -1.35431546731215      1.19778096517191      0.35361407102525
  H   -2.04809699364358      1.61015773801493     -0.25371876228986
  H   -1.80565519372146      0.75712576798823      1.14549872968703
  N   -1.14620386357033     -1.04774575091727     -0.57099291429266
  H   -2.14171049176338     -0.93190936753228     -0.70273860126617
  H   -0.76605509491104     -1.49823341324469     -1.39486430426305
