15
Coordinates from ORCA-job run
  C   0.76935465162171      0.03745775190583      0.56302856468391
  C   -0.71668325025607     -0.11238734367083      0.22510337959342
  F   0.95961958566265      0.06489169809581      1.90790267804125
  H   -1.09066759359454     -0.89723987790710      0.89223224950994
  N   1.52091295977023     -1.19918020251023      0.07409805835631
  O   0.96260511449141     -2.26647590928428      0.31043957033544
  O   2.61676718005438     -1.04224979482248     -0.44762015621937
  C   1.34501682427161      1.22836940527279     -0.06241149075630
  N   1.72347025794795      2.23165753463000     -0.54054277647055
  N   -0.78920943724982     -0.44599741407589     -1.19206333389833
  H   -0.73338350238109     -1.44653402627619     -1.33928318237108
  H   -1.66318609594489     -0.11337683325391     -1.57644798352666
  N   -1.35326214645689      1.12582307575858      0.57846591908064
  H   -1.20693876622179      1.83157325986280     -0.13397744287143
  H   -2.34241578171485      1.00266867627509      0.74107594651282
