15
Coordinates from ORCA-job run
  C   0.71697078578956     -0.01729037103713      0.48069229014721
  C   -0.52546155323682      0.23513620498397     -0.37306290343278
  F   0.34420602788222     -0.62358346875089      1.64083369741411
  H   -0.18110745897300      0.72172436992777     -1.28833563237229
  N   1.62741098703260     -0.97659955483987     -0.28360842084531
  O   1.81450608919720     -2.07984935793040      0.19527185337277
  O   2.06321317675853     -0.51904813025148     -1.33066503893321
  C   1.47921416154600      1.19642518207969      0.77050925657656
  N   2.10614001595373      2.16090620242562      1.00619955274046
  N   -1.33968975607720      1.18062075267340      0.36389140273588
  H   -2.07050673748297      1.55953124199144     -0.22384644881487
  H   -1.76730807475879      0.73633416770318      1.16747002970572
  N   -1.05034819922914     -1.06703244807193     -0.73258728624266
  H   -1.46973561068936     -1.52318369544114      0.06885352384480
  H   -1.74650385371254     -0.98409109546222     -1.46161587589639
