15
Coordinates from ORCA-job run
  C   0.75533326483489      0.04758227863287      0.58136978576818
  C   -0.72155342672250     -0.11139680166336      0.20939922529931
  F   0.91257139534333      0.09317179228548      1.92993239481355
  H   -1.10959914184641     -0.88839123169301      0.87768656763286
  N   1.52128947385291     -1.19312943080528      0.12657094128901
  O   0.96252661797726     -2.25878559778817      0.36917880041472
  O   2.62610628345622     -1.03997869419464     -0.37704862199193
  C   1.34286126837168      1.23209605809913     -0.04527536754579
  N   1.73119914233731      2.22977853829058     -0.52720459209837
  N   -0.75866585963261     -0.46465176294667     -1.20444169695433
  H   -1.62375088331541     -0.13965598785790     -1.61463875114538
  H   -0.69726558734599     -1.46699233235700     -1.33653416341430
  N   -1.37021640564416      1.12955189852347      0.53020389455116
  H   -1.20780852886232      1.82568055327747     -0.18828773317417
  H   -2.36302761280419      1.00512072019704      0.66808931655547
