15
Coordinates from ORCA-job run
  C   0.71002757926813     -0.01384511178122      0.49013100804717
  C   -0.51948817333357      0.23299229425544     -0.38338318378822
  F   0.31804144012279     -0.59733793916121      1.65560356808248
  H   -0.16030064870176      0.70092693720971     -1.30268338823153
  N   1.62254444181298     -0.99366714101059     -0.24604416797903
  O   1.79712679111074     -2.08883908764399      0.25555624761136
  O   2.07381434204421     -0.55847930305001     -1.29604149642818
  C   1.47943976916582      1.19795628889010      0.76880926870850
  N   2.11462553915631      2.15937982744818      0.99428290306076
  N   -1.33537624450887      1.19739580954219      0.32689408591851
  H   -2.05816925811279      1.56864730422247     -0.27558971435856
  H   -1.77383926992865      0.77097978375421      1.13434548008344
  N   -1.04988483977344     -1.07118991491759     -0.72683504676614
  H   -1.73140362120782     -0.99714295874708     -1.47032286701831
  H   -1.48715784711410     -1.50877678901062      0.07527730305775
