15
Coordinates from ORCA-job run
  C   0.69522188008051      0.03330873278324      0.55311679828495
  C   -0.52658688973892      0.25321677458406     -0.35248767097359
  F   0.30685915057986     -0.31363767354530      1.79802493493106
  H   -0.15931573771475      0.71859519467300     -1.27374886169550
  N   1.51374295369363     -1.12328363145783     -0.01963811556893
  O   1.79807369915557     -0.99533359767828     -1.20610245886865
  O   1.79743461001558     -2.04603704409662      0.72226138796139
  C   1.56774923814688      1.20883452508525      0.59982404850949
  N   2.26653727974425      2.15238095984856      0.61929877454997
  N   -1.34866961280001      1.20666799970984      0.34046984007699
  H   -1.79998491870400      0.77530133122721      1.13735833946041
  H   -2.04320509162598      1.61209863959218     -0.27115352655694
  N   -1.14849349007520     -1.04827987954355     -0.56554733183183
  H   -0.77555919759379     -1.50278399991164     -1.39066698450274
  H   -2.14480387316363     -0.93104833127014     -0.69000917377607
