15
Coordinates from ORCA-job run
  C   0.66696856844363     -0.46010901284627      0.42708566475056
  C   -0.59704370332932     -0.16111684469752     -0.38045459940024
  F   0.62599947217401     -1.74604177106929      0.88481039747866
  H   -0.57208352464429     -0.86620975724691     -1.22224902024837
  N   1.85883342010399     -0.36463341325591     -0.51844144905686
  O   2.66008213375812      0.54169972414107     -0.34456393124757
  O   1.87891905625415     -1.22181689168945     -1.39217331775402
  C   0.84644420226156      0.46498684284146      1.54468953916959
  N   0.94158140099609      1.20453520967239      2.45163647213444
  N   -0.46354348378905      1.17214001301824     -0.89851298480200
  H   -0.99082597243783      1.30203081347398     -1.74977354020440
  H   -0.76380145232639      1.84910359108681     -0.20631720777750
  N   -1.72308477372299     -0.32630965125847      0.52368202844547
  H   -1.78674783190431     -1.28486716848058      0.84794724071904
  H   -2.58069751183736     -0.10339168368954      0.03263470779321
