15
Coordinates from ORCA-job run
  C   0.66733538148030     -0.33625282712212      0.41396357987999
  C   -0.68529155911056     -0.30804787151170     -0.31035424701675
  F   0.83956916078590     -1.54359944767880      1.03667696148413
  H   -0.66041407983106     -1.13961569050503     -1.02481728467274
  N   1.82067148152974     -0.23947969960138     -0.58604205452569
  O   1.63338485116982     -0.76971662564648     -1.67651046053737
  O   2.85293526150745      0.29562176748789     -0.19937678700025
  C   0.78969149751500      0.75746341542075      1.37718554893252
  N   0.84656039350609      1.66035257618692      2.12576687779383
  N   -0.93017538467765      0.90467356703369     -1.03851387734339
  H   -0.33589092788408      1.00011076097587     -1.84920467443945
  H   -0.86950630192843      1.72060829996709     -0.44161187125329
  N   -1.68948474417182     -0.41460206055349      0.72794275091997
  H   -1.68446115456404     -1.33706788657411      1.14514004049731
  H   -2.59392387532667     -0.25144827787909      0.30175549728117
