15
Coordinates from ORCA-job run
  C   0.69659019467614     -0.09329165817883      0.52803855327538
  C   -0.53625238633067      0.14814154556186     -0.35826461374566
  F   0.33761433640856     -0.67468552656806      1.69017588043325
  H   -0.15788086907468      0.46407484524434     -1.33796610389936
  N   1.61480881505066     -1.05802483749307     -0.22185862058108
  O   1.80905269583652     -2.15121796932898      0.27639186516041
  O   2.05018052631268     -0.61915102319104     -1.27886498934859
  C   1.44958070783259      1.13705705752857      0.78454610663257
  N   2.00025905506650      2.15693016798891      0.97537356209480
  N   -1.36818133571502      1.13168301958289      0.32079373658222
  H   -0.97549770694986      2.06452007299008      0.25067857490255
  H   -2.28249034297148      1.14542036757645     -0.11347038810128
  N   -1.16869526671747     -1.13183672277155     -0.51707744414777
  H   -1.78493737146575     -1.14531681141870     -1.31734823258889
  H   -1.68515105195871     -1.37330252752287      0.31985211333147
