15
Coordinates from ORCA-job run
  C   0.66750744726895      0.00751302525648      0.47615559435420
  C   -0.58607496355795      0.31944781390034     -0.36324145137598
  F   0.28781817686900     -0.55844471401028      1.65237361230600
  H   -0.23652087247764      0.80316671824595     -1.27856025080401
  N   1.48096143856963     -1.02746866676982     -0.29353019250631
  O   1.54399519931696     -2.15624230983490      0.16590962170377
  O   1.94293283119095     -0.61925864463140     -1.35202711064344
  C   1.51947492139516      1.16799929528400      0.72045285776596
  N   2.21203049023327      2.09711663127465      0.91181854480338
  N   -1.33436302394166      1.27698358036225      0.41423714127494
  H   -1.69343843325431      0.83609732832201      1.25352553918031
  H   -2.12918093937426      1.58489755284456     -0.13242673646095
  N   -1.32479823288383     -0.86653706982428     -0.73723061311693
  H   -1.46797802625085     -1.48456776772369      0.05277482137102
  H   -0.88336601310343     -1.38070277269587     -1.48923137785197
