15
Coordinates from ORCA-job run
  C   0.78349781851359      0.05432790610284      0.56752986949711
  C   -0.68884647101513     -0.19493903323821      0.22024424124490
  F   0.95211466231775      0.16917316378450      1.90488571640106
  H   -0.96816834842426     -1.06194730255106      0.82522038804376
  N   1.58182304458552     -1.16830862569828      0.12481689689066
  O   2.37360854638016     -1.03670013482530     -0.79707440516087
  O   1.32767301738839     -2.18608704799161      0.75310027084400
  C   1.28860110503229      1.24665485234908     -0.11906603773754
  N   1.56829377135343      2.23918946708642     -0.68153221589610
  N   -0.72930255271718     -0.58423739825419     -1.17421782214666
  H   -1.59582091593309     -1.05620075458738     -1.39489039409555
  H   -0.63553998694932      0.21931936097840     -1.78550297167701
  N   -1.44155260716934      0.94809694687723      0.68635637358278
  H   -1.40803912706077      1.70845394603534      0.01722147676031
  H   -2.40834195630202      0.70420465393223      0.85290861344917
