15
Coordinates from ORCA-job run
  C   0.72440605941683     -0.07429067140371      0.62378873640987
  C   -0.75713776163390      0.01852206670932      0.23387106911494
  F   0.87394600977032     -1.06856249947888      1.53976108501625
  H   -1.27619242320904      0.12372764646824      1.19899746775380
  N   1.53377762484291     -0.47404508750289     -0.61320141302836
  O   1.59705252646001      0.38641435391602     -1.48094988494727
  O   2.00377846973247     -1.59682247355023     -0.63494256298304
  C   1.26624604223383      1.17740146351324      1.14770465253027
  N   1.71386790228243      2.14877628171306      1.63248209225984
  N   -1.06862840691957     -1.20887566757970     -0.48568338282893
  H   -0.92364349244760     -2.02373005333962      0.10137564762725
  H   -2.04097113302228     -1.19370389510580     -0.76783017253275
  N   -0.99881706571632      1.21579849191439     -0.51571749319409
  H   -1.98023501721445      1.45598517486455     -0.51430668853253
  H   -0.66944933457564      1.11440486886200     -1.46734915266526
