15
Coordinates from ORCA-job run
  C   0.68600549513800     -0.03698780323631      0.41406251621187
  C   -0.60106480079270      0.15522625007155     -0.41025809722349
  F   0.37392595698596     -0.59496441028439      1.61480330173580
  H   -0.29277817700410      0.58034533995362     -1.36861866266663
  N   1.60299878488739     -0.99514026424476     -0.33660529371076
  O   1.81110302916643     -2.08641181512119      0.16074616443661
  O   2.01543742810246     -0.55175581950699     -1.40004996085282
  C   1.40421953230709      1.22069274694997      0.62114861474454
  N   1.92310110302930      2.26195200163118      0.78341517716457
  N   -1.53420815633076      1.06934842248039      0.21201339678262
  H   -1.71518000908578      0.81282480427075      1.17518567949247
  H   -1.21269913323966      2.02951501053271      0.17875809101757
  N   -1.11843935376367     -1.17078331153429     -0.64079881536576
  H   -1.41034695362658     -1.59225001490465      0.23387824113735
  H   -1.93307474577336     -1.10061113705760     -1.23768035290395
