15
Coordinates from ORCA-job run
  C   0.66823698400346     -0.10566274395986      0.48575158532310
  C   -0.61807461676054      0.22832873249087     -0.31981663259337
  F   0.37056979141890     -0.88253977993954      1.54682677112764
  H   -0.28600201069439      0.70238640135065     -1.25361314382398
  N   1.57018584739496     -0.90712405678384     -0.44545119418193
  O   2.06114939734775     -0.26240085212397     -1.36468195349457
  O   1.66094865189023     -2.10803354686563     -0.24153689282121
  C   1.39552559426724      1.08987796156031      0.90861766013773
  N   1.91456258953473      2.09065388203379      1.23956420155112
  N   -1.43403942438917      1.05516653366257      0.54120689378635
  H   -2.37400284737605      1.05713327067045      0.16612996488408
  H   -1.09316620968780      2.00801020607930      0.58008064988934
  N   -1.37427298061084     -0.94719959662646     -0.64933919706308
  H   -0.93736164875968     -1.50356340440752     -1.37139112972137
  H   -1.52425911757879     -1.51403300714113      0.17665241700015
