15
Coordinates from ORCA-job run
  C   0.73262228539050     -0.00517449850186      0.48692384443019
  C   -0.57064760491658      0.07742661356047     -0.32484206509736
  F   0.52184955390351     -0.63729605003468      1.65873085517275
  H   -0.29406417169364      0.44905984001743     -1.31892051685003
  N   1.72418117780772     -0.83469824027149     -0.32872239493602
  O   2.08764523980664     -1.89706495963013      0.14064288720550
  O   2.03688559295548     -0.33381085081690     -1.40147788945670
  C   1.33014001823517      1.31243483898621      0.71771645652644
  N   1.75034424782109      2.39563164198723      0.89081894262603
  N   -1.48473481121885      0.93699191413965      0.41516948426141
  H   -2.41413093541115      0.83950551301966      0.02564225125872
  H   -1.21789247653629      1.91316889407771      0.34274772280817
  N   -1.03828711008805     -1.27331590197853     -0.46749382657313
  H   -1.69372892847324     -1.35957770590571     -1.23129250687125
  H   -1.47118207758230     -1.58428104864906      0.39335675549529
