15
Coordinates from ORCA-job run
  C   0.66421216067846      0.01265913932455      0.48057342989492
  C   -0.58164875023509      0.31692027530970     -0.37295417136059
  F   0.27286084047561     -0.52918177832538      1.66441306580722
  H   -0.22281154615411      0.78255440248381     -1.29405063749218
  N   1.47607199194610     -1.04166068914784     -0.26424308019166
  O   1.94776503796267     -0.65633086314353     -1.32685047544344
  O   1.52816842125025     -2.16220050912943      0.21612667979947
  C   1.52228647492297      1.17172995003222      0.70974998795886
  N   2.21993870313971      2.09911531315170      0.89039798591093
  N   -1.32975412251187      1.29233485113698      0.38244608737811
  H   -1.69584854305350      0.86822730500560      1.22736573525048
  H   -2.12021193542572      1.59283502918853     -0.17465236112660
  N   -1.32430464501298     -0.87112306866125     -0.73163217337746
  H   -0.88218445034409     -1.39894558451512     -1.47364841625760
  H   -1.47553963763842     -1.47593377271054      0.06695834324954
