15
Coordinates from ORCA-job run
  C   0.69952779869623     -0.13886179016479      0.51515639291928
  C   -0.54370850208927      0.17092747386995     -0.33515259794789
  F   0.37978031627629     -0.94906565204642      1.54368674540111
  H   -0.18506258596318      0.68817445133339     -1.23327303462251
  N   1.69238273999806     -0.87815727306538     -0.38114661547115
  O   1.96581841625460     -2.02752786655816     -0.08877010719679
  O   2.09901895990555     -0.22103162271853     -1.33101667004154
  C   1.35409312569497      1.07668644662560      1.00598873969707
  N   1.82189563969691      2.08453306447951      1.38680749222987
  N   -1.45021845999885      0.94990128836519      0.49667097291391
  H   -2.36089931897166      0.97690883670536      0.05544898699883
  H   -1.12798896921541      1.90587976673906      0.60512415342329
  N   -1.07767858271563     -1.10088536050594     -0.73727970443153
  H   -1.68993317752247     -1.01023152595844     -1.53582626082882
  H   -1.57802740004617     -1.52825023710037      0.03258150695688
