15
Coordinates from ORCA-job run
  C   0.64969824656101     -0.21826259802407      0.70722834698239
  C   -0.77272446506141      0.00545072032423      0.13968168877161
  F   0.61809988381594     -1.21395347026586      1.61611307394497
  H   -1.37146504018357      0.21906246197164      1.03946108671689
  N   1.58462250267051     -0.63260002910887     -0.42358610582693
  O   2.11767280890274      0.28390221283564     -1.03650157965177
  O   1.67397254375381     -1.83186205541481     -0.63904085408180
  C   1.18845438399200      0.99893752977552      1.32228014815765
  N   1.53321729118449      1.98736115782510      1.85548855431222
  N   -1.24810267015935     -1.22722296443342     -0.41557253415326
  H   -2.24065250288835     -1.34695261518166     -0.28255242990653
  H   -1.01482437968655     -1.29034518829566     -1.39827789037018
  N   -0.72355339097317      1.07155193630181     -0.84231504225286
  H   -1.66222947500828      1.26302368581775     -1.16948886687766
  H   -0.33318573691981      1.93090921587264     -0.47191759576475
