15
Coordinates from ORCA-job run
  C   0.73348879093491     -0.10856341211552      0.47227154707843
  C   -0.56459537611317      0.15405919734508     -0.30900086835518
  F   0.47541898717909     -0.79786694943256      1.60157736636160
  H   -0.26417424061939      0.56502419291542     -1.28045799994588
  N   1.63272299992638     -0.96899685442141     -0.41457721379469
  O   1.89854183520852     -2.09107249681499     -0.02546886367394
  O   1.98103995081926     -0.42597052171794     -1.45537568840139
  C   1.45725030230537      1.12699981938219      0.78259743527252
  N   1.98143863363686      2.15052026481131      1.02211982742768
  N   -1.38345987977545      1.04295531034808      0.50326552685575
  H   -1.02461349274347      1.99193463955684      0.49491970644230
  H   -2.32246396795630      1.06241781585607      0.12544599886415
  N   -1.16066382275948     -1.13332156976553     -0.53499717413240
  H   -1.61212932789465     -1.46187614504621      0.30986362816513
  H   -1.82880139214848     -1.10524329090084     -1.29218322816408
