15
Coordinates from ORCA-job run
  C   0.72932513324872     -0.32011608003069      0.45268891135326
  C   -0.59289332145170     -0.27664164248359     -0.31477793683589
  F   0.84333031100933     -1.51466006149094      1.10408731141226
  H   -0.53139331745706     -1.10111917794824     -1.03786077795676
  N   1.86234217537912     -0.26104603981818     -0.56606287621438
  O   2.56941684162299      0.73562026975242     -0.58320774344625
  O   1.93487563970899     -1.24106251350559     -1.29612524318610
  C   0.85976555003754      0.78386171670397      1.40208741943844
  N   0.91713509625147      1.66317474736454      2.17805133696433
  N   -0.62196273533865      0.96352325612236     -1.03918199473619
  H   -1.19596205215855      0.90466828395764     -1.86776439375779
  H   -0.96062583623274      1.71035210300084     -0.44336586116645
  N   -1.65507133081665     -0.40338837692149      0.66925790167092
  H   -2.55191384650553     -0.34270183805160      0.20217685104434
  H   -1.60536830729729     -1.30046464665144      1.13899709541625
