15
Coordinates from ORCA-job run
  C   0.70476475043175     -0.32939640422344      0.48379407060409
  C   -0.59185340708007     -0.26567354009986     -0.32506719508412
  F   0.75822643927599     -1.50660273194709      1.17335513031506
  H   -0.53526156011801     -1.11166071374595     -1.02334378150963
  N   1.86919007212228     -0.33967075860584     -0.50036823408348
  O   2.61263414054464      0.63018751162492     -0.52232262150496
  O   1.92774055344126     -1.34168114149145     -1.20099735898828
  C   0.84404274905321      0.79852895120352      1.40329359237183
  N   0.90586417183591      1.69916276425243      2.15399596494198
  N   -0.55969524933783      0.95384811981405     -1.08340424255244
  H   -1.11173032128159      0.89015354004295     -1.92650499251648
  H   -0.89039730899312      1.72740209192983     -0.51793319481239
  N   -1.68632685302359     -0.33191091853130      0.62900268126727
  H   -1.67972206397284     -1.21702173439989      1.12328090818655
  H   -2.56647611289799     -0.25566503582288      0.13321927336502
