15
Coordinates from ORCA-job run
  C   0.70282838951408      0.06373173622001      0.38076348816956
  C   -0.62617737059188      0.05950766323500     -0.39808767093764
  F   0.47806244956912     -0.34430388753327      1.65893248466549
  H   -0.38721330149124      0.37027595377471     -1.41819494991636
  N   1.65424154909844     -0.92706560864100     -0.27884627589406
  O   1.95737540603031     -1.92481614545898      0.34894964834297
  O   1.99299925164804     -0.60734188680804     -1.41054602818971
  C   1.33923722155994      1.38102795987771      0.38389556646003
  N   1.79051725589244      2.46551432385540      0.38138079439119
  N   -1.59576949937885      0.98762921082292      0.14280424545262
  H   -1.72076322347203      0.85084864242665      1.13887195237403
  H   -1.34222620876202      1.95337217613628     -0.02978416754168
  N   -1.05816627897334     -1.31581267753081     -0.42534916025830
  H   -1.89838110217569     -1.38013346517614     -0.98641077813810
  H   -1.28556453846731     -1.63243399520046      0.51062085101994
