15
Coordinates from ORCA-job run
  C   0.71547711396282     -0.01144977665965      0.48197329409262
  C   -0.52728780780903      0.23003328231557     -0.37434335403656
  F   0.34538346409682     -0.62371527407648      1.63984224783464
  H   -0.18608260197563      0.71970797607632     -1.28914492156667
  N   1.63807408445165     -0.95991370451476     -0.28125916003175
  O   1.83484098924061     -2.06244436666775      0.19541066284543
  O   2.07334835833501     -0.49524799686557     -1.32550966182015
  C   1.46543705553707      1.20882385474275      0.77644132517497
  N   2.08392149256901      2.17744224405379      1.01714556347363
  N   -1.35158591368019      1.16795891166649      0.36096871332328
  H   -1.77989255837365      0.71923504731498      1.16171983881490
  H   -2.08186506519365      1.54395942441350     -0.22922290301681
  N   -1.03923425114090     -1.07715699506318     -0.73440228850191
  H   -1.45679417860966     -1.53668831044808      0.06600586539934
  H   -1.73374018141028     -1.00154431628792     -1.46562522198494
