15
Coordinates from ORCA-job run
  C   0.71746942116706      0.04819652636637      0.60201446929258
  C   -0.77744319291531     -0.11155396441261      0.23060609812901
  F   0.87211181466415      0.12672153505911      1.94112550348138
  H   -1.12998146966778     -0.90875516454565      0.89311364094788
  N   1.43152771616008     -1.21631761695151      0.13909275308307
  O   2.01658854887956     -1.17064782980761     -0.93698680431872
  O   1.27459385586668     -2.19320900596833      0.85872966620174
  C   1.31638561462728      1.20735154538430     -0.06101747189702
  N   1.69229345255479      2.17742094745826     -0.60668289286211
  N   -1.01846956940361     -0.51402864687087     -1.13431226804126
  H   -0.56217001411797      0.09522889960016     -1.80326972150578
  H   -0.75018426268581     -1.47159764825507     -1.32011639925057
  N   -1.41302688649711      1.12335722002818      0.61541938530071
  H   -2.41249022161307      0.97306995571524      0.67326184207155
  H   -1.25520480701894      1.83476324720005     -0.09097780063246
