15
Coordinates from ORCA-job run
  C   0.75243699217716     -0.39612757517242      0.46595335169576
  C   -0.58418881009817     -0.37125724781571     -0.28485908057305
  F   0.93382615666521     -1.58192652561286      1.09099849432551
  H   -0.55538489706670     -1.26010314854206     -0.92115037440936
  N   1.86934191129764     -0.26383887114187     -0.56499689672536
  O   2.53866633909540      0.75911631199377     -0.56170178801961
  O   1.97032943267427     -1.22096511729495     -1.31940609829309
  C   0.83453251144998      0.70923837528620      1.42494605396497
  N   0.76671850214655      1.60041582506353      2.18721548973733
  N   -0.56215572002267      0.79780461668651     -1.13949859214010
  H   -0.74522537401268      1.64467683684927     -0.61286185839944
  H   -1.25059591325023      0.72239479604972     -1.87617788680981
  N   -1.63303143177957     -0.54521414070201      0.69494477781249
  H   -1.86609793938601      0.33257627923614      1.14437402858234
  H   -2.46817175989018     -0.92579041488326      0.27122037925141
