15
Coordinates from ORCA-job run
  C   0.66756304895167     -0.09579464381154      0.56671698757104
  C   -0.51805471701094      0.14612272019919     -0.38268768000528
  F   0.26145903740970     -0.74520243766883      1.67596039772549
  H   -0.09214428799351      0.52156547735744     -1.32102866020005
  N   1.66431371778573     -0.99051403580717     -0.16924877696045
  O   2.15462425037766     -0.48080516376197     -1.16903998610267
  O   1.85762353337796     -2.10495718011036      0.27954701464905
  C   1.35546227381899      1.14738098964024      0.92421858003742
  N   1.85260420214953      2.17821802375773      1.18868599122684
  N   -1.42407407709785      1.06834804242229      0.28795272297466
  H   -1.06429869845301      2.01695893989454      0.27902614043416
  H   -2.31272445903628      1.06779794242630     -0.19698462738027
  N   -1.09320678318558     -1.14488085892521     -0.63836648845020
  H   -1.65728113455152     -1.14129360171304     -1.47638561019517
  H   -1.65086590654254     -1.44294421389962      0.15263399467542
