15
Coordinates from ORCA-job run
  C   0.67137819004315      0.00184972904835      0.58338172351845
  C   -0.51312260753665      0.27388750551589     -0.35716338367066
  F   0.23416796538903     -0.41887354851918      1.78889863543558
  H   -0.11036861381421      0.79787052633734     -1.23087780909490
  N   1.51653228157194     -1.11764541165883     -0.02299517105148
  O   1.77059673626562     -2.08423778592385      0.67241383792794
  O   1.85161537260047     -0.91702099061174     -1.18597126504484
  C   1.53656027694123      1.17392179665303      0.73499816703934
  N   2.23087204643513      2.11542290481535      0.83671505154454
  N   -1.36934129006857      1.17916780156736      0.35876264734499
  H   -2.04118633146170      1.61775866537037     -0.25561898521498
  H   -1.85055398478506      0.69592112620400      1.10702859509030
  N   -1.11929342662786     -1.01315099169116     -0.67657420319408
  H   -2.10716283929565     -0.88635709783821     -0.85003440004714
  H   -0.70069377565688     -1.41951422926871     -1.50496344058305
