15
Coordinates from ORCA-job run
  C   0.68703942565311     -0.08775759143295      0.61154047591587
  C   -0.81307176702587     -0.06484601011339      0.21118966726141
  F   0.87968050335377     -1.05300594999214      1.54861228155306
  H   -1.33288232599671      0.02507985888837      1.17882672310835
  N   1.51604260954656     -0.45479462974866     -0.61174348350899
  O   2.01689663460092     -1.56357440841199     -0.64096492999595
  O   1.55497517246430      0.41381515452582     -1.47536933668187
  C   1.14271210295473      1.20679971595324      1.11432341275657
  N   1.43900474148061      2.25900955032224      1.54470703979497
  N   -1.05469265440361     -1.29641010869101     -0.50511363702133
  H   -0.92868234160743     -2.10443657328351      0.09203641991026
  H   -2.00737683432216     -1.27952254197364     -0.84641213479911
  N   -1.23393595535566      1.02241832493725     -0.62068282850295
  H   -1.19271402092308      1.91020206599238     -0.13807247771235
  H   -0.67199529041946      1.06602314302801     -1.46187719207794
