15
Coordinates from ORCA-job run
  C   0.63126296429533     -0.49338668064928      0.36337487898783
  C   -0.61926500910604     -0.16811207395613     -0.47316867202761
  F   0.57621731776637     -1.79357031709033      0.76885395311909
  H   -0.57230257050497     -0.86811801970782     -1.31320156401014
  N   1.86062380262180     -0.34894369692671     -0.51915551033707
  O   1.93882205762450     -1.17920658188998     -1.41445249343619
  O   2.62823865120592      0.57332668402351     -0.28335149689050
  C   0.74396066556945      0.38849619162003      1.52561431639951
  N   0.69490941301801      1.10862366538941      2.45266413587295
  N   -0.44335593804067      1.16840079165559     -0.97465595165216
  H   -0.58697999804475      1.85456593247340     -0.24112445315090
  H   -1.12292434059750      1.34792678648495     -1.70259337288724
  N   -1.85515736214940     -0.40160074885302      0.23667119360538
  H   -1.95047824250418     -1.37184821796236      0.51145025523130
  H   -1.92657141115386      0.18344628538876      1.06207478117575
