15
Coordinates from ORCA-job run
  C   0.75083604276888      0.08017482799308      0.45170374844153
  C   -0.72864283613689     -0.25764137593396      0.19447393729643
  F   0.92945147001308      0.33908353367087      1.77807299212348
  H   -0.91802447494485     -1.13564250645218      0.81983116832483
  N   1.59546365206973     -1.13778705216966      0.11310567523898
  O   2.32822393467896     -1.07145148825642     -0.86373539972710
  O   1.42578487368792     -2.09221988482499      0.85957264915557
  C   1.18677311715019      1.22752118452079     -0.34489606168507
  N   1.40417932927137      2.18960506715526     -0.98321086293796
  N   -0.82918015481464     -0.64345113264969     -1.18758879784477
  H   -1.72606387547241     -1.08289951700154     -1.35016536526265
  H   -0.76695374731090      0.16582221213463     -1.79660551245154
  N   -1.63184560036523      0.79082159311699      0.60812781968218
  H   -1.46052720021119      1.65168374196017      0.09984458832330
  H   -1.55947453038401      0.97538079673666      1.60146942132278
