15
Coordinates from ORCA-job run
  C   0.66967036556195      0.01619659766813      0.47216048205736
  C   -0.59227773100311      0.31158464679903     -0.36063393815312
  F   0.30433236913827     -0.55615386801631      1.64967276551803
  H   -0.25410007236558      0.80186384494049     -1.27680473013492
  N   1.49394136989287     -1.00596026977899     -0.30274944195474
  O   1.57603988121434     -2.13405371230925      0.15530290346361
  O   1.94454992685374     -0.58986953501440     -1.36322625478573
  C   1.50620254519572      1.18847442121460      0.71360417174879
  N   2.18731291497165      2.12576752652359      0.90566760825364
  N   -1.35031494561918      1.25700730533155      0.42224937672182
  H   -1.69572410695990      0.81090547905921      1.26453217196612
  H   -2.15395193155138      1.55193782346446     -0.11867293664117
  N   -1.31680888462742     -0.88345260766156     -0.73393462923825
  H   -0.86803041575008     -1.39294036361149     -1.48492802571014
  H   -1.45284128495187     -1.50230728860905      0.05676047688869
