15
Coordinates from ORCA-job run
  C   0.68651034175264     -0.04280113043470      0.72389755698436
  C   -0.77682223244935      0.02254054435355      0.25240955673431
  F   0.78357271942960     -0.84665775616736      1.80412889462784
  H   -1.33329170387451      0.12825143644741      1.18927284173037
  N   1.53340279653225     -0.67769514081894     -0.38513439430338
  O   1.37486217784655     -0.17786175599945     -1.49533229348015
  O   2.27136411783810     -1.59623906813582     -0.08435091505005
  C   1.27884114276835      1.26413770759199      1.02275322482353
  N   1.78990306757035      2.28198738693311      1.30941414913581
  N   -1.09688514503378     -1.28148681500678     -0.30361243061992
  H   -2.05720954517509     -1.53247474682867     -0.11522574400621
  H   -0.94901435651992     -1.28949871170059     -1.30542102640463
  N   -0.99367129306736      1.21895915945547     -0.52422001242839
  H   -0.52879954997021      1.15638708930627     -1.42093069679581
  H   -1.98276253764762      1.37345180100452     -0.66764871094766
