15
Coordinates from ORCA-job run
  C   0.67829530632988      0.03219973750288      0.47782953392334
  C   -0.61553133793358      0.17120864526854     -0.36629338400424
  F   0.38269254504340     -0.25309353811165      1.76340605310254
  H   -0.31318832683699      0.58108849088300     -1.33786927608924
  N   1.50402289969701     -1.11714092956650     -0.08678423797734
  O   1.76893415518173     -2.05062843415156      0.64915671436927
  O   1.79013145535075     -0.98516265122820     -1.27293552728435
  C   1.49121897151323      1.24900583588233      0.40668023778303
  N   2.07793276218549      2.26411302864846      0.33313358923979
  N   -1.55030329361404      1.07884618729635      0.24408141023670
  H   -1.69561539628096      0.83496830261113      1.21632864951823
  H   -1.24763260999780      2.04148942207017      0.17589523995116
  N   -1.22490324791970     -1.14024412220010     -0.42438507164800
  H   -0.83289344365340     -1.69493419725055     -1.17502074468638
  H   -2.21216043906502     -1.01071577765431     -0.60422318643451
