15
Coordinates from ORCA-job run
  C   0.67859880603402     -0.22466096149524      0.67835697736673
  C   -0.76670047310047     -0.00629878559921      0.16833999164507
  F   0.69218397682597     -1.23897826909859      1.56692539265451
  H   -1.33401642385656      0.18250180013215      1.09366488652888
  N   1.57517131331048     -0.60471709326801     -0.49447899956670
  O   2.07582916736466      0.33027119615665     -1.10682614577637
  O   1.66856279253467     -1.79818116903401     -0.73859819359146
  C   1.22471592421012      0.98665677834342      1.29836305903470
  N   1.57571553775819      1.97084224411769      1.83537595214884
  N   -1.24894637070939     -1.23364424177901     -0.39286895430590
  H   -2.23497853671151     -1.36618441141797     -0.22732946143047
  H   -1.04994075627480     -1.27697166321449     -1.38414866546039
  N   -0.76521458804396      1.07896284240514     -0.79343732202890
  H   -1.71719019824888      1.26407386867745     -1.08390271441330
  H   -0.37379017109254      1.93632786507405     -0.41943580280525
