15
Coordinates from ORCA-job run
  C   0.69440573859356     -0.34679997794073      0.41439969323923
  C   -0.62011927449437     -0.31854733575583     -0.38582614519527
  F   0.79108090316683     -1.53185060829081      1.08108015143175
  H   -0.54175045126289     -1.17280041703103     -1.06542873384369
  N   1.86015256453113     -0.28198056351193     -0.55929154194217
  O   2.54249774305223      0.73285377279093     -0.56774437359267
  O   1.97829062297364     -1.27059324402727     -1.27049982713232
  C   0.77111726957819      0.76686939033540      1.36058198413665
  N   0.69397611135007      1.65936776118076      2.12073497986504
  N   -0.60377140738653      0.89281867183051     -1.16132005028303
  H   -0.78867956535883      1.70157037238606     -0.57706916975509
  H   -1.32731137367912      0.85095563381072     -1.86744438395551
  N   -1.79176103470056     -0.50671234156952      0.43768164187231
  H   -1.88102945019277      0.22806650995750      1.13119603931856
  H   -1.77609839617060     -1.40321762416477      0.90894973583621
