15
Coordinates from ORCA-job run
  C   0.69838769403691     -0.02990924903468      0.50719032548794
  C   -0.51339627907254      0.24509097210837     -0.38306269875601
  F   0.28733625908093     -0.67855009055694      1.63067014731596
  H   -0.13911924123362      0.76696998487510     -1.26663235838378
  N   1.64330765840931     -0.95640123866357     -0.25564317471289
  O   1.81664161877244     -2.07654030401077      0.18797106377941
  O   2.11846028861350     -0.45793220720514     -1.26627888113765
  C   1.44124304081230      1.17728900825856      0.86627540108122
  N   2.05322272340310      2.13657172241604      1.15639818407482
  N   -1.36185104021455      1.15776666466383      0.35649943561035
  H   -2.07033092538711      1.55684111995615     -0.24490463146822
  H   -1.81878463412115      0.68125682594213      1.12461502265505
  N   -1.01413685315048     -1.04653695581007     -0.80865906184399
  H   -1.68160242447585     -0.94259825145850     -1.56132561713468
  H   -1.46037788547317     -1.53431800148052     -0.04111315656753
