15
Coordinates from ORCA-job run
  C   0.69967203909924     -0.19784027575188      0.62516936526962
  C   -0.75655651362952      0.07410393357055      0.22419359698922
  F   0.73082146714245     -1.27517825702823      1.45501972794579
  H   -1.28441062960886      0.14919733571656      1.18738727276935
  N   1.49321037678048     -0.57134027819514     -0.63013914038012
  O   1.65890885460687      0.34799048545720     -1.42057345700773
  O   1.85208981979829     -1.72933106875245     -0.74098224534124
  C   1.35003081219938      0.94537146031892      1.26154552275151
  N   1.87989346868065      1.82355436721271      1.83326212198928
  N   -1.17051774437169     -1.05191082405036     -0.60182611547287
  H   -1.11815515671877     -1.92327249984786     -0.08448604703589
  H   -2.13055783187927     -0.91697186629603     -0.89410257886933
  N   -0.86340480911768      1.34788968498770     -0.42349386108713
  H   -0.52492154912859      1.29458741537627     -1.37590403758317
  H   -1.81610260385298      1.68415038728205     -0.41407012493729
