16

C	0.0	0.0	0.0
C	-0.382539	0.094314	-1.508397
Cl	1.769095	0.0	0.0
H	0.485414	0.529115	-2.016982
N	-0.37627	1.248349	0.781326
O	-0.546051	1.120262	1.983164
O	-0.341646	2.299296	0.156828
C	-0.48561	-1.183345	0.695231
N	-0.586488	-2.228283	1.227383
C	-1.509209	0.960091	-1.868379
N	-2.22426	1.658717	-2.49019
C	-0.633064	-1.308786	-2.064506
H	-0.76183	-1.251937	-3.148034
H	0.200803	-1.979063	-1.842348
H	-1.545772	-1.680828	-1.603882
F	-2.271599	0.0	0.0
