16

C	0.0	0.0	0.0
C	-0.226377	0.04905	-1.577584
Cl	1.758159	0.0	0.0
H	0.365845	-0.818626	-1.896637
N	-0.463306	1.220821	0.756504
O	-0.614423	2.251408	0.119445
O	-0.511626	1.099484	1.972201
C	-0.542189	-1.213273	0.589018
N	-0.641345	-2.302926	1.026484
C	0.474521	1.205427	-2.161478
N	0.98069	2.084897	-2.753875
C	-1.576606	-0.072124	-2.285387
H	-2.208018	0.780961	-2.069313
H	-2.100876	-0.960037	-1.950311
H	-1.353744	-0.13062	-3.360321
F	-2.295234	0.0	0.0
