16

C	0.0	0.0	0.0
C	-0.206088	-0.194488	-1.563378
Cl	1.799499	0.0	0.0
H	0.368615	-1.113742	-1.737433
N	-0.446814	1.325901	0.559153
O	-0.572621	2.247401	-0.233166
O	-0.515676	1.395006	1.777509
C	-0.514968	-1.110147	0.779494
N	-0.612469	-2.112503	1.390291
C	0.521064	0.842005	-2.317474
N	1.050034	1.594179	-3.049039
C	-1.555949	-0.389682	-2.255114
H	-2.159821	0.507673	-2.187527
H	-2.111404	-1.19284	-1.785646
H	-1.332867	-0.626967	-3.304845
F	-2.275297	0.0	0.0
