16

C	0.0	0.0	0.0
C	-0.494454	0.018689	-1.463792
Cl	1.780647	0.0	0.0
H	-1.60879	0.011124	-1.238994
N	-0.443808	1.207276	0.820875
O	-0.557886	1.025055	2.022739
O	-0.533691	2.279378	0.2428
C	-0.452715	-1.205319	0.692743
N	-0.595454	-2.24087	1.230975
C	-0.094401	-1.239355	-2.077275
N	0.21683	-2.22472	-2.639324
C	-0.049053	1.182723	-2.350736
H	1.032252	1.340361	-2.318295
H	-0.551986	2.098192	-2.05393
H	-0.325563	0.947398	-3.381514
F	-2.507922	0.0	0.0
