16

C	0.0	0.0	0.0
C	-0.367961	0.215515	-1.49486
Cl	1.804031	0.0	0.0
H	0.497181	0.701146	-1.958558
N	-0.357704	1.186643	0.876103
O	-0.309806	2.282225	0.333869
O	-0.535095	0.969084	2.064183
C	-0.471389	-1.233918	0.606426
N	-0.576457	-2.306617	1.079168
C	-1.502581	1.097394	-1.7835
N	-2.217718	1.844427	-2.345428
C	-0.593556	-1.139684	-2.166451
H	0.26117	-1.802462	-2.010242
H	-0.735926	-0.994266	-3.239993
H	-1.49135	-1.57784	-1.732911
F	-2.255695	0.0	0.0
