16

C	0.0	0.0	0.0
C	-0.523615	0.084072	-1.447697
Cl	1.769935	0.0	0.0
H	-1.641906	0.079222	-1.178687
N	-0.448463	1.170774	0.876691
O	-0.604009	2.253789	0.339403
O	-0.507403	0.945977	2.075021
C	-0.449249	-1.234329	0.645567
N	-0.599202	-2.295102	1.127595
C	-0.163833	-1.155456	-2.117309
N	0.106526	-2.121614	-2.731227
C	-0.075279	1.274772	-2.298208
H	-0.556824	2.189068	-1.960814
H	1.010145	1.413471	-2.278934
H	-0.370451	1.085934	-3.335375
F	-2.546984	0.0	0.0
