16

C	0.0	0.0	0.0
C	-0.489444	0.106145	-1.460923
Cl	1.783641	0.0	0.0
H	-1.598836	0.180298	-1.23538
N	-0.446702	1.172652	0.873165
O	-0.516324	0.947399	2.071377
O	-0.591958	2.259143	0.336239
C	-0.457463	-1.22996	0.64267
N	-0.599366	-2.280188	1.151659
C	-0.220268	-1.167419	-2.113706
N	-0.008224	-2.157516	-2.713005
C	0.082379	1.235	-2.319298
H	-0.365476	1.157774	-3.313439
H	-0.172748	2.203193	-1.898229
H	1.167178	1.161443	-2.431572
F	-2.502883	0.0	0.0
