16

C	0.0	0.0	0.0
C	-0.224234	0.182969	-1.559638
Cl	1.798638	0.0	0.0
H	0.526984	-0.502579	-1.968982
N	-0.445528	1.114419	0.914918
O	-0.466853	0.831532	2.104935
O	-0.609698	2.218909	0.42485
C	-0.492994	-1.283437	0.469053
N	-0.600659	-2.408134	0.800153
C	0.228832	1.506358	-2.010162
N	0.576849	2.507844	-2.516405
C	-1.521138	-0.17798	-2.285169
H	-1.827395	-1.18695	-2.016963
H	-2.324224	0.491831	-2.011023
H	-1.294211	-0.132876	-3.359008
F	-2.266015	0.0	0.0
