16

C	0.0	0.0	0.0
C	-0.215307	-0.469498	-1.491293
F	1.361709	0.0	0.0
H	0.504226	-1.295047	-1.531455
C	-0.485277	1.319024	0.382118
N	-0.662136	2.452429	0.63888
N	-0.393672	-1.055462	1.014445
O	-0.3843	-2.213663	0.615484
O	-0.541078	-0.673025	2.16629
C	0.355538	0.605316	-2.315035
N	0.786941	1.449521	-3.007863
C	-1.487916	-0.981134	-2.161243
H	-2.24136	-0.209104	-2.260158
H	-1.182085	-1.348061	-3.148314
H	-1.925167	-1.789112	-1.582989
Cl	-3.262995	0.0	0.0
