16

C	0.0	0.0	0.0
C	-0.204315	0.297443	-1.531158
F	1.359574	0.0	0.0
H	0.481395	-0.441743	-1.958373
C	-0.484017	0.97902	0.963832
N	-0.596857	1.844642	1.751507
N	-0.402874	-1.409051	0.385749
O	-0.529127	-1.627217	1.582233
O	-0.418834	-2.231773	-0.521423
C	0.420309	1.609591	-1.756282
N	0.885897	2.66566	-1.975172
C	-1.489425	0.220212	-2.348121
H	-1.991622	-0.726087	-2.181107
H	-1.174516	0.297142	-3.39701
H	-2.187044	1.011452	-2.101717
Cl	-3.24111	0.0	0.0
