16

C	0.0	0.0	0.0
C	-0.214819	0.238285	-1.542607
F	1.35309	0.0	0.0
H	0.546042	-0.443189	-1.937212
C	-0.490124	1.003112	0.937422
N	-0.568007	1.89245	1.703681
N	-0.384853	-1.401459	0.433928
O	-0.534411	-1.58025	1.63439
O	-0.355172	-2.259869	-0.440539
C	0.291167	1.59394	-1.796501
N	0.681654	2.672675	-2.047867
C	-1.466091	-0.003467	-2.382453
H	-1.134305	0.040273	-3.427464
H	-2.236659	0.734281	-2.200291
H	-1.882835	-0.982033	-2.167038
Cl	-3.174039	0.0	0.0
