16

C	0.0	0.0	0.0
C	-0.393877	-0.081777	-1.516632
F	1.361541	0.0	0.0
H	-0.792686	0.905593	-1.76725
C	-0.442329	1.205771	0.698097
N	-0.472186	2.256481	1.227089
N	-0.329303	-1.252471	0.794467
O	-0.456818	-1.125023	2.003974
O	-0.253919	-2.303504	0.168712
C	-1.408697	-1.054656	-1.94084
N	-1.964294	-1.831394	-2.629671
C	0.839172	-0.399126	-2.389002
H	1.207684	-1.397133	-2.146479
H	1.646293	0.320188	-2.258127
H	0.526045	-0.401149	-3.433719
Cl	-2.944969	0.0	0.0
