13
Coordinates from ORCA-job run
  C   -0.91725010529203     -0.91991686634746     -0.49887186079782
  C   -0.14675246400434      0.10750601255129      0.31674373477858
  H   -0.58421889580434     -0.88703870861808     -1.53893052781765
  H   -0.49539593567297      0.04770784206813      1.36181967272782
  H   -0.76349229734792     -1.92848251293383     -0.10710452713637
  H   -1.99181325993872     -0.71397683566966     -0.47933605529759
  N   -0.37268944748943      1.43144961658659     -0.27028174515174
  H   0.10768267990388      2.13471303678604      0.28028019193286
  H   -1.36143457216118      1.65449912975026     -0.23732258538360
  C   1.34711400203514     -0.17977942013874      0.29887300059645
  H   1.71692368353025     -0.13490380523057     -0.72822907630831
  H   1.56243018001581     -1.16821551033643      0.71234823368513
  H   1.89789643222585      0.55743802153245      0.89101154417224
