15

C	-0.5206	0.056306	-1.414003
C	0.0	0.0	0.0
Cl	-2.295209	0.256737	-1.533338
H	1.097567	0.0	0.0
H	-0.06349	0.875448	-1.965944
N	-0.118125	-1.183234	-2.174911
O	0.971223	-1.10491	-2.738805
O	-0.855614	-2.161479	-2.17162
N	-0.458476	-1.186434	0.676359
H	-1.322511	-0.990599	1.167965
H	0.256877	-1.464353	1.337585
N	-0.446911	1.234765	0.701308
H	0.258598	1.354842	1.427746
H	-0.292054	2.025828	0.078117
F	2.626648	0.0	0.0
