15

C	-0.667424	-0.038189	-1.360281
C	0.0	0.0	0.0
Cl	0.042295	-1.248857	-2.438895
H	1.092645	0.0	0.0
H	-1.736116	-0.246617	-1.294922
N	-0.589024	1.308558	-2.024095
O	-1.661113	1.902088	-2.162206
O	0.508539	1.7312	-2.354649
N	-0.381427	-1.234846	0.691334
H	-1.129167	-1.062968	1.354973
H	0.438095	-1.538786	1.204337
N	-0.378289	1.256407	0.641331
H	-1.202257	1.161977	1.224479
H	0.406745	1.541295	1.213547
F	2.617587	0.0	0.0
