15

C	-0.424105	-0.000834	-1.442868
C	0.0	0.0	0.0
Cl	0.0092	1.46134	-2.322669
H	1.100398	0.0	0.0
H	0.034805	-0.843338	-1.957895
N	-1.912925	-0.218361	-1.591312
O	-2.676458	0.718701	-1.323008
O	-2.281163	-1.272977	-2.115531
N	-0.639397	-1.218943	0.57449
H	-0.306451	-1.228111	1.539122
H	-0.144154	-2.015336	0.159143
N	-0.501326	1.175795	0.668515
H	0.128038	1.345752	1.46734
H	-1.482615	1.057634	0.98812
F	2.655488	0.0	0.0
