15

C	-0.436618	-0.073614	-1.452776
C	0.0	0.0	0.0
Cl	0.082816	1.328204	-2.403925
H	1.099247	0.0	0.0
H	-0.041185	-0.970229	-1.917396
N	-1.932718	-0.192358	-1.58117
O	-2.615323	0.782828	-1.256807
O	-2.385389	-1.276783	-1.942164
N	-0.464916	-1.246175	0.618147
H	-1.194348	-1.012825	1.281126
H	0.321013	-1.593472	1.156619
N	-0.419547	1.192923	0.719115
H	0.350924	1.846975	0.682831
H	-1.234363	1.627281	0.305503
F	2.629591	0.0	0.0
