13

C	0.0	0.0	0.0
C	-0.623568	-0.265745	-1.358834
Cl	1.789461	0.0	0.0
H	-0.391034	0.548443	-2.053727
H	-0.302593	-0.807359	0.666924
H	-1.72975	-0.242189	-1.073946
C	-0.511864	1.316876	0.551415
H	-0.187678	2.145398	-0.086256
H	-0.135548	1.487939	1.563424
H	-1.604915	1.203565	0.539636
C	-0.237337	-1.535384	-1.949447
N	0.057376	-2.563699	-2.437287
F	-2.926138	0.0	0.0
