13

C	0.0	0.0	0.0
C	-0.594174	-0.21968	-1.379224
Cl	1.78943	0.0	0.0
H	-0.317014	0.606808	-2.044218
H	-0.319301	-0.821476	0.64068
H	-1.703574	-0.190109	-1.120941
C	-0.491877	1.314452	0.575452
H	-1.586089	1.217918	0.571801
H	-0.096355	1.468427	1.582252
H	-0.158934	2.144853	-0.05654
C	-0.204229	-1.477589	-1.994523
N	0.094441	-2.493339	-2.505593
F	-2.890984	0.0	0.0
