13

C	0.0	0.0	0.0
C	-0.619226	0.351603	-1.34024
Cl	1.790459	0.0	0.0
H	-0.352687	-0.385612	-2.103641
H	-0.312309	-1.018839	0.228106
H	-1.726315	0.26884	-1.06457
C	-0.491627	0.926952	1.0968
H	-1.585533	0.848476	1.046488
H	-0.153659	1.950711	0.91292
H	-0.112817	0.603857	2.070082
C	-0.269815	1.680378	-1.81336
N	-0.002776	2.753911	-2.211717
F	-2.913163	0.0	0.0
