13

C	0.0	0.0	0.0
C	-0.38893	0.221603	-1.464832
Cl	1.791767	0.0	0.0
H	-0.007938	1.208424	-1.755818
H	-0.337881	-0.973681	0.343971
H	0.168486	-0.498022	-2.074556
C	-0.454114	1.099426	0.939614
H	-1.547302	1.04213	0.915059
H	-0.083412	2.066965	0.584402
H	-0.061672	0.928055	1.946499
C	-1.798075	0.144205	-1.913099
N	-2.566216	0.153875	-2.81207
F	-2.675219	0.0	0.0
