13

C	0.0	0.0	0.0
C	-0.618855	0.324451	-1.347264
Cl	1.790539	0.0	0.0
H	-1.72552	0.247958	-1.070198
H	-0.312478	-1.013727	0.24921
H	-0.353022	-0.427665	-2.095941
C	-0.492242	0.949796	1.07645
H	-0.109638	0.651588	2.056086
H	-0.158247	1.970065	0.866854
H	-1.586051	0.866717	1.029421
C	-0.269404	1.64359	-1.846658
N	-0.002817	2.709668	-2.264716
F	-2.913423	0.0	0.0
