16
Coordinates from ORCA-job run
  C   0.60448275334019     -0.74949408055044      0.17895846303114
  C   -0.18087272791824      0.53411751551914     -0.14420571621207
  F   -0.26043592313177     -1.55260792943399      0.96390179684497
  H   0.42243254051591      1.07300708164342     -0.88373078484035
  N   1.79113563595220     -0.48275360695152      0.86752194207435
  H   2.63741910892483     -0.90575020543009      0.53212921080433
  H   1.85403914631427      0.46399484274460      1.20800540942004
  C   0.85622792237330     -1.52411144454110     -1.05180661954537
  N   1.07348797029451     -2.10636131684440     -2.04776764499235
  N   -0.18122193469684      1.34016984170174      1.07452471534624
  H   -0.78476843979791      0.90332522489050      1.76290114538921
  H   -0.55362796493994      2.26070305810108      0.87703367121238
  C   -1.55818862712732      0.23745984397117     -0.72559253467706
  H   -2.17021387346995     -0.29642313420828      0.00271268766682
  H   -1.49368626107942     -0.36952277871990     -1.63238724670309
  H   -2.05920932555382      1.17424708810809     -0.98219849481921
