16
Coordinates from ORCA-job run
  C   0.69153658793817     -0.69036718329857      0.07948597923573
  C   -0.24505137311363      0.52431826827227     -0.04678390113235
  F   -0.09924950459215     -1.74512045961889      0.59619536847463
  H   0.32330328069280      1.28189954592504     -0.59847786743027
  N   1.78063764375343     -0.43497645119836      0.92059175904613
  H   2.69785248306222     -0.64960922746145      0.57293114938718
  H   1.68401849498222      0.42085614074689      1.44489530909484
  C   1.13346541142650     -1.13991855686097     -1.25517458899898
  N   1.49802913862006     -1.45702012986154     -2.32509098172859
  N   -0.44175088726930      1.04101762929860      1.30578159431542
  H   -1.01875655245137      0.39187274060866      1.82989561932081
  H   -0.93079479794450      1.92672400207782      1.26689277138780
  C   -1.52397532616189      0.19105687444631     -0.80603832787493
  H   -2.13473933399982      1.09123269852758     -0.91118743246308
  H   -1.31323112011784     -0.19198301770609     -1.80788935730613
  H   -2.10129414482491     -0.55998287389730     -0.26502709332820
