16
Coordinates from ORCA-job run
  C   0.59946911016533     -0.70716603833523     -0.43441775486601
  C   -0.30575911784446      0.52932120391713     -0.32281923264745
  F   0.20065210368738     -1.44823876710486     -1.53722196105522
  H   -0.19724723325784      1.06776446438559     -1.27548883890919
  N   0.48617036334566     -1.50601284168245      0.73409726808510
  H   0.49718154789258     -0.88993374631210      1.53982775360480
  H   1.23154508721333     -2.18660485743319      0.80296861315946
  C   1.98927374295990     -0.25946309590470     -0.72603966226095
  N   3.08219452216395      0.14044512010322     -0.88808674002239
  N   0.14969759612621      1.29524859920818      0.83552858321333
  H   0.96838009140866      1.84688926582332      0.60395988869391
  H   -0.57627026931538      1.93397939125540      1.13481632183755
  C   -1.75888805917544      0.11918490521803     -0.14712863026327
  H   -2.39935459498915      1.00362790860319     -0.20556520190766
  H   -1.90845805395529     -0.36448660420576      0.81823580757487
  H   -2.05858683642545     -0.57355490753574     -0.93266621423689
