16
Coordinates from ORCA-job run
  C   0.53465393351674     -0.70065593848363      0.20162453426483
  C   -0.29481130261323      0.55895262670173     -0.06471145563854
  F   -0.20495569639119     -1.62323807077648      0.90663124754016
  H   0.36575765626116      1.22136873772073     -0.65521957601512
  N   1.67860457974441     -0.38105863630033      1.01777817537115
  H   2.17373318289501     -1.23235482093688      1.25939273296676
  H   2.31239605103440      0.22509025299067      0.50949488238324
  C   0.90501241270712     -1.34759767440068     -1.08654052122153
  N   1.26137759226216     -1.81863067448189     -2.10189619656429
  N   -0.68461302344417      1.11089871182860      1.22261108676812
  H   0.12453614031293      1.17839219523585      1.82745024731084
  H   -1.07464079418172      2.03561540783688      1.09120952497112
  C   -1.53640604031931      0.24463494341647     -0.88492529680694
  H   -1.28620324501203     -0.13788925863869     -1.87678555977623
  H   -2.12954148529596      1.15297076045719     -1.01523324585178
  H   -2.14589996147633     -0.48549856216953     -0.35188057970178
