16
Coordinates from ORCA-job run
  C   0.72119068239208     -0.60770134030341     -0.31878898234968
  C   -0.30001025710734      0.54363366369045     -0.31159632888863
  F   0.46098647050900     -1.33612901363715     -1.50726966890552
  H   -0.26462776039600      0.93778305199794     -1.33843063973040
  N   0.67824342548087     -1.42134979999384      0.82673425401663
  H   -0.24658499987640     -1.79494132851401      0.98582301037380
  H   1.35469195403545     -2.17175815255595      0.77872689686249
  C   2.08456009455751     -0.06124191290627     -0.47988539558160
  N   3.14595040247291      0.41866487247454     -0.62366834180332
  N   0.06808886273826      1.51626198875558      0.70476319437362
  H   -0.69352601101524      2.16921693182964      0.84119520205466
  H   0.88002368243934      2.04998063334330      0.41648343540538
  C   -1.70467904905733      0.02509941718105     -0.04314753856445
  H   -1.93837955912584     -0.82949514495280     -0.68009651914581
  H   -2.43405279318819      0.81002311686370     -0.25783149330729
  H   -1.81287514485909     -0.24904698327275      1.00898891519011
