14

C	0.0	0.0	0.0
C	-0.496146	-0.12315	-1.437617
F	1.349771	0.0	0.0
H	0.39484	-0.118507	-2.088039
H	-0.379968	0.894667	0.466148
N	-0.359252	-1.13753	0.904166
O	-0.535614	-0.855477	2.083693
O	-0.268356	-2.274678	0.446676
N	-1.206532	1.154892	-1.831372
O	-2.056603	1.084329	-2.704832
O	-0.761323	2.193064	-1.352123
C	-1.316722	-1.269497	-1.802291
N	-1.820059	-2.21192	-2.292204
F	-2.294678	0.0	0.0
