14

C	0.0	0.0	0.0
C	-0.306944	-0.042631	-1.501075
F	1.335569	0.0	0.0
H	0.309646	-0.834516	-1.914514
H	-0.452035	0.818606	0.536107
N	-0.384444	-1.275612	0.686091
O	-0.129615	-2.31647	0.086215
O	-0.725379	-1.203372	1.859913
N	0.303559	1.226064	-2.090761
O	0.169875	2.273033	-1.471736
O	0.849048	1.115208	-3.181962
C	-1.623138	-0.125068	-2.140916
N	-2.66961	-0.182109	-2.680941
F	-2.289753	0.0	0.0
