14

C	0.0	0.0	0.0
C	-0.444013	-0.071332	-1.451337
F	1.347586	0.0	0.0
H	0.310697	-0.631713	-2.010357
H	-0.403656	0.83458	0.549014
N	-0.370489	-1.254686	0.728178
O	-0.338569	-2.298943	0.079614
O	-0.517975	-1.166114	1.941108
N	-0.371566	1.321476	-2.048678
O	-0.246627	2.28792	-1.300968
O	-0.421879	1.376823	-3.273035
C	-1.77205	-0.634903	-1.7515
N	-2.478926	-1.194482	-2.516737
F	-2.35983	0.0	0.0
