14

C	0.0	0.0	0.0
C	-0.26265	-0.270817	-1.495932
F	1.351966	0.0	0.0
H	0.228405	0.571236	-1.9924
H	-0.409876	0.932779	0.352746
N	-0.424622	-1.074312	0.938588
O	-0.546872	-2.212494	0.502249
O	-0.459537	-0.744828	2.120826
N	-1.649764	-0.255881	-2.093572
O	-2.194426	-1.329004	-2.300239
O	-2.011481	0.837566	-2.5147
C	0.42877	-1.479244	-1.958668
N	1.051214	-2.364089	-2.413879
F	-2.257961	0.0	0.0
