14
Coordinates from ORCA-job run
  C   0.58582059054999      0.25325175360137     -0.22279613143028
  C   -0.90759492187310     -0.02929204440385     -0.03259100243449
  H   0.82799863031844      0.28792185925629     -1.28658393181009
  H   -1.10765342862258     -0.03524834443405      1.04265378036798
  H   -1.49740766050720      0.78000554830453     -0.48527870405550
  N   1.48612378706576     -0.64203539926858      0.45097220978698
  H   1.30666632720996     -0.59726095071443      1.44818402590297
  H   1.25845674894685     -1.57824239014927      0.13478904894873
  N   0.82994630144010      1.64294611093825      0.27992486166174
  O   0.81462675536494      2.55466001201727     -0.54295310531084
  O   0.95767652657730      1.77258448164606      1.49554091287741
  N   -1.18048661864187     -1.35516919730194     -0.58074710471720
  H   -1.38676880507552     -1.28794756380002     -1.56944740402455
  H   -1.98640423275306     -1.76717387569162     -0.13066745576285
