14
Coordinates from ORCA-job run
  C   0.53224817273143      0.08073900460441     -0.23669191889683
  C   -0.98765659878615      0.10623923446852     -0.19378446566089
  H   0.86586186048117     -0.07224423576546     -1.26315867272591
  H   -1.34277154899546      0.93206577046137     -0.81384464252792
  H   -1.29287329696730      0.30603594892137      0.84772504795647
  N   1.05037650429620     -0.92330877507294      0.62537367640767
  H   2.04145946331789     -1.06331091739621      0.48101713934649
  H   0.90255688856923     -0.66263099104691      1.59296248912043
  N   1.00342643301954      1.49344013023681      0.12126365014766
  O   0.93833675931120      2.33608275187454     -0.76883336281826
  O   1.36471697757155      1.69549290600642      1.27893886704373
  N   -1.46547608905777     -1.15063314825650     -0.74796976337623
  H   -1.13510610704382     -1.91038425279563     -0.16672638787131
  H   -2.47709941844772     -1.16758342623979     -0.75527165614509
