14
Coordinates from ORCA-job run
  C   0.49542939874701      0.28513061605735     -0.15202742565434
  C   -0.98328664879327     -0.03539239714197     -0.01962375687343
  H   0.79343849363154      0.33334587362467     -1.20994980782498
  H   -1.57370242568439      0.72440082069396     -0.54332241739167
  H   -1.23604001238156      0.01891861093038      1.03985453522395
  N   1.26990005378497     -0.61562124438864      0.65331602600865
  H   2.23876570644395     -0.61810735568008      0.36313164882971
  H   0.87360017105434     -1.54047357404912      0.52881114770045
  N   0.79235087034421      1.67727739863835      0.35281772599033
  O   1.93537380293932      2.07483177733540      0.14163334954502
  O   -0.08396359049362      2.29932307268473      0.94717213560992
  N   -1.19155474354220     -1.40556249284326     -0.49145690927378
  H   -1.27986308773067     -1.42037248030296     -1.50008439309994
  H   -2.05044798831963     -1.77669862555881     -0.10827185878990
