14
Coordinates from ORCA-job run
  C   0.73162211696928     -0.00265670288906     -0.38772193924790
  C   -0.69216917392115     -0.39354564686010     -0.76235321702364
  H   1.34306791430246      0.15223980710211     -1.28026993438490
  H   -1.08389800524747      0.32570741584411     -1.48761477702496
  H   -0.63030827188385     -1.37321606229429     -1.23984993938384
  N   1.30123244291199     -0.94946185394208      0.48798243771032
  H   2.19206328003752     -0.64346890504456      0.85348860195973
  H   0.65715272743704     -1.11014906788551      1.25325159458297
  N   0.63088804479127      1.41995162149845      0.21452418015384
  O   0.18808017875754      2.29263876999512     -0.52965745061367
  O   0.98195694433996      1.58454650764181      1.37866901021438
  N   -1.48343159670145     -0.50633659377052      0.46134338255433
  H   -1.90591221758217      0.38337171104816      0.69462039247713
  H   -2.22934438421098     -1.17762100044364      0.34458765802622
