14
Coordinates from ORCA-job run
  C   0.74733912811490      0.14838318741304     -0.19176525512695
  C   -0.53917638832357     -0.38106911952337     -0.81296537788174
  H   1.49650495363367      0.34825556990108     -0.96406786525075
  H   -0.89927453881027      0.30178488504666     -1.58782445433630
  H   -0.27603468262871     -1.33036646651241     -1.28813326006904
  N   1.27113510769960     -0.66175662320818      0.84402659767292
  H   2.09681310800704     -1.17394103764040      0.58527040223146
  H   0.54482568965628     -1.24899540143838      1.23084644791159
  N   0.47082915976869      1.56383063989591      0.37557831348927
  O   -0.51432454000412      2.16409330482436     -0.06055746694643
  O   1.27467442772992      2.01508179883795      1.17623222365817
  N   -1.49998427766701     -0.64710214383120      0.25351280048334
  H   -2.19721590043510     -1.31126177199638     -0.05422534386643
  H   -1.97711124674133      0.21306317823130      0.49307223803091
