15
Coordinates from ORCA-job run
  C   0.60362153501085      0.24642575978843     -0.37561850071863
  C   -0.68196020408704     -0.27954973967139      0.28250977251654
  H   0.39051937946221      1.12716723852876     -0.98394034991732
  H   -0.38229301110788     -1.09952500368053      0.94318502852153
  N   1.37001635312287     -0.69553767131198     -1.12995243931994
  H   1.42692410434688     -1.59197777180929     -0.66430384165955
  H   1.00145557149844     -0.81039394630215     -2.06339268560517
  N   1.46686895371374      0.73718703001458      0.75599446278123
  O   1.81729613137293     -0.12328405073735      1.55885811587981
  O   1.76243374478431      1.92464774383502      0.78195421830944
  C   -1.54269119248506     -0.82563136992710     -0.78479852931396
  N   -2.24214779007302     -1.20610393278318     -1.64920009975836
  N   -1.28242564760710      0.76025448584069      1.09465369828538
  H   -1.97901014805012      0.37594543648400      1.71977944575896
  H   -1.72860777990202      1.46137579173149      0.51527170424005
