15
Coordinates from ORCA-job run
  C   0.53606113663508     -0.15239247921914     -0.52875246517217
  C   -0.93269145944204      0.06244686183513     -0.15409621008678
  H   0.56179700525762     -0.65359164656876     -1.49748822239194
  H   -1.39012629188011      0.69844813471427     -0.91531576622113
  N   1.21042929934539     -0.90706276704379      0.46034255844606
  H   1.36143041714053     -0.35720855459021      1.29842690252547
  H   2.10575901692531     -1.24048126432899      0.13017239305880
  N   1.14180767755442      1.23594361049828     -0.78945843143229
  O   2.04392342976197      1.61620354236214     -0.05001516197538
  O   0.65651048102777      1.86246213116880     -1.72674721799427
  C   -0.99212202899977      0.77025719109259      1.14484375450619
  N   -1.03550631373821      1.27985582419486      2.20303431856584
  N   -1.57931667517169     -1.23574362303879     -0.16494977382542
  H   -1.12821275215804     -1.83397389710765      0.51722437520613
  H   -2.55974294225824     -1.14716306396874      0.07177894679088
