15
Coordinates from ORCA-job run
  C   0.46639416077131      0.16448544609380     -0.35450795489267
  C   -0.76840219922754     -0.36767680897419      0.38644259036374
  H   0.17505972862004      0.99612580028762     -1.01289419718857
  H   -0.41143587717354     -1.09190567570976      1.12385537037817
  N   1.22874419679340     -0.89028504076540     -0.96657678398909
  H   0.63650590018283     -1.45945603315283     -1.55910853294428
  H   1.96777841329086     -0.49656762172803     -1.53678408001810
  N   1.41560828142170      0.80664867002436      0.63502395006407
  O   1.26601936945631      0.59596146779543      1.83581516138101
  O   2.29857094750526      1.49319220782238      0.12767482473317
  C   -1.58833797122349     -1.08747641672653     -0.59884248008854
  N   -2.18447436378597     -1.65481181026526     -1.43606159414937
  N   -1.57926743094100      0.62072908104126      1.06939805809219
  H   -1.06026637592267      1.00784639207501      1.84539797046010
  H   -1.86249677976750      1.36319034218214      0.44216769779818
