14

C	-0.586122	-0.013983	-1.393202
C	0.0	0.0	0.0
F	-0.145622	1.049509	-2.125796
H	1.093843	0.0	0.0
H	-1.678769	-0.032146	-1.426259
N	-0.171754	-1.275284	-2.107154
O	0.976361	-1.339364	-2.5244
O	-1.039421	-2.14056	-2.219762
N	-0.339025	-1.250168	0.682552
H	-1.106858	-1.149729	1.333062
H	0.494663	-1.527769	1.186545
C	-0.492141	1.185396	0.690502
N	-0.917482	2.112942	1.27733
F	2.519378	0.0	0.0
