14

C	-0.438006	-0.102134	-1.452623
C	0.0	0.0	0.0
F	-0.214405	1.057693	-2.124062
H	1.095452	0.0	0.0
H	-1.489024	-0.387975	-1.585772
N	0.341451	-1.199126	-2.14839
O	1.240265	-0.891905	-2.915839
O	-0.0302	-2.343843	-1.879807
N	-0.352641	-1.159951	0.813431
H	-1.125932	-1.687138	0.428315
H	0.466072	-1.755402	0.819917
C	-0.580214	1.216651	0.553504
N	-1.04821	2.200436	0.996468
F	2.518703	0.0	0.0
