14

C	-0.346309	-0.122194	-1.458518
C	0.0	0.0	0.0
F	-1.657636	-0.493047	-1.678337
H	1.093646	0.0	0.0
H	0.308507	-0.852713	-1.927402
N	-0.138743	1.15947	-2.213937
O	-1.050862	1.978662	-2.185485
O	0.933269	1.283719	-2.799926
N	-0.323561	-1.236724	0.71432
H	0.510755	-1.811095	0.687627
H	-1.103098	-1.727458	0.298223
C	-0.617456	1.146926	0.646782
N	-1.093608	2.065607	1.204219
F	2.520025	0.0	0.0
