14

C	-0.457	-0.082861	-1.426168
C	0.0	0.0	0.0
F	-1.809313	-0.287562	-1.553975
H	1.092662	0.0	0.0
H	0.080479	-0.882274	-1.931675
N	-0.13774	1.183391	-2.176833
O	-0.967105	2.088473	-2.134591
O	0.93838	1.211378	-2.766347
N	-0.32991	-1.28185	0.635387
H	-1.186311	-1.226863	1.170463
H	0.441131	-1.498614	1.254783
C	-0.54853	1.147038	0.71075
N	-0.991953	2.023741	1.358211
F	2.522662	0.0	0.0
