14

C	-0.620167	-0.023027	-1.367581
C	0.0	0.0	0.0
F	-0.234837	1.042889	-2.132865
H	1.095638	0.0	0.0
H	-1.710703	-0.066625	-1.357287
N	-0.215981	-1.261423	-2.136764
O	-1.0166	-1.612366	-3.008553
O	0.86136	-1.788079	-1.898793
N	-0.411671	-1.24434	0.676416
H	0.449475	-1.662008	1.007956
H	-1.002972	-1.057364	1.473358
C	-0.471664	1.189229	0.694259
N	-0.881145	2.123825	1.280298
F	2.527431	0.0	0.0
