14

C	-0.48029	0.08569	-1.41577
C	0.0	0.0	0.0
F	-1.845489	-0.047651	-1.535203
H	1.10016	0.0	0.0
H	0.010502	-0.678208	-2.013684
N	-0.125821	1.407389	-2.04439
O	0.878985	1.430542	-2.750304
O	-0.864957	2.358615	-1.802469
N	-0.328074	-1.347464	0.483792
H	0.449945	-1.636965	1.064624
H	-1.175897	-1.352419	1.035442
C	-0.533879	1.053001	0.853413
N	-0.960198	1.841197	1.615785
F	2.518996	0.0	0.0
