14

C	-0.271349	-0.135727	-1.483993
C	0.0	0.0	0.0
F	0.15998	-1.348064	-1.928161
H	1.104248	0.0	0.0
H	0.192007	0.66243	-2.063107
N	-1.748926	-0.074854	-1.792273
O	-2.194055	1.00586	-2.177029
O	-2.416918	-1.085872	-1.569096
N	-0.427747	-1.125353	0.814098
H	0.325342	-1.800229	0.782627
H	-1.269519	-1.555367	0.448862
C	-0.527873	1.264501	0.487396
N	-0.944249	2.290078	0.884787
F	2.517871	0.0	0.0
