14

C	-0.467897	-0.06273	-1.42359
C	0.0	0.0	0.0
F	-1.823988	-0.24641	-1.543377
H	1.092695	0.0	0.0
H	0.053909	-0.864934	-1.940502
N	-0.136311	1.205476	-2.165888
O	-0.947875	2.12544	-2.101198
O	0.932424	1.220232	-2.77008
N	-0.327081	-1.290658	0.619017
H	0.454689	-1.52214	1.220347
H	-1.172751	-1.240907	1.171595
C	-0.544801	1.136509	0.730162
N	-0.986977	2.004733	1.389797
F	2.520061	0.0	0.0
