14

C	-0.409516	0.155456	-1.441903
C	0.0	0.0	0.0
F	0.166178	-0.794683	-2.21182
H	1.098543	0.0	0.0
H	-0.172657	1.146225	-1.83187
N	-1.909938	0.007739	-1.614017
O	-2.573475	0.987832	-1.273341
O	-2.359033	-1.053497	-2.031172
N	-0.39368	-1.307087	0.519166
H	-1.150832	-1.242232	1.183644
H	0.421368	-1.691437	0.982078
C	-0.453621	1.11848	0.813305
N	-0.798045	1.986194	1.52974
F	2.519661	0.0	0.0
