14

C	-0.45091	-0.063367	-1.429546
C	0.0	0.0	0.0
F	-1.803626	-0.262686	-1.566767
H	1.092689	0.0	0.0
H	0.086694	-0.859057	-1.941143
N	-0.122971	1.211129	-2.161907
O	-0.950478	2.11853	-2.114955
O	0.959629	1.24473	-2.738538
N	-0.333359	-1.28984	0.615528
H	0.432117	-1.513368	1.240029
H	-1.195575	-1.24475	1.142708
C	-0.550923	1.137933	0.723
N	-1.004551	2.006272	1.374775
F	2.520202	0.0	0.0
