14

C	-0.260713	0.123341	-1.488191
C	0.0	0.0	0.0
F	0.148831	-1.006668	-2.127617
H	1.097309	0.0	0.0
H	0.22843	0.996047	-1.92057
N	-1.732518	0.269858	-1.791265
O	-2.147059	1.407624	-2.010729
O	-2.426996	-0.745601	-1.730732
N	-0.44074	-1.244198	0.604498
H	-1.283614	-1.596736	0.166599
H	0.307699	-1.911133	0.46498
C	-0.524025	1.167665	0.691716
N	-0.931385	2.120428	1.24831
F	2.520556	0.0	0.0
