14

C	-0.601121	-0.125183	-1.380977
C	0.0	0.0	0.0
F	-0.373274	0.991468	-2.131021
H	1.096531	0.0	0.0
H	-1.672173	-0.339178	-1.375665
N	0.012497	-1.294641	-2.112593
O	-0.666353	-2.319671	-2.161688
O	1.118232	-1.131871	-2.607869
N	-0.330339	-1.205078	0.766183
H	-1.098648	-1.064931	1.412903
H	0.507314	-1.444692	1.282125
C	-0.503623	1.220781	0.614548
N	-0.937517	2.171207	1.155546
F	2.521117	0.0	0.0
