14

C	-0.30676	-0.173251	-1.471326
C	0.0	0.0	0.0
F	-1.525998	-0.764843	-1.717042
H	1.091011	0.0	0.0
H	0.478316	-0.774033	-1.929516
N	-0.306505	1.146583	-2.195141
O	0.798173	1.589996	-2.494782
O	-1.38964	1.685957	-2.401115
N	-0.314472	-1.211429	0.755144
H	-1.095026	-1.716876	0.355989
H	0.520956	-1.784847	0.74638
C	-0.640957	1.166042	0.585536
N	-1.143213	2.106894	1.081037
F	2.521786	0.0	0.0
