16
Coordinates from ORCA-job run
  C   -0.75681680801656     -0.13982447354433      0.14824507374928
  C   0.66295478363058      0.35414206793469      0.39782848897593
  F   -1.21071144902549     -0.71856831122080      1.32762164038981
  H   0.66237099099065      1.04057085922047      1.24129513387468
  N   -1.66500039756197      1.08392590499057     -0.01449960545360
  O   -2.57262464182714      0.99982165631741     -0.83289215099613
  O   -1.45332805959238      2.01681928768208      0.74816653900350
  N   -0.87514293140292     -0.93714553894056     -0.98306599752395
  H   -1.83908173995839     -1.09779812529765     -1.24024514027924
  H   -0.34289568231269     -1.79213238248966     -0.89412977153033
  N   1.17110748285812      0.94828783369196     -0.77186126870137
  H   2.07870508718851      1.37132806510341     -0.64218613418381
  H   1.15852251491153      0.31348760234247     -1.55809033874522
  N   1.45912001746184     -0.85698477758956      0.90801174189236
  O   1.67846603443808     -1.75627934451350      0.09511510299789
  O   1.84335479821825     -0.82765032368699      2.07168668653021
