16
Coordinates from ORCA-job run
  C   -0.80409691339855     -0.18106292414347      0.26398869304056
  C   0.63251213877359      0.31368921046625      0.42981340271221
  F   -1.24763399743887     -0.56332769998609      1.51326999672999
  H   0.66799864960108      1.00238947064022      1.27160348868172
  N   -1.63862584407389      1.07670090495779     -0.05502138705478
  O   -1.57423342113358      1.96812984964908      0.77878033677474
  O   -2.30155552638943      1.08381783715296     -1.08490412736660
  N   -1.01105588754651     -1.14584041360814     -0.70103437296610
  H   -1.69367922154550     -0.91714151165936     -1.40422849109504
  H   -0.20685737628992     -1.66822360584780     -1.00440630297119
  N   1.07646912098162      0.91873114966203     -0.76665672025144
  H   1.16494362247473      0.25087904368173     -1.52023593487926
  H   1.94516293144651      1.41965925278348     -0.64332973184356
  N   1.46039459703144     -0.89275915239367      0.87454082919735
  O   1.78758459144202     -1.68175385492344     -0.01512668425508
  O   1.74167253606526     -0.98488755643158      2.06294700554649
