16
Coordinates from ORCA-job run
  C   -0.72417771296271      0.22208898111806     -0.10292773574135
  C   0.64758234005310     -0.38016052314143      0.20318608029683
  F   -0.57166852824359      1.59274168933888     -0.17907124059479
  H   0.63558465196695     -1.43614805392699     -0.06355209456399
  N   -1.22810267442480     -0.22608892416382     -1.47992777751654
  O   -1.75287909214057      0.62443714235505     -2.18377171883446
  O   -1.11789662807528     -1.42021160127236     -1.71511846401524
  N   -1.66669013466414     -0.20457378852863      0.82866757261032
  H   -2.54686737041073      0.28546465529952      0.73777339256361
  H   -1.29069503860812     -0.16479469804724      1.76640664839123
  N   0.96780131887118     -0.18104161824952      1.57044681019874
  H   1.73011541264360     -0.77862488638120      1.85799833500622
  H   1.24139687918703      0.78119617127390      1.73095904500117
  N   1.65236941524970      0.27507381637359     -0.75773494935287
  O   1.40783311966661      0.16385102322100     -1.95255766860045
  O   2.61629404189175      0.84579061473119     -0.26077623484845
