16
Coordinates from ORCA-job run
  C   -0.66579096133233      0.29587642899138     -0.05730267453895
  C   0.76167324594476     -0.18820179320312      0.20778131094482
  F   -0.69918057868344      1.62935814923791     -0.21279773080371
  H   0.79183521569040     -1.27939321088093      0.09213334729122
  N   -1.20529928028445     -0.32648474178825     -1.36072913452190
  O   -1.77482188737159      0.39986741670370     -2.15572718693282
  O   -1.09325909516693     -1.54860428085068     -1.41452884609758
  N   -1.51421348976113     -0.05833612628581      1.02819449470537
  H   -1.66175818370966     -1.06061447329223      1.05280589071397
  H   -2.40541678523317      0.41654170786033      0.93440229039660
  N   1.20836691428173      0.34873917538578      1.45033659518914
  H   0.46110822693804      0.30966381676436      2.13013007976288
  H   2.03245415842155     -0.12645041827444      1.78684372844957
  N   1.68971195370277      0.30163647956129     -0.89180951206299
  O   1.21191527358431      0.44676913833637     -2.01245703470485
  O   2.86367527297911      0.44063273173436     -0.57827561779078
