16
Coordinates from ORCA-job run
  C   -0.86029422029934      0.00960185897928      0.19955188350686
  C   0.62350976771385      0.04508042220650      0.60160275192820
  F   -1.54030154357590      0.55728633343376      1.26352315456129
  H   0.65046259232485     -0.36677147839755      1.61233614345378
  N   -1.12928264213679      0.95804631694952     -0.96807689587686
  O   -2.23817234369781      1.46921894830036     -1.01894380963973
  O   -0.23229775666826      1.05259851537574     -1.79874853809096
  N   -1.34297321811037     -1.23308722662734     -0.20611584143224
  H   -0.96670553164108     -2.01085955881826      0.31562184127234
  H   -2.35369196523822     -1.24400563778362     -0.24515079103682
  N   1.14042155062911      1.35617064666021      0.58953706826453
  H   1.96099749663337      1.43468892015300      1.17251827613865
  H   1.35829460997768      1.65288348709835     -0.35262407239831
  N   1.43953501953281     -0.97493498792946     -0.21029901533337
  O   1.25808881065234     -2.15551593365547      0.08336224571375
  O   2.23240937390375     -0.54840062594501     -1.03809440103111
