16
Coordinates from ORCA-job run
  C   -0.67953363489431      0.23535579975455     -0.10557833118729
  C   0.69259352556956     -0.32115998382437      0.27075084611928
  F   -0.64666267423847      1.60976341724642     -0.07147214916703
  H   0.62885080003538     -1.40482478931805      0.33572105490509
  N   -1.07286957697993     -0.15871781085074     -1.51867625736739
  O   -0.57324572842912     -1.19011027279259     -1.95015908583819
  O   -1.91255844573981      0.54507445575129     -2.06216123020099
  N   -1.67038514809690     -0.30989546061922      0.73014343150043
  H   -2.56988480383570      0.11602168528102      0.53708259987249
  H   -1.42614770543901     -0.17556472132084      1.70249968501839
  N   1.18357524668777      0.24768170665305      1.46880192912124
  H   0.87955673483544      1.18371125726384      1.67678365622867
  H   1.27487472821054     -0.36432205371359      2.25828454286595
  N   1.70519537580249     -0.07041075371977     -0.84061516661417
  O   1.51008847608808      0.87242879546270     -1.60107343486854
  O   2.67655283042398     -0.81503127125370     -0.83233209038794
