16
Coordinates from ORCA-job run
  C   -0.76054915536282      0.03688291186837      0.18879264277288
  C   0.73750654905394     -0.05389780125987      0.54723591796672
  F   -1.31207064150949      0.75991412411755      1.25209812503125
  H   0.74576015543444     -0.55521208554163      1.51724498367498
  N   -1.08724498031108      0.91518504549911     -1.01468692378191
  O   -0.16233562627151      1.38208918687485     -1.67140453575192
  O   -2.28310115487371      1.06009985328320     -1.23360796108656
  N   -1.36001479127852     -1.18635089428399     -0.05612282156906
  H   -1.04260788285806     -1.94064076545764      0.53329065625701
  H   -2.36579041714792     -1.12402625947909     -0.13111663900135
  N   1.49538805207857      1.14355429650922      0.63873222831297
  H   1.21584922671122      1.68122445960872      1.44672701999045
  H   1.42042645578531      1.69420097602932     -0.20446289945335
  N   1.42269889806532     -1.02718864930625     -0.38320669348391
  O   1.30117938788423     -2.21630314098864     -0.09132664727085
  O   2.03490592460007     -0.57053125747323     -1.33818645260734
