16
Coordinates from ORCA-job run
  C   -0.73897653385509     -0.17820690961763      0.30849668369491
  C   0.68963778929731      0.35673780509995      0.28788381836013
  F   -1.12868442291935     -0.52479345152747      1.56043589749912
  H   0.74278158037306      1.23648672762846      0.92558197666857
  N   -1.64756302261993      1.05450741344695     -0.02736142778800
  O   -1.44325008606315      2.07475449895137      0.61920089606427
  O   -2.51389780958890      0.88694439919644     -0.87711488241884
  N   -0.92310373134853     -1.25532163878603     -0.55913252268418
  H   -1.85700424613205     -1.63425135768042     -0.46173346821854
  H   -0.78340483387180     -0.96460894041961     -1.51782548308901
  N   1.05891505971298      0.62971194837158     -1.05850645791266
  H   1.76256746083820      1.35353872966560     -1.10497938067883
  H   1.43635258946971     -0.21248625192082     -1.48029432603712
  N   1.57219272567573     -0.68866778432637      0.96417492034977
  O   1.58992053599832     -0.67390816432120      2.18963224328672
  O   2.18451694503351     -1.45943702376077      0.23154151290370
