16
Coordinates from ORCA-job run
  C   -0.86964109290952     -0.01517790692778      0.26793158940656
  C   0.61631727224104      0.05363236195717      0.67713419619020
  F   -1.57958111928985      0.92435841575959      0.94770953700135
  H   0.74189225154329     -0.64540749343906      1.50773392146980
  N   -1.00960108183133      0.49255355351962     -1.20558942736874
  O   -0.21097318415030      1.35025745538398     -1.57548790346988
  O   -1.94460582477184      0.04266127193740     -1.85444322604204
  N   -1.44456329502206     -1.26525035187855      0.47980566377758
  H   -0.90030088745846     -1.98738924758006      0.02694530507178
  H   -2.39923566238178     -1.27955569952686      0.14157644159833
  N   1.04529801018667      1.33596613421280      1.04423097102495
  H   1.00744285063343      1.97666882954916      0.26388882756252
  H   1.97430450213244      1.31841673358380      1.43856027993161
  N   1.45242714152623     -0.59894554198171     -0.46057884592681
  O   2.51396984974313     -0.06844728036211     -0.74905714054095
  O   1.00685026980893     -1.63534123420739     -0.95236018968625
