16
Coordinates from ORCA-job run
  C   -0.74108300130241      0.06262736290652     -0.17523826490983
  C   0.68575165278728     -0.20939473737007      0.30226245192938
  F   -0.81645570995134      1.39652764469546     -0.52682568667859
  H   0.87222903645146     -1.28180316015546      0.26191001104964
  N   -1.05983656671929     -0.73095267732373     -1.44712069707661
  O   -0.72558493295985     -1.90626882305327     -1.42922707134203
  O   -1.67572588317546     -0.14680937517229     -2.32663422461063
  N   -1.66552186116873     -0.33487728689364      0.78745927730853
  H   -2.60593448309910     -0.03844197837529      0.56146055146852
  H   -1.37370763326407     -0.04048482539124      1.70975277673890
  N   0.86404929916608      0.31093205419710      1.60933976658253
  H   1.69337282419650     -0.06849622931264      2.04415740596888
  H   0.95537034011725      1.31944672485924      1.57825621540356
  N   1.63610539116633      0.41239318572132     -0.73404318379011
  O   2.46248764614609      1.21983064340037     -0.32555188711646
  O   1.49448388160925      0.03677147726760     -1.89095744092568
