16
Coordinates from ORCA-job run
  C   -0.72234018581718     -0.38359921096240     -0.07312031818518
  C   0.57855735742028      0.06260380231516      0.58682926497534
  F   -1.16856313283565     -1.55704630792728      0.44072661989980
  H   0.40088409751485      0.19334972006883      1.65209709033793
  N   -1.80231245120587      0.65179377355079      0.39642675786952
  O   -1.85139957805204      0.88443606731806      1.59828161470379
  O   -2.53689199475398      1.11292495604707     -0.46901502985210
  N   -0.61714170773495     -0.48352426925288     -1.46021743605244
  H   -0.41625703380373      0.42131773156304     -1.86513075188069
  H   -1.47728383498679     -0.83982149832616     -1.85821520885813
  N   1.03263079808684      1.25328819790330     -0.04637644113475
  H   1.60626640097209      1.00950948548557     -0.84716542397635
  H   1.58739678128921      1.81410695071018      0.58527906496369
  N   1.56142996558872     -1.09929638692865      0.47880821471696
  O   2.37141569257131     -1.05971426192303     -0.44239489952313
  O   1.45460882574689     -1.98232874964159      1.32218688199572
