16
Coordinates from ORCA-job run
  C   -0.70621365121208     -0.12565875349098      0.19033104953879
  C   0.75767201642614      0.27778483308099      0.36018071532352
  F   -1.15099675828799     -0.61722409530013      1.41189210696438
  H   0.82863473670127      1.02154170967179      1.14898888570559
  N   -1.55534064387877      1.13528035217989     -0.00491794929305
  O   -1.05948002026121      2.21652501005177      0.29345838755739
  O   -2.69835217660902      0.94478089012915     -0.40199675022663
  N   -0.94359482700720     -0.95272515534893     -0.90141444944184
  H   -1.93112479211353     -1.13061421127485     -1.02913881639633
  H   -0.39791263588886     -1.80291148673017     -0.84112304060174
  N   1.40554007718702      0.70037851045462     -0.82819694151679
  H   0.96834698122830      0.31583711297192     -1.65419363471224
  H   1.46566657073976      1.70514334878061     -0.88278406673010
  N   1.48468368434083     -0.93539809055887      0.91832861163130
  O   1.47801751516029     -1.95139101947684      0.22514045031438
  O   2.05345392347508     -0.80134895513997      1.99444544188335
