16
Coordinates from ORCA-job run
  C   -0.85231937263562      0.01445574406141      0.23016082004660
  C   0.64493681048483      0.05332717850137      0.57812201747230
  F   -1.49301882795263      0.58007194168314      1.30911344726997
  H   0.70743031220666     -0.34135503642868      1.59413552844111
  N   -1.16190299051573      0.94536309698755     -0.94186959384816
  O   -2.27144987588613      1.45716140606228     -0.96052152156432
  O   -0.29563985033759      1.02541079864210     -1.80579678479311
  N   -1.35106392829542     -1.23331389319371     -0.13843488482017
  H   -2.36254562849074     -1.24202859660687     -0.14302969378992
  H   -0.95871024667803     -2.00374993786893      0.38232727909743
  N   1.16338946367800      1.36296809978683      0.52578617485151
  H   2.00406058627762      1.44881725572546      1.07833950213494
  H   1.34857320411591      1.64346890339516     -0.42825972865340
  N   1.42942336193931     -0.98179596998182     -0.24507331385118
  O   2.19116229472013     -0.57101180128477     -1.10923409968526
  O   1.25767468736944     -2.15678918948050      0.07523485169167
