16
Coordinates from ORCA-job run
  C   -0.65822125919694      0.12289124812461     -0.18039680801446
  C   0.76955535735771     -0.24940761746849      0.25379815206174
  F   -0.69648692972025      1.47486358559135     -0.43130055849425
  H   0.90412850948950     -1.31673024783733      0.08574394196553
  N   -1.01878860553242     -0.57655553675937     -1.49331683534687
  O   -0.81906068208296     -1.78294469666802     -1.51399390523764
  O   -1.51113959991671      0.11116189533640     -2.37645305499708
  N   -1.59862175388211     -0.30480040267331      0.76794627020539
  H   -1.41965112181599      0.12775643276425      1.66401953642417
  H   -2.54475483197101     -0.09798927897308      0.47024288583068
  N   1.13291458699876      0.10012302917884      1.57615427396795
  H   0.83235148246417     -0.56614599081224      2.26881624058549
  H   0.94498546747169      1.05891295356923      1.82648513947138
  N   1.68811476978921      0.45895774825399     -0.72614734563378
  O   2.32066077344827      1.42446452548706     -0.32369783432546
  O   1.67201383709907      0.01544235288612     -1.87090009846278
