16
Coordinates from ORCA-job run
  C   -0.71679211023753     -0.39700334688977      0.05436616062588
  C   0.61486332508204      0.18201422936195      0.52158832580660
  F   -1.10155442060365     -1.44991384013848      0.81813342722575
  H   0.50677845411286      0.51646326603080      1.55109901922843
  N   -1.78536002108601      0.70197680298112      0.38641820970351
  O   -2.58223749615297      0.98280714587839     -0.50071202425972
  O   -1.76200227909720      1.16114524797520      1.52194395004631
  N   -0.70287021376674     -0.76735437012454     -1.29015755804284
  H   -1.57868059188417     -1.20503288215854     -1.54828467447407
  H   -0.55298129978214      0.04200277276254     -1.87802339552418
  N   0.99793239612727      1.23006820668566     -0.36091191370389
  H   1.51863715245925      0.83996301372988     -1.13962277401133
  H   1.58381576617578      1.90696466625716      0.10792980126802
  N   1.61473813517622     -0.96962989083092      0.57233465997150
  O   2.36119740779738     -1.10234765222474     -0.39267860191692
  O   1.58351579567960     -1.67312336929569      1.57557738805695
