16
Coordinates from ORCA-job run
  C   -0.82731696774837     -0.08255812814282      0.24561774638762
  C   0.62821357935865      0.35773462599855      0.39863851366956
  F   -1.35759286199144     -0.18012943162592      1.51499858126992
  H   0.66517398657584      1.19713274629379      1.09020412101896
  N   -1.56044114559326      1.12912989683164     -0.36795931775004
  O   -2.16744996123394      0.96390408194277     -1.41893400089217
  O   -1.48106321589635      2.16537214970765      0.27524408628787
  N   -1.04895592328872     -1.21151803912511     -0.51840402115946
  H   -0.25929638048639     -1.81477571265404     -0.67533150168926
  H   -1.67768228702062     -1.08744689890124     -1.29477279950090
  N   1.16968835728327      0.68972024138482     -0.86323882858727
  H   1.26395395817683     -0.11988869337404     -1.46113391964953
  H   2.05695095629660      1.16651305838164     -0.78425276365566
  N   1.35374162718844     -0.77884303217835      1.11903905702505
  O   1.56018297725581     -0.65383478098391      2.31973613982611
  O   1.68089330112368     -1.74051208355543      0.41954890739921
