16
Coordinates from ORCA-job run
  C   -0.73986378594159      0.09090426129478     -0.16688738302353
  C   0.68070633194897     -0.23322324607750      0.29648083768293
  F   -0.76426980757134      1.42023461288430     -0.54154396421450
  H   0.82214856203393     -1.31286551249690      0.26897573603804
  N   -1.10957470210655     -0.71053900302750     -1.41993303269785
  O   -0.82007238445021     -1.89740085724896     -1.38872339584370
  O   -1.71979962566648     -0.11737656410566     -2.29754129078712
  N   -1.66676159180161     -0.25062763303093      0.81451484075703
  H   -1.35001031403545      0.04390790933646      1.72839538912895
  H   -2.59723270476922      0.08062647296154      0.59618435597922
  N   0.89856007845898      0.29875372066004      1.59287622196818
  H   1.02994823577898      1.30212249844930      1.54398322754072
  H   1.71804379000773     -0.10736358737468      2.02215949815591
  N   1.64136836884272      0.33315453138435     -0.76180581678908
  O   2.50572853371649      1.11216556498265     -0.37728720786575
  O   1.46808101555464     -0.05347316859130     -1.91084801602944
