16
Coordinates from ORCA-job run
  C   -0.72776206739373     -0.26766863609613      0.27370118443542
  C   0.69310450800921      0.28216943403185      0.35158060178283
  F   -1.07399390489537     -0.92914056767003      1.40622728393280
  H   0.75616566201812      0.96611648090406      1.19517211677031
  N   -1.66071470097486      0.99222886011964      0.29063570770286
  O   -2.55831673821467      1.02517828076304     -0.54251698761781
  O   -1.44228049685207      1.82235245266338      1.16475486944048
  N   -0.92722892115997     -1.09027922910181     -0.83476285805660
  H   -0.80111522184539     -0.56629096009809     -1.69069517962110
  H   -1.85991336552787     -1.48418910855790     -0.82287354977940
  N   1.01573570203179      0.90364010665363     -0.88734238620558
  H   1.40219242429080      0.21049039881293     -1.51973331203922
  H   1.69917835900426      1.63720000519836     -0.76088613116730
  N   1.60989953416352     -0.88468561066120      0.70567838089953
  O   2.20604184843421     -1.42628818643021     -0.22026614971247
  O   1.66800737891203     -1.18983372053151      1.89132640923524
