16
Coordinates from ORCA-job run
  C   -0.69287918428781     -0.18465484713909      0.19212026168296
  C   0.76321901807603      0.24121367129060      0.37401682513685
  F   -1.06747457553007     -0.89591529732579      1.32584646969609
  H   0.84429222284165      0.84108149767422      1.27624039029662
  N   -1.59010085958121      1.05642736219892      0.25052459626775
  O   -2.74341685119422      0.89052395929930     -0.12744088988255
  O   -1.11650757187021      2.09046291889681      0.70926101070850
  N   -0.95120534144842     -0.82061944940483     -1.01670540495104
  H   -1.93707397835246     -1.01326216753140     -1.13553567244549
  H   -0.37577442077303     -1.64620977718571     -1.12423974303647
  N   1.34422420199321      0.88703345696224     -0.74699830691103
  H   1.36766607807835      1.88789557662333     -0.62878075672957
  H   0.88280552168020      0.63339458229199     -1.60963457818493
  N   1.55416323933159     -1.01891459263712      0.68589459793233
  O   2.17198102568549     -1.04471098458426      1.74284171671642
  O   1.54508147535091     -1.90374590942922     -0.16841051629646
