16
Coordinates from ORCA-job run
  C   -0.93059288806251      0.01097539174832      0.28163444028622
  C   0.58148721470665      0.06768690762642      0.63897302524601
  F   -1.56945355754673      0.50075410162074      1.36728430155392
  H   0.65497035473963     -0.29138415814059      1.66704337868758
  N   -1.14999636802057      0.97872611091269     -0.87164706464063
  O   -0.53445626244870      0.66727065515683     -1.89126787759477
  O   -1.87657746217101      1.94053952898558     -0.70719660075160
  N   -1.53977619723145     -1.20043896355094     -0.11023758899823
  H   -1.35621880357783     -1.92874022287048      0.56774857705618
  H   -1.20461066841465     -1.49983549559218     -1.01638846023973
  N   1.09334800388006      1.37726089062597      0.52120133332885
  H   1.94162549006042      1.49869756344763      1.05598468657478
  H   1.27731627617937      1.61399962995561     -0.44629518079010
  N   1.35133176698426     -0.98512614654091     -0.16587030305296
  O   1.13757105472590     -2.15640823694764      0.14190663793921
  O   2.12503204619716     -0.59397755643705     -1.03187330460474
