16
Coordinates from ORCA-job run
  C   -0.79530901179552      0.19537065129568     -0.07186498782506
  C   0.64804226395724     -0.22550986225996      0.25496541224161
  F   -0.83467147734732      1.55150049395421      0.02437729348581
  H   0.76679047966657     -1.28456297984466      0.02460858834865
  N   -1.12223983770585     -0.18051226919657     -1.51361845880473
  O   -1.22362442492007     -1.38672384190760     -1.71560625067439
  O   -1.24444764382110      0.72128937732861     -2.32469463512241
  N   -1.78551862748468     -0.38433391971738      0.74333417097685
  H   -1.44480389237916     -0.43895608532817      1.69571864350395
  H   -2.03538739044002     -1.30331663703600      0.40348623153591
  N   0.90089783852186      0.05646397440409      1.62096810545365
  H   1.74599436349874     -0.39615834629535      1.94132459795348
  H   0.99569890487555      1.05576620952249      1.75860479085656
  N   1.58969038268119      0.50071058937209     -0.71026792397028
  O   2.22913375600069      1.45014651892453     -0.27187096611521
  O   1.60975431669188      0.06982612678401     -1.85946461184440
