16
Coordinates from ORCA-job run
  C   -0.76888785559594     -0.01224431850321      0.17026487827914
  C   0.71476921248304     -0.02959074188747      0.58519581192276
  F   -1.41575290952256      0.76375652470761      1.13040310912023
  H   0.76433275632233     -0.62058028216242      1.50218073162562
  N   -1.03108756102192      0.76184112663427     -1.12443600961984
  O   -0.59998991652104      1.90828630367320     -1.15622325912982
  O   -1.69457835846546      0.21384316376868     -1.99441025646627
  N   -1.25390773393487     -1.30189918364442      0.01665708916479
  H   -2.17834158588787     -1.35067981125090     -0.38644757644395
  H   -1.16187415112964     -1.86217553031660      0.85135011548738
  N   1.40754048115486      1.19669892191939      0.77161870193079
  H   1.22855267692400      1.57070691626287      1.69218289993629
  H   1.14782902858583      1.87683075104130      0.07059958944715
  N   1.43702345438469     -0.84661618429828     -0.45289932449161
  O   1.51323561581550     -0.33535164909872     -1.56600342640940
  O   1.89213684640906     -1.93182600684530     -0.11003307435328
