15
Coordinates from ORCA-job run
  C   -0.46239878586572      0.40751561967698     -0.50507124483747
  C   0.80535706745562     -0.38509167485576     -0.19746299185997
  F   -0.43884717854257      0.86792792465785     -1.78695951970864
  H   0.82544866824958     -1.22929556605902     -0.88931407534064
  N   -0.66767811106907      1.45320278279247      0.38796913444713
  H   -1.55109850111769      1.91538877745842      0.21328674174382
  H   -0.64743776363946      1.09585511315262      1.33484804377372
  N   -1.64436825763288     -0.61985243602446     -0.53013221992136
  O   -2.72930543585588     -0.20605788914818     -0.13817144626330
  O   -1.41515980921128     -1.73502067128009     -0.98697776734853
  N   0.72014744899178     -0.85388355176086      1.18372144011861
  H   0.87048844103726     -1.85148272559051      1.23378588023954
  H   1.40337760097231     -0.39647002939823      1.77258243533662
  C   1.97869492082630      0.45419279010494     -0.45679582573115
  N   2.95277969540169      1.08407153627383     -0.63730858464838
