15
Coordinates from ORCA-job run
  C   -0.58754159069712      0.35703493986253     -0.51785827236034
  C   0.79428429694692     -0.28351215797384     -0.25933855545322
  F   -0.59962280969772      0.79339336771434     -1.80553667793390
  H   0.98639128026293     -0.98115109437693     -1.08204884338484
  N   -1.03021487359469      1.37865667230052      0.33161922577846
  H   -1.12777510557934      1.04232612001340      1.27950136956981
  H   -0.40686697046231      2.17506402226099      0.28771498298330
  N   -1.57036255374500     -0.81808415115884     -0.42809184156005
  O   -1.37913357356611     -1.70755278755809     -1.25286316485142
  O   -2.41902041961939     -0.80537265581355      0.45166492181347
  N   0.74859282879243     -0.92231899087779      1.05294006304926
  H   1.59158159736832     -0.75190359866463      1.58337059281429
  H   0.63512043684462     -1.92242565614684      0.94943067274854
  C   1.79316392398713      0.78336222307917     -0.29951670067108
  N   2.57140353275934      1.66248374733957     -0.29098777254229
