15
Coordinates from ORCA-job run
  C   -0.56500214600302      0.34926223674051     -0.43535496052425
  C   0.81171312684240     -0.29641119839437     -0.30704549421488
  F   -0.75516931445506      0.81962552468241     -1.69845211266686
  H   0.83150772024131     -1.13266254176641     -1.00858489353235
  N   -0.77205446295064      1.36119883945670      0.49787230835095
  H   -0.65112022559038      0.98999554268029      1.43176149903384
  H   -1.70122905167335      1.75310841433491      0.40879044190763
  N   -1.61116137240756     -0.81107070011526     -0.32835243839828
  O   -1.35125304302172     -1.85247672133400     -0.92183558570290
  O   -2.63375750970622     -0.57066367202700      0.30245917108007
  N   0.95412239199252     -0.77805819616490      1.06361885554347
  H   1.58960371102103     -0.19465309922139      1.59239852253411
  H   1.30708674733766     -1.72466083091742      1.07703566065336
  C   1.84262342203608      0.66930200299056     -0.70251605880611
  N   2.70509000633697      1.41916439905539     -0.97079491525780
