16

C	0.0	0.0	0.0
C	-0.152898	0.048352	-1.587405
Cl	1.84795	0.0	0.0
H	0.550414	-0.674508	-1.999645
N	-0.520753	1.161236	0.567958
H	-0.000394	2.003821	0.395743
H	-0.8026	1.039921	1.527041
N	-0.554904	-1.128152	0.633753
H	-0.342802	-1.973962	0.120676
H	-1.579294	-0.983382	0.614041
C	0.168749	1.374883	-2.093649
N	0.44516	2.459748	-2.448598
N	-1.466848	-0.420439	-2.173055
O	-1.648362	-1.629216	-2.068726
O	-2.15758	0.378504	-2.783897
Cl	-3.662103	0.0	0.0
