16

C	0.0	0.0	0.0
C	-0.206426	0.00534	-1.562279
Cl	1.849813	0.0	0.0
H	0.203963	0.951194	-1.919596
N	-0.541377	1.128361	0.654561
H	-1.567797	1.008964	0.609725
H	-0.262052	1.994844	0.212828
N	-0.519624	-1.147324	0.581507
H	-0.554822	-1.099727	1.58655
H	-0.176641	-2.014865	0.205879
C	-1.523862	-0.195927	-2.175235
N	-2.317419	-0.384025	-3.023852
N	0.648026	-1.041239	-2.265485
O	1.361172	-0.649412	-3.181316
O	0.534592	-2.204804	-1.893017
Cl	-3.591166	0.0	0.0
