16

C	0.0	0.0	0.0
C	-0.494467	0.194666	-1.451296
Cl	1.814306	0.0	0.0
H	-1.594031	0.18004	-1.390995
N	-0.427489	1.142399	0.75888
H	-1.451144	1.137539	0.731282
H	-0.132611	1.021157	1.721509
N	-0.438112	-1.319514	0.373369
H	-1.460804	-1.27656	0.40458
H	-0.099208	-1.531431	1.305524
C	-0.000601	-0.836832	-2.350652
N	0.391817	-1.654977	-3.095581
N	-0.116789	1.548427	-1.988114
O	-0.93362	2.446424	-1.823495
O	0.972934	1.657606	-2.546141
Cl	-3.485289	0.0	0.0
