16

C	-0.506034	0.011829	-1.439777
C	0.0	0.0	0.0
F	-0.167946	1.274857	-1.949271
H	1.100455	0.0	0.0
H	0.051124	-0.722577	-2.020548
C	-2.001409	-0.157422	-1.582225
H	-2.286198	0.003791	-2.62456
H	-2.516325	0.566056	-0.949722
H	-2.299628	-1.166145	-1.293977
N	-0.39012	-1.289204	0.646108
O	-0.669685	-1.275052	1.842305
O	-0.347025	-2.302495	-0.053608
N	-0.580887	1.097542	0.746971
H	-0.268817	1.936599	0.269162
H	-0.147136	1.106412	1.663126
Br	3.507705	0.0	0.0
