16

C	-0.441423	0.016781	-1.457331
C	0.0	0.0	0.0
F	-1.817057	0.305429	-1.529198
H	1.090685	0.0	0.0
H	0.074781	0.868752	-1.911491
C	-0.164744	-1.249312	-2.227244
H	-0.76177	-2.072986	-1.832502
H	-0.420928	-1.105771	-3.279338
H	0.892776	-1.50448	-2.136242
N	-0.50383	-1.28135	0.611622
O	0.230661	-2.266663	0.561177
O	-1.652425	-1.27876	1.054654
N	-0.470362	1.103909	0.778688
H	-1.340285	1.470871	0.420436
H	0.244257	1.8166	0.816344
Br	3.497772	0.0	0.0
