16

C	-0.502962	-0.049521	-1.450605
C	0.0	0.0	0.0
F	-0.290418	1.219244	-1.994361
H	1.09132	0.0	0.0
H	0.115727	-0.749979	-2.012659
C	-1.974843	-0.377395	-1.596541
H	-2.269683	-0.246875	-2.640009
H	-2.595	0.279803	-0.98158
H	-2.170612	-1.410877	-1.307954
N	-0.449665	-1.316796	0.597541
O	-1.286963	-1.320166	1.494752
O	0.01445	-2.325325	0.064081
N	-0.456605	1.09717	0.781278
H	-1.320283	1.49797	0.441528
H	0.265913	1.801896	0.796906
Br	3.503275	0.0	0.0
