16

C	-0.500248	0.096874	-1.434037
C	0.0	0.0	0.0
F	-0.302853	-1.132974	-2.063426
H	1.09067	0.0	0.0
H	-1.585	0.2667	-1.428224
C	0.253669	1.159296	-2.20078
H	1.325874	0.958514	-2.13448
H	0.057331	2.149941	-1.784158
H	-0.060052	1.153412	-3.24722
N	-0.556206	-1.278276	0.566597
O	0.208769	-2.177409	0.890033
O	-1.785845	-1.320036	0.658262
N	-0.43974	1.08111	0.836193
H	-1.285998	1.523976	0.50773
H	0.306121	1.751081	0.952732
Br	3.552068	0.0	0.0
