16

C	-0.478739	-0.002691	-1.440189
C	0.0	0.0	0.0
F	-1.883598	0.096262	-1.446701
H	1.091542	0.0	0.0
H	-0.099623	0.927857	-1.869319
C	-0.067173	-1.191475	-2.270479
H	-0.554287	-2.099341	-1.914723
H	-0.353996	-1.023507	-3.310986
H	1.014158	-1.324925	-2.201397
N	-0.447208	-1.315601	0.639217
O	-1.477787	-1.301623	1.315854
O	0.218161	-2.320305	0.4059
N	-0.509414	1.135454	0.689123
H	-1.502115	1.02429	0.848245
H	-0.036628	1.237277	1.576698
Br	3.511631	0.0	0.0
