16

C	-0.500091	0.103592	-1.433629
C	0.0	0.0	0.0
F	-0.30343	-1.12315	-2.068734
H	1.090683	0.0	0.0
H	-1.584436	0.274	-1.427076
C	0.253985	1.169022	-2.195311
H	1.325958	0.968819	-2.128914
H	0.056425	2.157642	-1.774806
H	-0.058455	1.16686	-3.242015
N	-0.556613	-1.280344	0.560876
O	0.207937	-2.181006	0.881304
O	-1.78634	-1.322017	0.651676
N	-0.439348	1.077364	0.841052
H	-1.286573	1.520848	0.51574
H	0.30621	1.747209	0.96016
Br	3.551773	0.0	0.0
