13
Coordinates from ORCA-job run
  C   -0.37421497360186     -0.18429815627601     -0.18498659890364
  C   1.13191941750202      0.03854019637477     -0.17627048860292
  Cl  -1.10187484371544      0.69045579048045     -1.59372304649209
  H   1.52832935222820     -0.38014375848543      0.75103352563985
  H   1.55034041402495     -0.52813514276225     -1.01375399946397
  N   -1.02335414740211      0.43395947918234      1.05554789859170
  O   -2.20276623490159      0.15618586646220      1.22421615973056
  O   -0.32002750813740      1.12764416094905      1.77828193798637
  N   -0.67422485838590     -1.55850146377340     -0.11878473621907
  H   -0.30378916201169     -2.05787921915961     -0.91695294973952
  H   -1.67500567486466     -1.70387549227516     -0.05369334238044
  C   1.54198429757409      1.43220356512355     -0.30961383432601
  N   1.92168392169139      2.53384417415950     -0.44230052582083
