13
Coordinates from ORCA-job run
  C   -0.45637982461991     -0.22409381992047     -0.38102901600653
  C   0.73458222686337      0.64383717075044     -0.76932900554006
  Cl  -1.66204225587216     -0.18476867309543     -1.68479996264321
  H   0.40039359850465      1.66079570853983     -0.97033166660965
  H   1.16952516269893      0.22106649200538     -1.67735134689728
  N   -1.18135777794698      0.46706371467083      0.82630052256899
  O   -1.72116835162454     -0.28725770183663      1.62541725317805
  O   -1.17159163214473      1.69022901099518      0.86335425018903
  N   -0.08850019922129     -1.54822810156922     -0.10648084485015
  H   -0.88603955659819     -2.09921968542105      0.18508103278753
  H   0.63255613046036     -1.59002900237310      0.60542535758482
  C   1.72717710123920      0.64786968337212      0.30199599937000
  N   2.50284537826129      0.60273520388210      1.18174742686847
