13
Coordinates from ORCA-job run
  C   -0.39903135975523     -0.04213021168881     -0.11977560752315
  C   0.88599082610691      0.73809562904519      0.13143452485668
  Cl  -1.07777631404245      0.47504484667023     -1.73060200193430
  H   1.18084259228396      0.58611218873744      1.17277901822688
  H   0.71656032883332      1.80195663626900     -0.02974323935174
  N   -1.46332317356928      0.39928650899415      0.88754571428503
  O   -1.29044614426007      1.47041413377142      1.45503348173106
  O   -2.41612169001634     -0.35566944442483      1.02105233954114
  N   -0.22721952867511     -1.42010126619398      0.04779039857437
  H   0.47718731429038     -1.79377038432370     -0.57566687150834
  H   -1.10107378433997     -1.92033853459907     -0.05432784870580
  C   1.93974541508527      0.24755522056283     -0.75052123415555
  N   2.77366551805863     -0.18445532281988     -1.45399867403630
