13
Coordinates from ORCA-job run
  C   -0.37156611074128     -0.23399773092851     -0.35811657215789
  C   1.11648356223430      0.10337302595633     -0.28769961844943
  Cl  -1.11100396669656      0.46607908176612     -1.78662759936240
  H   1.54333788524372     -0.39453145203276      0.58746531131274
  H   1.58618173117484     -0.30388406329112     -1.18524980152810
  N   -1.00846058246568      0.42706001547495      0.91450580357846
  O   -1.74451041695146      1.39383388369333      0.81591554598333
  O   -0.65554519503402     -0.12826505782103      1.95317599071868
  N   -0.54520166564404     -1.63925747072610     -0.35480596187390
  H   -1.51035583736485     -1.89321794400021     -0.52700611417599
  H   -0.24217283379968     -2.02423985226645      0.53231191406733
  C   1.36558921577319      1.53787482670872     -0.19273100490820
  N   1.57622421427149      2.68917273746672     -0.11113789320464
