14

C	-0.451004	-0.000503	-1.442741
C	0.0	0.0	0.0
Br	-2.534689	0.248383	-1.459199
H	1.093977	0.0	0.0
H	-0.353937	0.896844	0.505701
N	-0.03237	1.28452	-2.152567
O	0.085907	1.212249	-3.369913
O	0.11192	2.283283	-1.464707
N	-0.011178	-1.073336	-2.163768
H	-0.261083	-1.081101	-3.139509
H	-0.06404	-1.964018	-1.694567
C	-0.487414	-1.196934	0.669538
N	-0.868355	-2.18557	1.176207
Br	3.425226	0.0	0.0
