14

C	-0.33104	0.058273	-1.496039
C	0.0	0.0	0.0
Br	-0.050102	-1.667686	-2.317074
H	1.092861	0.0	0.0
H	-0.311373	0.956529	0.43485
N	-1.804457	0.473895	-1.640772
O	-2.660587	-0.347201	-1.934616
O	-2.008262	1.657485	-1.372779
N	0.445332	1.034063	-2.201844
H	1.427644	0.795558	-2.055943
H	0.286187	1.935358	-1.761588
C	-0.603271	-1.092085	0.741534
N	-1.116368	-1.948676	1.359717
Br	3.430019	0.0	0.0
