14

C	-0.422311	-0.001037	-1.469164
C	0.0	0.0	0.0
Br	0.096218	-1.694269	-2.270255
H	1.092918	0.0	0.0
H	-0.37024	-0.886267	0.51668
N	-1.958039	0.064045	-1.505673
O	-2.4707	1.058171	-2.00823
O	-2.55659	-0.852622	-0.956036
N	0.097005	1.052679	-2.26545
H	-0.261414	1.938524	-1.927037
H	1.108853	1.041848	-2.164907
C	-0.496673	1.208974	0.64698
N	-0.906529	2.199739	1.127271
Br	3.451623	0.0	0.0
