18

C	-0.298511	-0.009832	-1.512078
C	0.0	0.0	0.0
Br	-2.20159	0.364969	-1.88471
H	1.091616	0.0	0.0
N	0.491956	0.962905	-2.225566
H	0.319427	1.880578	-1.833545
H	1.473378	0.739873	-2.045537
C	0.038359	-1.390992	-2.049698
H	-0.038928	-1.350015	-3.136286
H	1.067095	-1.632858	-1.762793
H	-0.631917	-2.159572	-1.664701
N	-0.543358	-1.19303	0.699287
O	-1.744422	-1.186988	0.965653
O	0.234401	-2.122144	0.899308
N	-0.420982	1.209831	0.766094
O	-0.536796	1.079553	1.98001
O	-0.533174	2.266521	0.149065
Br	3.352732	0.0	0.0
