18

C	-0.512957	0.127028	-1.457022
C	0.0	0.0	0.0
Br	-0.258322	-1.686849	-2.226128
H	1.116683	0.0	0.0
N	-1.892007	0.482215	-1.637745
H	-2.474805	-0.06022	-1.012209
H	-1.9983	1.46863	-1.432356
C	0.392685	1.04819	-2.258552
H	0.260711	2.076381	-1.922513
H	0.117934	0.971158	-3.311526
H	1.437444	0.769786	-2.114799
N	-0.545108	-1.191169	0.713138
O	0.242128	-1.924956	1.294541
O	-1.768777	-1.337329	0.670886
N	-0.419957	1.171115	0.845059
O	-0.431732	2.275799	0.305543
O	-0.667918	0.959808	2.02777
Br	3.392987	0.0	0.0
