17
Coordinates from ORCA-job run
  C   0.50020244735734     -0.28529065002659     -0.31588412120047
  C   -0.88292570563452      0.15204213647545      0.16998513868858
  H   0.52997548237894     -1.36993963220847     -0.17197125241787
  H   -0.97279955955927      1.24586202121451      0.15603833935033
  C   1.62016916227465      0.37340378335763      0.48225768220769
  H   2.59016207629956      0.06220336093462      0.08716035512912
  H   1.58875478029865      0.09969995581249      1.53902409118281
  H   1.55644177441917      1.46386474612638      0.41058981606269
  N   0.54758903085210     -0.03776256425164     -1.75773610598488
  H   0.74283772581587      0.94281449832560     -1.93201812084446
  H   1.30086056543066     -0.57206068940200     -2.17277369805938
  N   -0.95010730880482     -0.17384354612351      1.65057926181782
  O   -1.09668318586054      0.77694993933807      2.42005815347442
  O   -0.82242811591013     -1.34752702230409      1.97810126508117
  N   -1.90472628181545     -0.56226512327719     -0.52208338307799
  H   -1.57749389052054     -0.72877870648562     -1.46662891462708
  H   -2.76982899702164     -0.04037250750564     -0.55369850678251
