17
Coordinates from ORCA-job run
  C   0.46218125541432      0.17232029320752     -0.49190061407045
  C   -0.91041901308746     -0.22383356734664      0.07835958637872
  H   0.28467779213745      0.67092914286768     -1.45814825866553
  H   -1.35630236345997     -1.01782250995191     -0.52235747881892
  C   1.29180758516776     -1.08036873678753     -0.72953522390866
  H   2.28122420804504     -0.81732792445744     -1.11333285303213
  H   0.81398089546901     -1.73660904284171     -1.46046466053690
  H   1.42662041760659     -1.62428365916080      0.20745781645105
  N   1.14436246781503      1.01963892258044      0.48139887605153
  H   0.66053782390071      1.90452477718170      0.58061624406727
  H   2.09123087295059      1.20343039430919      0.17451814576274
  N   -1.83698686675127      0.95976253674061     -0.17844333921489
  O   -1.65466079617931      1.96988916563043      0.49611813423050
  O   -2.66949547783102      0.83860748224233     -1.07489475041249
  N   -0.90235458521546     -0.53137074568075      1.46327572186507
  H   -1.08024122787059     -1.50392768705626      1.65181579997668
  H   -0.04816298811143     -0.20355884147686      1.89551685387642
