13

C	-0.530962	0.011782	-1.417747
C	0.0	0.0	0.0
F	-1.920763	0.121839	-1.396059
H	1.091873	0.0	0.0
H	-0.378497	-0.874488	0.526908
C	-0.009902	1.092222	-2.272451
N	0.350327	1.897233	-3.046777
C	-0.207931	-1.281983	-2.050203
N	0.026971	-2.312321	-2.562229
N	-0.476669	1.186173	0.750293
O	-0.521027	2.260144	0.156362
O	-0.762768	1.010847	1.931917
Br	3.350206	0.0	0.0
