13

C	-0.531344	0.015256	-1.417952
C	0.0	0.0	0.0
F	-1.920635	0.098944	-1.401403
H	1.091826	0.0	0.0
H	-0.369215	-0.880993	0.523474
C	-0.023939	1.111062	-2.263166
N	0.318189	1.92719	-3.035399
C	-0.180315	-1.267182	-2.059525
N	0.07201	-2.288413	-2.580987
N	-0.474872	1.178373	0.76265
O	-0.641145	1.016397	1.968446
O	-0.63901	2.234055	0.153323
Br	3.348107	0.0	0.0
