13

C	-0.498882	-0.006399	-1.436492
C	0.0	0.0	0.0
F	0.076933	-1.01179	-2.169031
H	1.089641	0.0	0.0
H	-0.343854	0.892166	0.525138
C	-1.971738	-0.133634	-1.518751
N	-3.144353	-0.157673	-1.579831
C	-0.13711	1.288338	-2.053452
N	0.116376	2.31627	-2.561504
N	-0.486166	-1.169868	0.769994
O	-0.956459	-2.124595	0.150832
O	-0.354462	-1.100978	1.987321
Br	3.362728	0.0	0.0
