13

C	-0.532679	-0.017425	-1.417643
C	0.0	0.0	0.0
F	-1.924205	-0.0882	-1.392436
H	1.09187	0.0	0.0
H	-0.370988	0.883708	0.517413
C	-0.179785	1.265496	-2.058567
N	0.01681	2.308961	-2.557587
C	-0.044088	-1.118353	-2.265749
N	0.301438	-1.939308	-3.030257
N	-0.477516	-1.173613	0.766045
O	-0.664227	-1.002962	1.967976
O	-0.625517	-2.23571	0.164415
Br	3.34897	0.0	0.0
