13

C	-0.480631	0.062332	-1.441645
C	0.0	0.0	0.0
F	0.21421	-0.798887	-2.250561
H	1.10471	0.0	0.0
H	-0.363669	0.850222	0.575722
C	-1.925714	-0.239051	-1.570249
N	-3.079165	-0.430629	-1.680835
C	-0.275518	1.439083	-1.941206
N	-0.149713	2.524447	-2.369948
N	-0.464658	-1.225135	0.684561
O	-0.577869	-1.1587	1.90657
O	-0.656933	-2.230461	-0.000318
Br	3.353566	0.0	0.0
