13

C	-0.503245	0.014158	-1.436575
C	0.0	0.0	0.0
F	0.167449	0.926474	-2.207286
H	1.104586	0.0	0.0
H	-0.357974	-0.88087	0.533139
C	-0.29363	-1.333718	-2.008869
N	-0.177018	-2.412527	-2.458607
C	-1.953562	0.300819	-1.513459
N	-3.114972	0.469355	-1.561947
N	-0.458216	1.187404	0.758889
O	-0.72048	2.210222	0.126415
O	-0.497897	1.070722	1.979494
Br	3.360944	0.0	0.0
