13

C	-0.536757	0.080331	-1.413404
C	0.0	0.0	0.0
F	-1.928575	0.144952	-1.386919
H	1.106953	0.0	0.0
H	-0.36601	-0.906355	0.481391
C	-0.048483	1.223704	-2.204574
N	0.285858	2.084341	-2.930022
C	-0.177844	-1.165462	-2.117866
N	0.033574	-2.175308	-2.678117
N	-0.472198	1.139201	0.821718
O	-0.660233	2.218097	0.263392
O	-0.607726	0.92324	2.022969
Br	3.34797	0.0	0.0
