13

C	-0.454451	0.174007	-1.45252
C	0.0	0.0	0.0
F	0.099415	1.308744	-2.02726
H	1.105519	0.0	0.0
H	-0.377345	-0.918945	0.448133
C	-0.018919	-0.957271	-2.304678
N	0.168558	-1.656926	-3.258598
C	-1.913297	0.267331	-1.685272
N	-3.005769	0.313871	-2.180603
N	-0.429366	1.12018	0.892383
O	-0.658821	0.818491	2.008117
O	-0.447533	2.272933	0.380312
Br	3.342	0.0	0.0
