13

C	-0.526506	-0.190791	-1.418162
C	0.0	0.0	0.0
F	-0.212792	0.970138	-2.105414
H	1.096946	0.0	0.0
H	-0.366836	0.948966	0.391182
C	0.066316	-1.326772	-2.14268
N	0.49033	-2.198933	-2.804775
C	-1.999083	-0.321959	-1.435891
N	-3.172323	-0.359572	-1.440796
N	-0.471062	-1.072113	0.899493
O	-0.802541	-2.143272	0.384329
O	-0.467842	-0.830241	2.100754
Br	3.356022	0.0	0.0
