13

C	-0.518056	0.036426	-1.433308
C	0.0	0.0	0.0
F	-0.19834	1.291696	-1.924791
H	1.105003	0.0	0.0
H	-0.367796	0.874917	0.535342
C	0.080541	-0.970768	-2.325383
N	0.505445	-1.725377	-3.118529
C	-1.990423	-0.090699	-1.486867
N	-3.163256	-0.136315	-1.524359
N	-0.471658	-1.20152	0.715023
O	-0.468176	-1.155942	1.939947
O	-0.803003	-2.175898	0.034132
Br	3.352719	0.0	0.0
