13

C	-0.52792	0.048475	-1.418846
C	0.0	0.0	0.0
F	-1.917989	-0.041451	-1.408607
H	1.10388	0.0	0.0
H	-0.372731	0.855509	0.561163
C	-0.18256	1.361362	-1.999
N	0.026632	2.422013	-2.457907
C	-0.015836	-1.00448	-2.313512
N	0.34824	-1.77932	-3.116422
N	-0.476892	-1.213156	0.703414
O	-0.586489	-2.24982	0.052277
O	-0.699083	-1.097729	1.905398
Br	3.346067	0.0	0.0
