13

C	-0.499658	0.082036	-1.434477
C	0.0	0.0	0.0
F	0.126571	-0.829069	-2.244876
H	1.08838	0.0	0.0
H	-0.352286	0.849991	0.585025
C	-1.964052	-0.119849	-1.530827
N	-3.132849	-0.216426	-1.604789
C	-0.21294	1.441045	-1.943663
N	-0.037085	2.526244	-2.356495
N	-0.47176	-1.225834	0.686973
O	-0.844673	-2.173433	-0.005185
O	-0.415866	-1.211625	1.912816
Br	3.358757	0.0	0.0
