13

C	-0.495512	0.253963	-1.414475
C	0.0	0.0	0.0
F	0.063209	1.384982	-1.951889
H	1.106151	0.0	0.0
H	-0.338278	-0.972831	0.359751
C	-0.107108	-0.902767	-2.250376
N	0.154497	-1.825582	-2.927639
C	-1.97017	0.366253	-1.482639
N	-3.142669	0.378905	-1.549752
N	-0.493184	1.01324	0.961573
O	-0.993437	2.048211	0.519503
O	-0.339628	0.743216	2.14785
Br	3.361299	0.0	0.0
