13

C	-0.502703	0.042186	-1.434802
C	0.0	0.0	0.0
F	0.104469	1.03415	-2.159318
H	1.089649	0.0	0.0
H	-0.350104	-0.898226	0.509688
C	-0.190367	-1.258658	-2.066461
N	0.033452	-2.290126	-2.580654
C	-1.970911	0.224039	-1.50959
N	-3.140562	0.300669	-1.577104
N	-0.472795	1.161204	0.792122
O	-0.886385	2.150968	0.187898
O	-0.383924	1.051334	2.010353
Br	3.363517	0.0	0.0
