13

C	-0.534005	0.077961	-1.415048
C	0.0	0.0	0.0
F	-1.924909	0.154831	-1.389441
H	1.089317	0.0	0.0
H	-0.372051	-0.902306	0.483688
C	-0.036071	1.212925	-2.212917
N	0.303083	2.055736	-2.956796
C	-0.182051	-1.173644	-2.114883
N	0.025314	-2.185029	-2.674434
N	-0.473565	1.145576	0.81311
O	-0.658016	0.927872	2.007028
O	-0.617292	2.230159	0.253941
Br	3.348199	0.0	0.0
