15

C	0.0	0.0	0.0
C	-0.485786	-0.252044	-1.461864
Br	1.960286	0.0	0.0
H	-1.59024	-0.202178	-1.369609
N	-0.455707	1.310162	0.350906
H	-1.478583	1.285151	0.29547
H	-0.206656	1.469549	1.322145
N	-0.426877	-1.010169	0.924494
H	-1.449433	-0.97837	0.93644
H	-0.118319	-1.934003	0.64007
C	-0.122371	-1.589858	-1.923319
N	0.141963	-2.675353	-2.285728
C	-0.028946	0.76194	-2.409526
N	0.313736	1.563685	-3.196308
Cl	-3.470708	0.0	0.0
