15

C	0.0	0.0	0.0
C	-0.385038	-0.293219	-1.507569
Br	1.985447	0.0	0.0
H	0.535103	-0.162608	-2.086537
N	-0.395342	1.352725	0.288251
H	-1.421536	1.339673	0.271258
H	-0.097066	1.592554	1.2279
N	-0.427704	-1.076839	0.837701
H	-0.158377	-0.869683	1.793471
H	-1.454024	-1.062851	0.784298
C	-1.309092	0.654525	-2.148622
N	-1.855435	1.411843	-2.86151
C	-0.793002	-1.680946	-1.746365
N	-1.023133	-2.792489	-2.046257
Cl	-3.336041	0.0	0.0
