15

C	0.0	0.0	0.0
C	-0.412874	-0.141719	-1.48047
Cl	1.756291	0.0	0.0
H	-0.065303	0.759863	-1.985509
N	-0.434919	1.369842	0.527674
O	-0.553254	1.465887	1.736762
O	-0.508618	2.272973	-0.291229
C	-0.46175	-1.047561	0.899655
N	-0.591864	-1.91899	1.67809
C	-1.828928	-0.388085	-1.802137
N	-2.600724	-0.67379	-2.654635
N	0.369911	-1.266835	-2.115891
O	1.022166	-0.989877	-3.119809
O	0.271211	-2.374998	-1.601131
F	-2.348262	0.0	0.0
