15

C	-0.582545	0.07509	-1.397205
C	0.0	0.0	0.0
F	-0.364056	-1.095775	-2.125488
H	1.095056	0.0	0.0
H	-1.670943	0.216493	-1.341178
C	-0.02954	1.204486	-2.166802
N	0.376016	2.112655	-2.788968
C	-0.507718	-1.23204	0.722106
H	-1.600699	-1.214776	0.861104
H	-0.028608	-1.283196	1.704431
H	-0.241477	-2.138845	0.175447
N	-0.41977	1.258717	0.649975
H	0.434177	1.708531	0.958125
H	-0.980548	1.06627	1.471139
F	2.654861	0.0	0.0
