15

C	-0.58429	0.040206	-1.398851
C	0.0	0.0	0.0
F	-0.26588	-1.095323	-2.139741
H	1.10078	0.0	0.0
H	-1.681598	0.093256	-1.340177
C	-0.126266	1.224314	-2.153946
N	0.210123	2.139721	-2.808411
C	-0.516592	-1.216851	0.739329
H	-0.000967	-1.290138	1.701987
H	-1.602122	-1.164198	0.917267
H	-0.293594	-2.126636	0.178748
N	-0.479856	1.253032	0.633571
H	0.316449	1.887274	0.607734
H	-0.64376	1.067233	1.617695
F	2.663998	0.0	0.0
