15

C	-0.405368	0.034283	-1.446356
C	0.0	0.0	0.0
F	-1.804808	0.128672	-1.613574
H	1.096459	0.0	0.0
H	0.029792	0.925662	-1.901128
C	0.019205	-1.160047	-2.198979
N	0.296584	-2.109571	-2.830304
C	-0.517675	-1.230357	0.730347
H	-1.615152	-1.274924	0.744146
H	-0.137328	-2.14938	0.275376
H	-0.156284	-1.204032	1.762007
N	-0.422482	1.272837	0.594037
H	0.266159	1.51061	1.298562
H	-1.326619	1.176408	1.04587
F	2.637578	0.0	0.0
