15

C	-0.585564	0.048638	-1.397036
C	0.0	0.0	0.0
F	-0.369085	-1.134586	-2.10546
H	1.095069	0.0	0.0
H	-1.673901	0.190406	-1.342012
C	-0.033927	1.163416	-2.189106
N	0.37922	2.058123	-2.826023
C	-0.504327	-1.218606	0.747387
H	-1.594186	-1.192274	0.903721
H	-0.009972	-1.259034	1.721587
H	-0.253783	-2.134501	0.209969
N	-0.416481	1.2703	0.628145
H	-0.995002	1.093779	1.440749
H	0.437152	1.714334	0.946365
F	2.653003	0.0	0.0
