15

C	-0.583075	0.059772	-1.396751
C	0.0	0.0	0.0
F	-0.363868	-1.119018	-2.112627
H	1.10078	0.0	0.0
H	-1.672258	0.200677	-1.345117
C	-0.032426	1.18008	-2.182514
N	0.341406	2.061046	-2.861012
C	-0.504781	-1.223423	0.738695
H	-0.009849	-1.271895	1.712284
H	-0.255922	-2.136094	0.194233
H	-1.594739	-1.197179	0.896184
N	-0.412624	1.267084	0.634973
H	0.437601	1.697885	0.981029
H	-1.018238	1.091371	1.428984
F	2.652416	0.0	0.0
