15

C	-0.583146	0.110748	-1.394067
C	0.0	0.0	0.0
F	-0.370129	-1.043193	-2.15018
H	1.095046	0.0	0.0
H	-1.671032	0.254306	-1.334669
C	-0.024396	1.255253	-2.137175
N	0.398689	2.176367	-2.728012
C	-0.506084	-1.250496	0.691662
H	-1.596451	-1.230164	0.848621
H	-0.256046	-2.142287	0.113643
H	-0.011674	-1.33476	1.663427
N	-0.416925	1.241928	0.682332
H	0.434934	1.671132	1.024837
H	-1.000578	1.030825	1.483381
F	2.653869	0.0	0.0
