15

C	-0.416674	-0.003622	-1.448898
C	0.0	0.0	0.0
F	-0.051281	1.19363	-2.065868
H	1.102769	0.0	0.0
H	0.110409	-0.807777	-1.9713
C	-1.873773	-0.165091	-1.647724
N	-3.023452	-0.347175	-1.802001
C	-0.490095	-1.258092	0.691783
H	-0.054645	-1.299986	1.694452
H	-0.142593	-2.150559	0.162509
H	-1.582386	-1.287867	0.778934
N	-0.592651	1.191325	0.639319
H	-0.093387	1.986482	0.25053
H	-0.302039	1.15898	1.612636
F	2.68311	0.0	0.0
