16

C	-0.193574	-0.0836	-1.503346
C	0.0	0.0	0.0
Br	-2.092902	-0.738505	-2.02333
H	1.099902	0.0	0.0
C	-0.149719	1.236849	-2.147123
N	-0.050546	2.257983	-2.724151
N	0.766709	-1.000647	-1.996067
H	0.887608	-0.91611	-2.997862
H	1.662477	-0.810417	-1.492768
C	-0.395399	-1.269659	0.746206
H	-1.477536	-1.356334	0.86126
H	-0.018357	-2.130794	0.193717
H	0.07888	-1.256571	1.731068
C	-0.56208	1.189003	0.600997
N	-1.018495	2.133016	1.134654
H	2.622733	0.0	0.0
