16

C	-0.194955	-0.095242	-1.502606
C	0.0	0.0	0.0
Br	-2.090088	-0.775349	-2.015328
H	1.099879	0.0	0.0
C	-0.16861	1.220786	-2.15554
N	-0.071612	2.249168	-2.720606
N	0.773319	-1.005495	-1.99068
H	1.667615	-0.810829	-1.484983
H	0.898094	-0.922235	-2.991717
C	-0.391444	-1.265291	0.755793
H	0.085412	-1.244575	1.739394
H	-0.013684	-2.12958	0.208905
H	-1.473047	-1.353357	0.874255
C	-0.564042	1.19141	0.593725
N	-1.024381	2.136032	1.122781
H	2.622324	0.0	0.0
