15
Coordinates from ORCA-job run
  C   0.61349553513331     -0.38782023422802     -0.45729461522533
  C   -0.32948883917105      0.57690576359642      0.28470084260086
  F   -0.04491838753947     -0.89114124655272     -1.55850783136512
  H   0.21105907198555      0.95113639748177      1.16355290912320
  C   1.80477537232427      0.34023350817821     -0.96714348248105
  N   2.79526557091537      0.87980302347401     -1.29724995667303
  N   0.93956821524846     -1.50161007878858      0.38347585002195
  H   1.42280868767600     -1.19316237082363      1.21905296834549
  H   1.54152826933886     -2.14583212690123     -0.11771782543601
  C   -1.62145624982652     -0.12241924757222      0.71857362841039
  H   -2.16217215736493     -0.48209969982003     -0.15630787420801
  H   -1.39192944848609     -0.96992973467131      1.36185973954953
  H   -2.25677754617114      0.58158269515922      1.25777437822864
  C   -0.62461122576151      1.72550018936611     -0.57470957396667
  N   -0.89614686830113      2.63985316210200     -1.25905915692484
