15
Coordinates from ORCA-job run
  C   0.66494088094465     -0.59889273556998     -0.08352925608646
  C   -0.41232995727854      0.30852227727161      0.53537789356661
  F   0.21794952628366     -1.91816050323418      0.13263817315666
  H   -0.41880787495364      0.06758943965892      1.60656466944245
  C   0.73113065207303     -0.42152248867524     -1.54696734752830
  N   0.76208190849192     -0.28850481423834     -2.71285664320878
  N   1.92865258397872     -0.35179406712251      0.48416189677357
  H   2.65357379616106     -0.92552189548501      0.07317876106731
  H   1.91530365102537     -0.46709711118143      1.48962594873158
  C   -1.80332523961415      0.05272468087186     -0.04923037535610
  H   -2.06952838942990     -0.99687838886547      0.07086236334836
  H   -2.54109905191318      0.66674976328870      0.46895776835900
  H   -1.82776877098166      0.30946286179294     -1.10983342694836
  C   -0.02733184384290      1.71200004732851      0.38360812791359
  N   0.22555812905556      2.85132293415962      0.25644144676887
