15
Coordinates from ORCA-job run
  C   0.62101519528243     -0.67540459416250      0.00023732523517
  C   -0.48355505944196      0.23348860835532      0.56557936940928
  F   0.19457521091189     -1.98193572081055      0.15743413156611
  H   -0.56289995545018     -0.05635541198839      1.61947599841008
  C   0.77038283743782     -0.46173404297640     -1.46293274258794
  N   0.92983547656671     -0.26390129232135     -2.61017630852759
  N   1.82741418611771     -0.52722960851495      0.74599279810235
  H   2.57481178968791     -1.07262484959124      0.33307789429654
  H   2.11549456811898      0.44232111170387      0.80017315186752
  C   -1.82396213306012      0.03704733654050     -0.14439904904683
  H   -2.10694338286306     -1.01491184965396     -0.10694118691887
  H   -2.59632488647695      0.62541116164242      0.35266216466470
  H   -1.76489140069028      0.35455469177404     -1.18684981504511
  C   -0.03784603816563      1.62512238236965      0.50196037476599
  N   0.34289359202473      2.73415207763356      0.43470589380862
