15
Coordinates from ORCA-job run
  C   0.72263074511181     -0.32373810634358     -0.39226011609087
  C   -0.31724102433625      0.63165760126522      0.22207437964791
  F   0.13760301070509     -0.89101807699056     -1.53514618178914
  H   0.19134158652385      1.17179936403121      1.02770909532296
  C   1.90448748572377      0.43206859112306     -0.85057491591379
  N   2.84873556099521      1.03666966643695     -1.19831646913017
  N   1.13221213485153     -1.29832431115414      0.54798412877592
  H   1.89899215031567     -1.85302931009003      0.18821748997082
  H   0.36293834496545     -1.91031436258425      0.78874404068930
  C   -1.53012120805543     -0.11653210451844      0.78534134567770
  H   -2.29277094688643      0.59835359747538      1.09577690547953
  H   -1.24779206866219     -0.70110818358351      1.66250108047496
  H   -1.96206380143420     -0.76982439424593      0.02571059500533
  C   -0.73868063407906      1.60639992719752     -0.78659563101059
  N   -1.10927133573881      2.38794010198110     -1.58016574710985
