15
Coordinates from ORCA-job run
  C   0.64168324268355     -0.36134901296925     -0.43921247850139
  C   -0.34940804826190      0.56085973206588      0.29396490299377
  F   0.05260741288046     -0.81028025378671     -1.60129231232256
  H   0.13725795348514      0.89360689825382      1.21963709883392
  C   1.85606079170820      0.39674842091597     -0.83924586629556
  N   2.85788828447335      0.96103823438062     -1.08185514648168
  N   0.92522513443956     -1.51615877462607      0.36118755796055
  H   1.36971463349076     -1.25057854242475      1.23220153289703
  H   1.54911593445318     -2.13669181419479     -0.14277683829587
  C   -1.65869456064153     -0.16535810635977      0.61779513938494
  H   -2.14233439260212     -0.48914258471232     -0.30345680202857
  H   -2.33179131989739      0.50997324489141      1.14790939674227
  H   -1.46028199742469     -1.03930098572596      1.23568738418684
  C   -0.60399350008531      1.74889244142149     -0.52374008341498
  N   -0.84304956870125      2.69674110287044     -1.17380348565871
