15
Coordinates from ORCA-job run
  C   0.86700902555849     -0.44289952069670      0.19187231534043
  C   -0.47440717983655      0.10856618408130      0.69694312742066
  F   1.70775082169516     -0.59247063858834      1.27388964684163
  H   -0.83714519673958     -0.61271167810778      1.43819581676404
  C   0.65203820005735     -1.80736245847093     -0.36476030973839
  N   0.46951610182296     -2.85477054286058     -0.86541368237402
  N   1.50044574030635      0.46538356262406     -0.70918179211664
  H   0.93947177002198      0.62743993979797     -1.53523107622465
  H   2.40590800628068      0.10722753389365     -0.98984550203302
  C   -1.51692195058631      0.27042555344285     -0.41348244777435
  H   -2.47416106411305      0.55992575881432      0.02158524090617
  H   -1.22647435264968      1.05407938780004     -1.11554431997245
  H   -1.65686734959267     -0.66920149875179     -0.95211260855989
  C   -0.24079479174394      1.37914627334611      1.38642190382378
  N   -0.11636778048119      2.40822214367581      1.93666368769669
