15
Coordinates from ORCA-job run
  C   0.66123411592117     -0.60187373784428     -0.08885666069622
  C   -0.42139850740541      0.29497096455559      0.53644683344850
  F   0.19853445273477     -1.92334257116610      0.07463445585493
  H   -0.45223153926551      0.01982995520355      1.59893650518541
  C   0.76070641822796     -0.37754089623498     -1.54385884499881
  N   0.81954270731577     -0.20535960883353     -2.70353740999394
  N   1.91442278300683     -0.38472019868691      0.51322119859807
  H   1.87917762703145     -0.53322023771667      1.51375827509175
  H   2.64394575501936     -0.94940611465820      0.09818390149616
  C   -1.80187655956984      0.07041552039841     -0.08450750627726
  H   -1.80127971723404      0.35728680683251     -1.13761816535623
  H   -2.54445936454578      0.67698562247321      0.43540118542407
  H   -2.08073007318575     -0.97937711010507     -0.00038345435968
  C   -0.02073153397013      1.69875989217607      0.43728368205254
  N   0.24614343591915      2.83859171360639      0.34989600453071
