15
Coordinates from ORCA-job run
  C   0.62730473591129     -0.39384816631929     -0.43388326802136
  C   -0.34798385740268      0.58157336295150      0.25021791188781
  F   -0.00978516808553     -0.97716257105207     -1.50739874980244
  H   0.17771986678481      1.02343811487967      1.10636966974292
  C   1.79833006392402      0.34246667053450     -0.97792198522589
  N   2.76972579053262      0.90016368554116     -1.33323382907059
  N   0.98269375140738     -1.44931553786111      0.46833758171507
  H   1.59891833978686     -2.10567022580390      0.00160413521568
  H   1.46134179603449     -1.08148388948736      1.28220594646643
  C   -1.61818969148847     -0.13195163964698      0.72342355658763
  H   -2.14111406144922     -0.56616119057569     -0.12828619976545
  H   -2.28015353346385      0.58371402366590      1.21303352758171
  H   -1.36379769422215     -0.92742874268861      1.42158755703904
  C   -0.67713385308337      1.66796445167391     -0.67531102725186
  N   -0.97587648518620      2.53370165418837     -1.40974482709870
