15
Coordinates from ORCA-job run
  C   0.68587828569748     -0.36721180298071     -0.49713566740298
  C   -0.30995020678425      0.54928814687172      0.25468450306070
  F   0.03261373856674     -0.76212965748068     -1.66172623470158
  H   0.20715843174003      0.91181122068458      1.15054809572407
  C   1.87599815504643      0.40915697290894     -0.89892101616439
  N   2.83169960216123      1.03268265426075     -1.17447554970809
  N   1.10609791462275     -1.51011337401179      0.22446661971500
  H   2.04329078518663     -1.46804876073116      0.58923006006947
  H   0.44227017431288     -1.84975124564222      0.90101375170960
  C   -1.59176719566276     -0.19207969369779      0.65191755792857
  H   -2.06162080715208     -0.63156544523427     -0.22736732689868
  H   -1.39124249459158     -0.97745077339576      1.38343649396137
  H   -2.29247641656942      0.50659763576083      1.11021090235910
  C   -0.64226013273932      1.70918731881277     -0.57571518513830
  N   -0.93468983383476      2.63962680387479     -1.22916700451386
