15
Coordinates from ORCA-job run
  C   0.66261329088715     -0.60131012904515     -0.08931817095394
  C   -0.41096381457512      0.30421144584886      0.53862529794849
  F   0.21002318739908     -1.92091602198212      0.11761261864581
  H   -0.42092012965854      0.04826627958184      1.60626691607353
  C   0.72653646654748     -0.41442431192770     -1.55154391746541
  N   0.75178987659930     -0.27504397313612     -2.71679065109604
  N   1.92787197095710     -0.36387181532064      0.47805407403977
  H   2.65026852075881     -0.93710997450955      0.06247966790051
  H   1.91607265435318     -0.48317912746722      1.48315564345920
  C   -1.80202815942551      0.06361383527183     -0.05212489274070
  H   -1.82201593424084      0.33154044934927     -1.11003693522688
  H   -2.07539402196174     -0.98546363419933      0.05590456741567
  H   -2.53697231607394      0.67704478190315      0.47060143253311
  C   -0.01840945659864      1.70761927877360      0.40738741482749
  N   0.24252786503223      2.84702291685930      0.29872693463939
