15
Coordinates from ORCA-job run
  C   0.60913938650067     -0.68701959117505     -0.01694219929617
  C   -0.46421965156059      0.24070980813278      0.57749061186627
  F   0.16340137084726     -1.98588248827156      0.14845417086409
  H   -0.52190759618518     -0.04962637533747      1.63263027042205
  C   0.72459212028819     -0.47150945206273     -1.48303671415721
  N   0.85432992746756     -0.26767635085533     -2.63290884273976
  N   1.83622261346003     -0.56238318002125      0.69870804496550
  H   2.14424936212931      0.40154551120012      0.74594768691644
  H   2.56246717020172     -1.12197920312452      0.26737256736911
  C   -1.82547234606873      0.06980410787397     -0.09848036457977
  H   -1.78628052082989      0.38502280455843     -1.14252157419640
  H   -2.12790241647329     -0.97639570387663     -0.05234542803472
  H   -2.57360353644964      0.67368006022341      0.41666441517672
  C   0.00445318468541      1.62434209843049      0.50484108300602
  N   0.40153093198720      2.72736795430532      0.43312627241784
