15
Coordinates from ORCA-job run
  C   0.92048853845592     -0.45136416946161      0.16024049177252
  C   -0.41954004664080      0.08853305145974      0.72150135269024
  F   1.76306275756905     -0.55484297960879      1.25996673748102
  H   -0.69807850255699     -0.55702369890299      1.56108021871498
  C   0.70382924396547     -1.81344273879828     -0.36886573731620
  N   0.48925978245355     -2.88798411157922     -0.78953568578669
  N   1.55090938435221      0.34000751359248     -0.83006152533473
  H   1.34790589697266      0.07453569698320     -1.78029934429054
  H   1.45260712899724      1.33415452749522     -0.67502911562852
  C   -1.53185653576706      0.10897204135010     -0.32807239605791
  H   -1.25366099625840      0.74180427219437     -1.17240803313176
  H   -2.44969364219169      0.50657810632478      0.10660830002436
  H   -1.73226403874574     -0.90089431670378     -0.69024367297434
  C   -0.17270732519056      1.43539248125488      1.23862591967024
  N   0.03173835458515      2.53757432439991      1.58849249016734
