15
Coordinates from ORCA-job run
  C   0.85332721325466     -0.47127490016232      0.17195741563460
  C   -0.49296347988237      0.05493865288449      0.69147893507554
  F   1.66835312335872     -0.72165158131535      1.25468557913411
  H   -0.88981972807119     -0.72540471895611      1.35095499378689
  C   0.63147857778594     -1.78164847274295     -0.50031636729428
  N   0.44008645449536     -2.78107686245258     -1.08791742991553
  N   1.51828222585752      0.50016169144921     -0.63691520078166
  H   0.99100883167313      0.71356355896350     -1.47399019147581
  H   2.43525320056824      0.16081475533827     -0.90451601186113
  C   -1.49784046999342      0.34070680030007     -0.42842795725860
  H   -2.46428298280372      0.60235749890398      0.00348421792703
  H   -1.17378321796202      1.18321872877422     -1.04155717335796
  H   -1.63365404153448     -0.54020670820128     -1.05936303763322
  C   -0.25780986625908      1.24955500423172      1.50493232684614
  N   -0.12861237410861      2.21699463116023      2.15647202151094
