15
Coordinates from ORCA-job run
  C   0.64766961671683     -0.61337575055412     -0.10606753024198
  C   -0.39285241923212      0.31172854617540      0.54851278167664
  F   0.17433479279171     -1.92417187847271      0.10573029442657
  H   -0.38062679124686      0.05698155905510      1.61641749847245
  C   0.68500754937934     -0.41995886904414     -1.56845208117556
  N   0.69559266478992     -0.27207413114011     -2.73282843275385
  N   1.93003982764531     -0.40323302304364      0.43471750153532
  H   1.93688627731585     -0.53315472001013      1.43864201085330
  H   2.63080753777283     -0.98888172118753     -0.00072505427506
  C   -1.80261788228911      0.09660505307602     -0.00666435247134
  H   -1.84443768810655      0.36359875696807     -1.06417584369550
  H   -2.09286629220967     -0.94699100267025      0.11022627913576
  H   -2.51252338768139      0.72428290241748      0.53352408873686
  C   0.02268622124033      1.70730211162986      0.40479421757082
  N   0.30189997311358      2.84134216680071      0.28634862220556
