15
Coordinates from ORCA-job run
  C   0.68419577910338     -0.38156600684500     -0.47976024440761
  C   -0.32359883742678      0.55741441631872      0.22405137807844
  F   0.02658397233599     -0.86787053957239     -1.61002723662533
  H   0.19525145283804      0.99269480734177      1.08573045317539
  C   1.84777295806081      0.39242374995568     -0.95641561886278
  N   2.78722969058762      1.01153299369991     -1.29163560914483
  N   1.13364372641295     -1.45266500337274      0.32317021075685
  H   2.10952918668912     -1.44298163953742      0.56610587741509
  H   0.53625150090657     -1.69956712343913      1.09365331430726
  C   -1.58058873605849     -0.18926407131376      0.68722223237987
  H   -2.29557430882690      0.52058943093055      1.10459721064637
  H   -1.35230022742385     -0.91817861907969      1.46744863129855
  H   -2.04602903579626     -0.70084613822298     -0.15458235667646
  C   -0.69763653469185      1.64975437533608     -0.67696617745593
  N   -1.02473058671037      2.52752936780041     -1.38459206488487
