15
Coordinates from ORCA-job run
  C   0.61442689588932     -0.68127138943968     -0.01073158664449
  C   -0.46267922255180      0.24620464682870      0.57701068611271
  F   0.18111649855409     -1.98134226773793      0.17750709684821
  H   -0.50992026934766     -0.02803306725377      1.63689006071134
  C   0.71937328487446     -0.48832999879326     -1.48078137455936
  N   0.84458535749359     -0.30603588862289     -2.63484354097507
  N   1.84529056509200     -0.53510190512186      0.69448862501842
  H   2.57373226466171     -1.09403279527542      0.26625986166102
  H   2.14459064606537      0.43208580328401      0.72571068314785
  C   -1.82722116573395      0.05266855869579     -0.08620224242651
  H   -2.11871082469850     -0.99579725672927     -0.02421925258114
  H   -1.79902225232875      0.35474404275266     -1.13453709737879
  H   -2.57744155910737      0.65576995576776      0.42693818432398
  C   -0.00715016507036      1.63247875794043      0.47914675313958
  N   0.37902994620785      2.73799280370472      0.38836314360224
