15
Coordinates from ORCA-job run
  C   0.65696647369989     -0.67646631309746      0.17458852966982
  C   -0.63461711200695      0.08196277607310      0.53490263814524
  F   1.09955322688108     -1.28794002805741      1.35981755670709
  H   -1.27380440712569     -0.63255628552108      1.06374770813849
  C   0.34792603314767     -1.77257206001265     -0.76529155330372
  N   0.08535637646579     -2.64574427502615     -1.50451026023090
  N   1.62063145173166      0.17895878195588     -0.39750417067442
  H   1.87108083365561      0.92516167450647      0.24167771511503
  H   2.45030395624714     -0.32544584844200     -0.68219915702305
  C   -1.35663573695923      0.64045849231418     -0.69301510585392
  H   -2.25601405704640      1.17516489613200     -0.38426947701637
  H   -0.70459843603738      1.32302355750718     -1.23708644492426
  H   -1.65016942382523     -0.17311991863744     -1.35862032350542
  C   -0.28215739636483      1.15268773959604      1.46982258597340
  N   0.02617821753685      2.03642681070936      2.17893975878298
