15
Coordinates from ORCA-job run
  C   0.60338176894972     -0.69238669295589     -0.02546879190343
  C   -0.47377532107940      0.22649737720578      0.57591374908751
  F   0.14324691439580     -1.99165246982310      0.09397270656063
  H   -0.55811950893040     -0.09948770737674      1.61878578531541
  C   0.74841600021350     -0.43663778475094     -1.48235044457350
  N   0.90055666020953     -0.20524296563706     -2.62422437342356
  N   1.81774680721135     -0.59939087164528      0.71623672221252
  H   2.13186601640500      0.36004656864781      0.79902017697087
  H   2.54794750262563     -1.15109353477395      0.28145873839473
  C   -1.82113334431778      0.09273894670223     -0.13552585580548
  H   -1.75726339784372      0.44939814950161     -1.16472322481613
  H   -2.13115732384337     -0.95206373751035     -0.13823792288009
  H   -2.57644744291897      0.68064753972100      0.38733002584097
  C   0.00840847408329      1.60701080770963      0.56178703513127
  N   0.41532619483981      2.70861637498527      0.53702567388828
