15
Coordinates from ORCA-job run
  C   0.63938188489962     -0.38216071523563     -0.42182351720168
  C   -0.35868637531096      0.57678797387901      0.25268520899747
  F   0.03425910715553     -0.95049476824635     -1.52157177373144
  H   0.14185236450854      1.00427797760649      1.13093225353503
  C   1.82100094874551      0.36774330106597     -0.92260349407672
  N   2.80150338145006      0.92820415677303     -1.24714433443978
  N   0.97571620299309     -1.45112011096273      0.47188469342036
  H   1.43291373573292     -1.09512303010794      1.30315168040662
  H   1.60559193527860     -2.09779654382383      0.00990383088070
  C   -1.63818000105632     -0.15026477439616      0.67759783249094
  H   -2.31746613370858      0.55378052485144      1.16035220671127
  H   -1.39979015681074     -0.95654786666316      1.36899789400651
  H   -2.13456525811192     -0.57198045638732     -0.19603209105011
  C   -0.66629496876408      1.67837617587335     -0.66215323132088
  N   -0.93823666700127      2.54731815577384     -1.40317715862828
