15
Coordinates from ORCA-job run
  C   0.80882205801003     -0.50569157216633      0.09100026812395
  C   -0.50674936667139      0.05931136630520      0.66003293489271
  F   1.61857985576650     -0.81120008119712      1.19808320303639
  H   -0.84534203573899     -0.65356681808850      1.41891365721542
  C   0.54914570540289     -1.78671976332498     -0.59559487057108
  N   0.33022035690494     -2.80908219577216     -1.12908736527636
  N   1.41807973188715      0.39614678575679     -0.80511846898876
  H   1.63634942753758      1.27347505813978     -0.34591114640748
  H   2.25490625346513      0.00636772136707     -1.21969800588004
  C   -1.58105199604874      0.25400486500012     -0.41153000916773
  H   -2.48587676839671      0.66409950261361      0.03912055769124
  H   -1.82891739336784     -0.70322207201943     -0.87323078119062
  H   -1.22595170233264      0.93609386159603     -1.18326947629255
  C   -0.19854642454516      1.32327337833510      1.33265613825922
  N   0.05933229812727      2.35770996345482      1.82463336455570
