15
Coordinates from ORCA-job run
  C   0.58779948364188     -0.70373451000151     -0.05088942155441
  C   -0.45168891997714      0.23073055170272      0.59156460911707
  F   0.10403174384823     -1.99423081124059      0.06553177332809
  H   -0.50758655999875     -0.09999736487367      1.63480522480029
  C   0.69838474491921     -0.43129193411709     -1.50778211589628
  N   0.82911982580856     -0.18172359728585     -2.64857825759619
  N   1.82430892934884     -0.64505666397156      0.65702648768546
  H   2.15915452329887      0.30683994392862      0.74393069315331
  H   2.53124493338961     -1.20405339432607      0.19423124063495
  C   -1.82388348346438      0.12618922777767     -0.07575984474645
  H   -2.15652216979735     -0.91175500208341     -0.06704570055287
  H   -2.54896393656778      0.73065415873892      0.47071649280515
  H   -1.78567457446408      0.48084311534050     -1.10709523944134
  C   0.05658855280560      1.60186849891160      0.56745221530150
  N   0.48268690720867      2.69571778149970      0.53089184296170
