15
Coordinates from ORCA-job run
  C   0.75809695050816     -0.25356342354116     -0.37479691542838
  C   -0.35917750611285      0.59295087278850      0.26345516175740
  F   0.26414932528978     -0.73291834002486     -1.59838025703863
  H   0.07595306694513      1.07090800903309      1.14748711622884
  C   1.92533056820634      0.59240610067765     -0.69166570514602
  N   2.85645527878573      1.26514886423342     -0.93303088963678
  N   1.16239301017454     -1.29551513439206      0.49249405480483
  H   1.97433166815430     -1.77889919442149      0.12884844293095
  H   0.41207211858897     -1.96100055117190      0.62786854958566
  C   -1.56618583993619     -0.25661351194401      0.67450647161266
  H   -1.30678714713775     -0.91900367067563      1.50176836838470
  H   -2.37562293010119      0.39151135810286      1.01172541478896
  H   -1.92637234338932     -0.84240566307117     -0.17220190520979
  C   -0.76734307807792      1.64421287387490     -0.67131908079146
  N   -1.12829314189772      2.48478141053184     -1.40675882684295
