15
Coordinates from ORCA-job run
  C   0.88756291476346     -0.51834947018984      0.14038699718382
  C   -0.45772077300593      0.00542501513424      0.70399221408544
  F   1.65701401421128     -0.82621071853162      1.25544643653139
  H   -0.81444025640578     -0.73855790251529      1.42409172877125
  C   0.64216152327903     -1.77551521328309     -0.59555110752358
  N   0.40898910522516     -2.76519406375857     -1.18194989264122
  N   1.61035530356416      0.37416994654931     -0.68708711851964
  H   1.46081019681995      0.25596354848572     -1.67605725040236
  H   1.54309994436819      1.33999654000368     -0.39614174906010
  C   -1.50373207238098      0.23617267285352     -0.38752894295678
  H   -1.14740578993396      0.96745474616177     -1.11483752774702
  H   -2.42657304235138      0.61617305372665      0.05225640693550
  H   -1.72827702313362     -0.69898784512129     -0.90346422188147
  C   -0.18209427981079      1.24865474172340      1.42571427719546
  N   0.04925023479124      2.27780494876141      1.94172975002933
