15
Coordinates from ORCA-job run
  C   0.66768120244189     -0.68134336650564      0.26515057198841
  C   -0.64865060868492      0.05731792931152      0.55042723990301
  F   1.08357093772687     -1.29080981777179      1.42834017111384
  H   -1.34955881392654     -0.70174001622085      0.91678282922204
  C   0.40802546331004     -1.77079207614341     -0.71596188674935
  N   0.21065591358215     -2.57756195309517     -1.54695133622416
  N   1.70139164821102      0.22421452855448     -0.12522109644014
  H   1.48471446915613      0.68253731915504     -1.00046087619544
  H   2.57885425017567     -0.27341624662223     -0.22411983451613
  C   -1.23423845301671      0.74179606650700     -0.68818712233456
  H   -0.59874940375542      1.56528625086371     -1.01966007120207
  H   -1.35890996042583      0.02491196092632     -1.50298137799187
  H   -2.21310958280848      1.15891535078781     -0.44851918768757
  C   -0.42884437531356      1.02189064690547      1.63024259608861
  N   -0.30283268667229      1.81879342334773      2.48211938102538
