15
Coordinates from ORCA-job run
  C   0.62656779704431     -0.70587580050561     -0.15142830661830
  C   -0.41896119201243      0.15970907893303      0.58296872202388
  F   0.11583872554113     -2.00785107145516     -0.09438178959674
  H   -0.43942121262526     -0.23503399650979      1.60749142114504
  C   0.68860203838210     -0.34540316631704     -1.58152563074285
  N   0.73830999793740     -0.03503158350158     -2.71277435788481
  N   1.90609389626836     -0.65295206145133      0.43663433796697
  H   2.65890405557193     -0.36974062361402     -0.16825060605603
  H   1.94495352716146     -0.19429231741424      1.33328285659670
  C   -1.81770499659976      0.06378204676979     -0.02716169407659
  H   -2.52813311332016      0.63120632968812      0.57578439296557
  H   -1.82462375820049      0.46927348659093     -1.04062515842160
  H   -2.13317808062072     -0.97851794359431     -0.05735467588371
  C   0.05347340959416      1.54367432377223      0.63243323478794
  N   0.42827890587796      2.65605329860899      0.66490725379453
