15
Coordinates from ORCA-job run
  C   0.72551703558017     -0.64844675480682      0.19340342964383
  C   -0.57048398274473      0.05192888643569      0.62798435085721
  F   1.31144962495655     -1.20517840486042      1.30983338578286
  H   -1.18681451288882     -0.72014967132423      1.10253204500068
  C   0.38339776055704     -1.78109924546085     -0.71121921491492
  N   0.11237735704159     -2.62939395502263     -1.47786684077778
  N   1.66303364038481      0.27857847854626     -0.35451851091235
  H   1.30367802865731      0.72695978975201     -1.18715664731902
  H   2.53003961187654     -0.19372397948121     -0.58317166163487
  C   -1.34023728968963      0.67457406301126     -0.54065926314580
  H   -0.79174506851890      1.51424615111432     -0.97104804701658
  H   -1.53524779897169     -0.07027479209316     -1.31506538660042
  H   -2.29828063860772      1.05686103877553     -0.18674837995209
  C   -0.25321496316606      1.05789236660095      1.64366063663924
  N   -0.05546880446645      1.88722602881329      2.45004010435002
