15
Coordinates from ORCA-job run
  C   0.71260758752343     -0.70588536338948      0.26460890860570
  C   -0.60985845605735      0.03963331413836      0.57567909780874
  F   1.10810313984906     -1.26961302726320      1.47142763406428
  H   -1.26691004593290     -0.67285213452812      1.08554971503345
  C   0.43107665892696     -1.81065347208321     -0.67467867701309
  N   0.17343755434941     -2.67182468975276     -1.42945888016606
  N   1.77161264449207      0.08297673382474     -0.24541109423683
  H   1.85515749023842      0.08804117184286     -1.24913941056419
  H   1.81214990500502      1.01131499419810      0.15259806800643
  C   -1.28810225530969      0.58538879892922     -0.68187280146705
  H   -0.63148409982731      1.28543394346097     -1.20110858724022
  H   -2.20408977441648      1.11337290191081     -0.41411946581965
  H   -1.54666131654438     -0.23027387753809     -1.35942947708270
  C   -0.29859215696061      1.12561256304185      1.50637980045313
  N   -0.01744687533565      2.03132814320795      2.19897516961805
