15
Coordinates from ORCA-job run
  C   0.59814825882025     -0.69633166506199     -0.03565890268509
  C   -0.45449230510892      0.23729608149924      0.58614739617519
  F   0.13276379064024     -1.99060578773792      0.11048628819827
  H   -0.50590906566407     -0.07143444098354      1.63639706479253
  C   0.70407096979363     -0.45594073461564     -1.49844096602452
  N   0.82851034545196     -0.23340871506685     -2.64545547039833
  N   1.83381811782226     -0.60393674032967      0.66999383883082
  H   2.15450309387064      0.35450954691085      0.73655310678664
  H   2.54883859559096     -1.16240512842019      0.21908125564125
  C   -1.82520200663650      0.09904545237729     -0.07830099267597
  H   -2.14496865550034     -0.94247170114422     -0.04444435440965
  H   -2.55767605729158      0.70785944906562      0.45330786047360
  H   -1.79094988404506      0.42901989706520     -1.11798308491585
  C   0.03411176119565      1.61475663251013      0.53278149842222
  N   0.44643304106087      2.71304785393169      0.47653546178890
