15
Coordinates from ORCA-job run
  C   0.37627028390174      0.72255149863210      0.18492903626287
  C   -0.84687442403064      0.04284562262062     -0.47308595261030
  F   0.61728102850416      1.88990561122997     -0.52555323730083
  H   -1.62232147419775      0.81887780710481     -0.55615768953881
  C   1.62266710352198     -0.13256417779352      0.18800178442139
  H   1.92208263662130     -0.32943010027827     -0.84272964308109
  H   1.42298605609365     -1.07506509279987      0.69633604108693
  H   2.42895332370855      0.39832376467539      0.69540405879859
  C   -0.02271193178219      1.09648681649095      1.55420260857233
  N   -0.38000440028136      1.36552452485778      2.64004573289168
  N   -1.23234849309461     -1.11845320725433      0.32035144167969
  H   -1.77712813729921     -1.76626426732079     -0.23428084182462
  H   -1.79819167789058     -0.82220839268018      1.10715398919231
  C   -0.49245115789533     -0.37000152811156     -1.83378522335720
  N   -0.21720873587971     -0.71952887937310     -2.91983210519295
