15
Coordinates from ORCA-job run
  C   0.49006166878706      0.67618348470094      0.13786094970553
  C   -0.82663918544693      0.19020852960798     -0.50210742764255
  F   1.05879995299310      1.58251635252331     -0.74774840068347
  H   -1.45329111611168      1.07719056343688     -0.63748893254983
  C   1.48142266497539     -0.43731046191786      0.39973819707288
  H   2.40382776070195     -0.00928859027821      0.79402432082414
  H   1.70581213966883     -0.95371328910421     -0.53584218504738
  H   1.08290365142606     -1.14081726578920      1.13164147106428
  C   0.15977668413483      1.39820326838772      1.37776022260538
  N   -0.08296908112676      1.99164442125756      2.36103636910965
  N   -1.49383615663943     -0.72684011631774      0.40414520449313
  H   -1.16603355259238     -1.67477170902432      0.26764255593247
  H   -2.49377985258466     -0.71637241705902      0.25390989828990
  C   -0.54063861158762     -0.37008824559637     -1.83579617924525
  N   -0.32641696659777     -0.88674452482746     -2.86877606392886
