15
Coordinates from ORCA-job run
  C   0.34999359230056      0.67826213709435      0.33884941496260
  C   -0.81223153902965      0.12513175893130     -0.51787504795726
  F   0.62087521459290      1.95651373734510     -0.12873551806583
  H   -1.59244600789825      0.90085165540920     -0.51594142581151
  C   1.60697664591178     -0.15902666075091      0.27641017407094
  H   2.36526127940472      0.26895340988426      0.93318364986006
  H   1.98426808745699     -0.15901853570864     -0.74753839125998
  H   1.38537654415276     -1.18026079164625      0.58408143457908
  C   -0.14861276462228      0.79452268011566      1.72154615255714
  N   -0.57942652800039      0.85507545574888      2.81227116283756
  N   -1.23411863839547     -1.16157526413656      0.02300572240772
  H   -1.85702241634064     -1.01419068054179      0.80862475678678
  H   -1.73000769309772     -1.69903075517174     -0.67643778721033
  C   -0.35635705744806     -0.03238038498038     -1.90166566789044
  N   -0.00252871898724     -0.17382776159246     -3.01177862986651
