15
Coordinates from ORCA-job run
  C   0.38316211682553      0.51363048058941      0.21826292977759
  C   -0.61037249074826     -0.17568629134339     -0.75025207868797
  F   0.36308037815155      1.86170897867976     -0.13929590954365
  H   -0.20690661841085      0.00238301665817     -1.75473155272016
  C   1.80355262565125      0.00527873441986      0.10442100668188
  H   1.87179959351337     -1.03472635092433      0.42591107574949
  H   2.45902035102688      0.61529747725597      0.72738599444988
  H   2.13060363657775      0.08513744583009     -0.93467010488853
  C   -0.13167840566587      0.41048840452653      1.59295131825079
  N   -0.56758077654063      0.30219388085181      2.67809431848256
  N   -1.96460516162714      0.33176924854234     -0.71305887558483
  H   -1.95551534694263      1.33229846498460     -0.86740845327502
  H   -2.39825170296766      0.14295036818639      0.18333998552810
  C   -0.60129901785052     -1.62080985136089     -0.50109966505874
  N   -0.57600918099277     -2.77091400689632     -0.26784998916141
