19

C	-0.256913	-0.045779	-1.507277
C	0.0	0.0	0.0
Br	-2.207847	-0.354483	-1.899226
H	1.10698	0.0	0.0
C	0.093457	1.282338	-2.159151
H	-0.047175	1.223892	-3.242104
H	1.151277	1.478568	-1.947116
H	-0.521426	2.08869	-1.760013
N	0.468871	-1.173923	-2.038159
H	1.41851	-1.13103	-1.664337
H	0.525083	-1.102503	-3.047414
C	-0.503085	-1.222725	0.742121
H	-0.275605	-2.130416	0.184213
H	-1.586587	-1.160391	0.882737
H	-0.015299	-1.279935	1.719837
N	-0.517901	1.235941	0.596506
H	-0.791506	1.039908	1.552764
H	0.246497	1.902108	0.649283
Br	3.591269	0.0	0.0
