19

C	-0.351794	0.009149	-1.4774
C	0.0	0.0	0.0
Br	-2.526145	0.355046	-1.547236
H	1.098321	0.0	0.0
C	0.213283	1.196114	-2.213885
H	1.303231	1.127917	-2.124494
H	-0.080446	1.180705	-3.266775
H	-0.126511	2.115584	-1.746892
N	-0.083537	-1.185787	-2.11325
H	-0.470503	-2.002933	-1.670731
H	-0.259243	-1.17285	-3.106455
C	-0.466064	-1.248248	0.744384
H	-1.550725	-1.375315	0.664108
H	0.041822	-2.148444	0.386921
H	-0.20237	-1.141292	1.799155
N	-0.405033	1.258125	0.616518
H	-1.367146	1.198785	0.932184
H	0.198755	1.427095	1.41213
Br	3.593143	0.0	0.0
