19

C	-0.434889	0.042872	-1.478416
C	0.0	0.0	0.0
Br	-0.010205	-1.689785	-2.342843
H	1.096453	0.0	0.0
C	-1.922967	0.283191	-1.66518
H	-2.145656	0.338438	-2.73118
H	-2.18262	1.236869	-1.197901
H	-2.518719	-0.513418	-1.215268
N	0.311593	1.049421	-2.21285
H	1.303931	0.836524	-2.095734
H	0.155901	1.908359	-1.688037
C	-0.528352	-1.151607	0.838083
H	-1.623432	-1.128814	0.904702
H	-0.121472	-1.062502	1.84938
H	-0.224996	-2.118373	0.437921
N	-0.372483	1.317118	0.566612
H	0.410219	1.650309	1.115843
H	-1.167108	1.220111	1.187381
Br	3.611907	0.0	0.0
