19

C	-0.216125	-0.016712	-1.522593
C	0.0	0.0	0.0
Br	-2.195743	-0.161102	-1.941963
H	1.102215	0.0	0.0
C	0.246477	1.278009	-2.175284
H	0.144832	1.210779	-3.262193
H	-0.321085	2.144538	-1.832954
H	1.305538	1.403441	-1.91928
N	0.427396	-1.189191	-2.053974
H	0.535993	-1.099263	-3.05771
H	1.359954	-1.23923	-1.638345
C	-0.514533	-1.241852	0.705484
H	-0.076143	-1.27491	1.704263
H	-0.250281	-2.148377	0.160824
H	-1.60328	-1.199078	0.805093
N	-0.465495	1.191214	0.691345
H	0.127325	1.978939	0.461639
H	-1.416967	1.405403	0.405569
Br	3.588832	0.0	0.0
