19

C	-0.278219	-0.002361	-1.507835
C	0.0	0.0	0.0
Br	-2.219362	-0.32935	-1.856966
H	1.106801	0.0	0.0
C	0.076538	1.338886	-2.119686
H	1.134192	1.535381	-1.905525
H	-0.536891	2.131191	-1.692365
H	-0.068	1.295222	-3.1999
N	0.453223	-1.034494	-2.221121
H	0.220965	-1.94238	-1.834112
H	1.442547	-0.874528	-2.018733
C	-0.487373	-1.226092	0.74809
H	-0.232638	-2.152726	0.231576
H	-1.571696	-1.186843	0.882773
H	-0.002142	-1.261304	1.728089
N	-0.526583	1.212878	0.643182
H	0.191328	1.927603	0.582311
H	-0.638	1.02178	1.633129
Br	3.591938	0.0	0.0
