19

C	-0.49497	-0.018624	-1.445397
C	0.0	0.0	0.0
Br	0.257519	1.71285	-2.329233
H	1.098815	0.0	0.0
C	0.113266	-1.131007	-2.272493
H	-0.300838	-2.085546	-1.936207
H	1.198037	-1.131445	-2.146508
H	-0.127192	-1.004007	-3.330684
N	-1.905371	0.001466	-1.483003
H	-2.255367	0.173447	-2.416323
H	-2.228787	0.72027	-0.842523
C	-0.457919	-1.253748	0.741251
H	-0.074398	-1.212616	1.765676
H	-1.547546	-1.324347	0.765196
H	-0.04391	-2.154439	0.287115
N	-0.57434	1.174931	0.678636
H	-0.396481	1.068525	1.671868
H	-0.03646	1.983857	0.382592
Br	3.676956	0.0	0.0
