15

C	0.0	0.0	0.0
C	-0.488801	-0.047776	-1.454214
Cl	1.831538	0.0	0.0
H	-1.576827	0.114827	-1.369718
H	-0.283962	0.953711	0.440979
N	-0.531056	-1.069975	0.744747
H	-0.7064	-0.844001	1.710633
H	0.007816	-1.91812	0.65858
C	-0.256325	-1.403003	-2.119016
H	-0.824923	-2.154299	-1.572896
H	-0.623654	-1.381299	-3.146986
H	0.803967	-1.666882	-2.134232
C	0.086475	1.038469	-2.245536
N	0.53475	1.905084	-2.900168
Br	-3.905007	0.0	0.0
