15

C	0.0	0.0	0.0
C	-0.331912	0.04903	-1.51428
Cl	1.837349	0.0	0.0
H	0.291136	0.834161	-1.955077
H	-0.290813	0.951539	0.446826
N	-0.553853	-1.060594	0.759327
H	-1.528745	-0.851606	0.964775
H	-0.503748	-1.939865	0.256706
C	-1.800565	0.340642	-1.804439
H	-2.474461	-0.424283	-1.426669
H	-2.109405	1.270404	-1.325194
H	-1.946187	0.437364	-2.883211
C	0.073972	-1.214849	-2.135251
N	0.354242	-2.243253	-2.62835
Br	-4.67907	0.0	0.0
