15

C	0.0	0.0	0.0
C	-0.399281	0.308071	-1.453871
Cl	1.782509	0.0	0.0
H	0.222571	1.155679	-1.760483
H	-0.274326	0.869105	0.609782
N	-0.539084	-1.249435	0.441898
H	-0.438049	-1.337246	1.445334
H	-1.53543	-1.266661	0.234361
C	-1.864969	0.692382	-1.645131
H	-2.033809	0.957662	-2.69115
H	-2.572647	-0.087004	-1.371628
H	-2.114481	1.554703	-1.025835
C	-0.023211	-0.809121	-2.329476
N	0.257226	-1.661862	-3.085879
Br	-4.808939	0.0	0.0
