15

C	0.0	0.0	0.0
C	-0.363705	-0.256951	-1.487034
Cl	1.795251	0.0	0.0
H	0.266142	0.402792	-2.09335
H	-0.304637	1.019347	0.242862
N	-0.553417	-0.882959	0.96872
H	-1.538133	-0.661385	1.098229
H	-0.471374	-1.848344	0.671283
C	-1.830076	0.011922	-1.801811
H	-2.088576	1.041753	-1.550048
H	-2.014624	-0.142254	-2.867255
H	-2.515885	-0.612714	-1.235568
C	0.003815	-1.631735	-1.836618
N	0.262231	-2.745123	-2.106096
Br	-4.739443	0.0	0.0
