15

C	0.0	0.0	0.0
C	-0.414018	0.129564	-1.500808
Cl	1.78849	0.0	0.0
H	0.508813	0.11253	-2.087644
H	-0.276049	0.926256	0.51427
N	-0.504766	-1.197401	0.60021
H	-1.522565	-1.170105	0.476552
H	-0.325467	-1.166223	1.597885
C	-1.112722	1.458121	-1.797454
H	-0.448918	2.27948	-1.510122
H	-2.050355	1.513964	-1.24752
H	-1.32265	1.541248	-2.866602
C	-1.147459	-1.033512	-2.012207
N	-1.607179	-1.940226	-2.599432
Br	-3.748399	0.0	0.0
