15

C	0.0	0.0	0.0
C	-0.490509	0.223467	-1.449654
Cl	1.788102	0.0	0.0
H	-1.582339	0.325548	-1.343388
H	-0.309081	0.863654	0.590291
N	-0.495851	-1.174792	0.651096
H	-0.297939	-1.995525	0.090803
H	-1.511661	-1.060608	0.712234
C	-0.185396	-0.937555	-2.395152
H	-0.514776	-0.69266	-3.406416
H	-0.733874	-1.825759	-2.078095
H	0.884148	-1.158077	-2.422407
C	0.033507	1.475584	-1.989984
N	0.459202	2.468674	-2.4518
Br	-3.705743	0.0	0.0
