15

C	0.0	0.0	0.0
C	-0.517975	0.225385	-1.426504
Cl	1.78386	0.0	0.0
H	-1.610638	0.296675	-1.308686
H	-0.27626	0.873419	0.600996
N	-0.50775	-1.250748	0.495075
H	-0.277163	-1.327441	1.479653
H	-1.52923	-1.175397	0.433573
C	-0.183624	-0.917281	-2.385353
H	-0.665155	-0.741723	-3.349809
H	-0.55448	-1.851769	-1.966515
H	0.894385	-1.000111	-2.537857
C	-0.042528	1.504015	-1.950576
N	0.340607	2.51906	-2.401122
Br	-3.737532	0.0	0.0
