15

C	0.0	0.0	0.0
C	-0.319621	-0.277179	-1.494424
Cl	1.838047	0.0	0.0
H	0.321467	0.381705	-2.088793
H	-0.292025	1.024746	0.235009
N	-0.556522	-0.879003	0.961565
H	-1.526431	-0.623393	1.127996
H	-0.513662	-1.84188	0.652046
C	-1.77794	-0.036825	-1.867953
H	-1.919004	-0.213794	-2.936872
H	-2.065047	0.992182	-1.64609
H	-2.471928	-0.664434	-1.314243
C	0.073845	-1.65216	-1.814835
N	0.353432	-2.765757	-2.060873
Br	-4.641839	0.0	0.0
