15

C	0.0	0.0	0.0
C	-0.362622	-0.419218	-1.450002
Cl	1.795639	0.0	0.0
H	0.26083	0.176302	-2.125388
H	-0.301817	1.041092	0.126302
N	-0.55768	-0.767869	1.059088
H	-0.491898	-1.760763	0.865616
H	-1.537919	-0.519251	1.171128
C	-1.831552	-0.194615	-1.784818
H	-2.022517	-0.458806	-2.827095
H	-2.509954	-0.761615	-1.15347
H	-2.097689	0.85319	-1.638198
C	0.012775	-1.820826	-1.653659
N	0.286081	-2.953525	-1.800673
Br	-4.736148	0.0	0.0
