15

C	0.0	0.0	0.0
C	-0.365437	-0.364678	-1.463623
Cl	1.795603	0.0	0.0
H	0.260846	0.250528	-2.117976
H	-0.302008	1.035165	0.166769
N	-0.556364	-0.807583	1.030696
H	-0.477398	-1.79284	0.805619
H	-1.540762	-0.574265	1.139675
C	-1.833659	-0.122026	-1.791913
H	-2.516327	-0.703196	-1.177914
H	-2.024046	-0.354653	-2.841736
H	-2.093138	0.92344	-1.616059
C	0.004013	-1.760461	-1.713731
N	0.267054	-2.89008	-1.898968
Br	-4.744026	0.0	0.0
