19

C	-0.5289	-0.044088	-1.449261
C	0.0	0.0	0.0
Cl	0.230154	-1.393448	-2.337494
H	1.093884	0.0	0.0
C	-2.034403	-0.18615	-1.593648
H	-2.552659	0.592477	-1.037504
H	-2.321075	-0.118333	-2.644429
H	-2.338273	-1.166511	-1.2262
N	-0.111079	1.250132	-2.146171
O	1.014102	1.340455	-2.607791
O	-0.946872	2.157066	-2.122143
N	-0.352799	-1.193952	0.757267
H	-1.282584	-1.536461	0.558744
H	0.324302	-1.916161	0.547306
C	-0.451924	1.245614	0.747892
H	0.008529	1.183615	1.735096
H	-1.538896	1.305565	0.876409
H	-0.101133	2.163166	0.272233
H	2.885527	0.0	0.0
