19

C	-0.533642	-0.016917	-1.447273
C	0.0	0.0	0.0
Cl	0.188051	-1.379453	-2.348934
H	1.093883	0.0	0.0
C	-2.042814	-0.120595	-1.587921
H	-2.329169	-0.049347	-2.638839
H	-2.538812	0.673423	-1.033528
H	-2.37208	-1.091328	-1.216683
N	-0.087633	1.271539	-2.137779
O	1.019354	1.324458	-2.649558
O	-0.887463	2.20921	-2.067705
N	-0.35164	-1.208498	0.735929
H	-1.27678	-1.557935	0.517769
H	0.336103	-1.921004	0.519518
C	-0.45217	1.229932	0.774452
H	-0.114358	2.158656	0.311642
H	-1.538702	1.277954	0.915083
H	0.01803	1.15243	1.756368
H	2.881485	0.0	0.0
