19

C	-0.351706	0.01238	-1.487469
C	0.0	0.0	0.0
Cl	-2.141269	-0.171272	-1.781064
H	1.100045	0.0	0.0
C	0.140672	1.249615	-2.194033
H	0.02247	1.157074	-3.272974
H	1.198289	1.373346	-1.943362
H	-0.429552	2.109506	-1.846089
N	0.269884	-1.213172	-2.157974
O	1.129287	-1.019576	-3.012268
O	-0.101634	-2.319486	-1.776898
N	-0.466531	-1.136411	0.770099
H	-1.414494	-1.373895	0.507326
H	0.113132	-1.934237	0.554552
C	-0.432133	1.295846	0.673623
H	-1.50326	1.49764	0.556536
H	0.141417	2.148388	0.305965
H	-0.213951	1.179887	1.735178
H	2.832529	0.0	0.0
