18
Coordinates from ORCA-job run
  C   -0.73509243843235      0.17569173825804      0.00550689695176
  C   0.70477469365082     -0.19422118231694     -0.38075343118518
  Br  -0.69134722659009      1.50001564178619      1.48444663096826
  H   0.57762465461295     -0.92702836377740     -1.19351655667730
  N   -1.36014029220076      0.85107804408734     -1.11539377861140
  H   -1.38407202265370      0.20779978594685     -1.90243145220065
  H   -2.31816283507378      1.08799855757502     -0.88112446796511
  C   -1.50990861820246     -1.02692216458651      0.52602199610894
  H   -1.54848494339489     -1.78100129027302     -0.26879380168032
  H   -1.02778200704248     -1.46967087676425      1.39452597030075
  H   -2.53185840585587     -0.73493812658032      0.77867208385744
  N   1.33964694453143     -0.91611748823035      0.71896920990991
  H   1.56406839816018     -0.25447290325437      1.45546786504556
  H   2.21587295351365     -1.30857350518709      0.39439196456193
  C   1.51728702572107      0.97980400581226     -0.92143594821597
  H   2.47567551481358      0.61268972472996     -1.30043922442598
  H   0.99371183962560      1.50011604048864     -1.72342468838896
  H   1.71918676481709      1.69775236228596     -0.12368926835367
