18
Coordinates from ORCA-job run
  C   -0.82360851097234      0.03405936118006     -0.02286010978702
  C   0.69000539467882     -0.11755452383199     -0.28323918216538
  Br  -1.06369205163213      1.44150848795867      1.36374676205608
  H   0.74063323148793     -0.94289592346963     -1.00958413431203
  N   -1.60184930124578      0.46305619721247     -1.15998418546986
  H   -1.62895461341807     -0.27837219677004     -1.85189840552369
  H   -1.22382294106972      1.30107685725330     -1.58172237202155
  C   -1.42351349242158     -1.24902780179395      0.52126143326119
  H   -2.48746989057891     -1.10350375883314      0.70828949795681
  H   -1.30117021210669     -2.03980492995217     -0.22896164543244
  H   -0.91331702141383     -1.56136039162722      1.42842390679641
  N   1.36051861132173     -0.59094167288848      0.92494243233057
  H   2.30734091228019     -0.87045645317234      0.69545754554339
  H   1.42170193162576      0.17277115564106      1.59020313352852
  C   1.34870236262275      1.10700755949938     -0.91850046310788
  H   1.28526505719298      1.96967112155365     -0.25166394248527
  H   0.90846349964139      1.37503477545647     -1.88207658428357
  H   2.40576703400750      0.89273213658389     -1.09683368688425
