18
Coordinates from ORCA-job run
  C   -0.83842254977626      0.08723340411296     -0.07805096927362
  C   0.68876070224778     -0.04604980710818     -0.27695796988227
  Br  -1.22964095030633      1.74504089291989      0.91113706902720
  H   0.76923659155201     -0.90520875084820     -0.97055757671401
  N   -1.59339818813374      0.16706777102958     -1.31390021605099
  H   -1.29722023579458      0.95623413757136     -1.87462855727715
  H   -1.45086708917583     -0.68433371830446     -1.84875417655924
  C   -1.38157824227677     -1.07334515179798      0.73727588865308
  H   -2.46585870895805     -0.98881404403916      0.80620049287917
  H   -0.95498414856815     -1.08097033539240      1.73913495439377
  H   -1.13591732442253     -2.01758959919714      0.23385665909866
  N   1.35631672898195     -0.30225493555497      0.99429705676975
  H   1.28372094889994     -1.27935570596471      1.24788390336818
  H   2.34146482230835     -0.08102651692619      0.91889068196057
  C   1.34484246260160      1.15199302142638     -0.94521759231254
  H   0.81067483916635      1.47045551344391     -1.84125000556949
  H   2.36417866436824      0.89323964482862     -1.24618904932578
  H   1.38869167728599      1.98968417980069     -0.24817059318526
