12

C	-0.299856	0.008892	-1.502178
C	0.0	0.0	0.0
Br	0.253672	-1.677368	-2.318963
H	1.096419	0.0	0.0
H	0.348725	0.773398	-1.945103
C	-1.695498	0.251492	-1.839523
N	-2.819017	0.464074	-2.113768
C	-0.547495	-1.137521	0.707373
N	-0.923373	-2.073956	1.313696
C	-0.42771	1.25506	0.589882
N	-0.727743	2.298182	1.045265
H	2.451616	0.0	0.0
