12

C	-0.243266	-0.03498	-1.502035
C	0.0	0.0	0.0
Br	-2.095892	-0.445268	-2.033246
H	1.098724	0.0	0.0
H	0.370858	-0.843455	-1.909792
C	0.138499	1.221015	-2.135947
N	0.403377	2.239039	-2.659477
C	-0.430374	-1.225306	0.640848
N	-0.733638	-2.25134	1.13051
C	-0.532645	1.174283	0.652959
N	-0.905041	2.149558	1.196867
H	2.444406	0.0	0.0
