12

C	-0.244418	-0.035271	-1.501861
C	0.0	0.0	0.0
Br	-2.102292	-0.421789	-2.029927
H	1.098768	0.0	0.0
H	0.358381	-0.853185	-1.907181
C	0.154734	1.21322	-2.140069
N	0.435855	2.222926	-2.671509
C	-0.431739	-1.224225	0.641484
N	-0.725547	-2.250981	1.134903
C	-0.531235	1.177122	0.649211
N	-0.907327	2.164183	1.168578
H	2.444256	0.0	0.0
