12

C	-0.400938	-0.015682	-1.481086
C	0.0	0.0	0.0
Br	0.292511	1.575401	-2.395492
H	1.096686	0.0	0.0
H	-1.482748	0.041529	-1.613268
C	0.085433	-1.211185	-2.164569
N	0.383072	-2.17937	-2.760469
C	-0.454701	-1.212801	0.651965
N	-0.767772	-2.217588	1.180434
C	-0.508395	1.174127	0.679811
N	-0.859207	2.141837	1.251374
H	2.444386	0.0	0.0
