17

C	-0.452871	-0.045073	-1.485412
C	0.0	0.0	0.0
Cl	0.085844	1.498895	-2.236601
H	1.096767	0.0	0.0
C	0.268594	-1.185714	-2.182292
H	0.047339	-1.1675	-3.251748
H	-0.066134	-2.141647	-1.769841
H	1.343914	-1.089343	-2.027454
C	-1.961836	-0.125562	-1.62381
H	-2.444982	0.720875	-1.132211
H	-2.236247	-0.113785	-2.680862
H	-2.326791	-1.054064	-1.17458
C	-0.45079	-1.217799	0.675858
N	-0.819371	-2.213725	1.179291
C	-0.520714	1.165521	0.709522
N	-0.974154	2.089139	1.276258
Cl	3.22223	0.0	0.0
