17

C	-0.452858	-0.037713	-1.485507
C	0.0	0.0	0.0
Cl	0.084785	1.512774	-2.22606
H	1.096744	0.0	0.0
C	0.276624	-1.173101	-2.187788
H	1.353573	-1.071539	-2.030345
H	-0.053459	-2.13459	-1.782
H	0.05541	-1.150147	-3.257469
C	-1.963637	-0.123402	-1.628552
H	-2.450724	0.720151	-1.133656
H	-2.236557	-0.10818	-2.686128
H	-2.327484	-1.05529	-1.185319
C	-0.449318	-1.218869	0.675471
N	-0.815355	-2.215336	1.179094
C	-0.520946	1.164085	0.71234
N	-0.972921	2.089244	1.277255
Cl	3.215626	0.0	0.0
