17

C	-0.454052	-0.045438	-1.48479
C	0.0	0.0	0.0
Cl	0.088748	1.497432	-2.236384
H	1.096813	0.0	0.0
C	0.266959	-1.188496	-2.180716
H	0.04556	-1.170586	-3.250252
H	-0.068931	-2.144707	-1.768332
H	1.343497	-1.092873	-2.0256
C	-1.964332	-0.12411	-1.624549
H	-2.331834	-1.050848	-1.1736
H	-2.238443	-0.114759	-2.681756
H	-2.446286	0.725024	-1.1353
C	-0.451143	-1.215991	0.679062
N	-0.82369	-2.209233	1.184783
C	-0.518792	1.167243	0.708474
N	-0.967906	2.093359	1.274465
Cl	3.222591	0.0	0.0
