17

C	-0.338221	1e-05	-1.506214
C	0.0	0.0	0.0
Cl	-2.139537	4e-05	-1.72498
H	1.098909	0.0	0.0
C	0.231783	1.255489	-2.142904
H	-0.221389	2.154013	-1.719718
H	1.310723	1.274938	-1.957601
H	0.042838	1.243018	-3.219135
C	0.231746	-1.255488	-2.1429
H	-0.221479	-2.153997	-1.719732
H	0.042832	-1.242996	-3.219138
H	1.310681	-1.274986	-1.957566
C	-0.481314	-1.198388	0.681834
N	-0.853721	-2.172186	1.222868
C	-0.481315	1.198382	0.681841
N	-0.853733	2.172206	1.222821
Cl	3.218373	0.0	0.0
