15

C	0.0	0.0	0.0
C	-0.60793	-0.007895	-1.390025
F	1.383066	0.0	0.0
H	-1.69375	0.170524	-1.178066
H	-0.328671	-0.923849	0.487984
C	-0.478533	1.194491	0.793629
H	-1.572533	1.145648	0.838491
H	-0.055391	1.162206	1.80136
H	-0.156877	2.121513	0.310297
N	-0.391874	-1.309288	-2.054349
H	-0.993004	-1.958219	-1.54782
H	-0.799786	-1.245415	-2.982321
C	-0.06307	1.066593	-2.21343
N	0.350688	1.947134	-2.871731
H	-3.219172	0.0	0.0
