13

C	0.0	0.0	0.0
C	-0.598948	0.227905	-1.373711
F	1.380391	0.0	0.0
H	-1.700309	0.334945	-1.053259
H	-0.371737	-0.959155	0.366402
C	-0.394269	1.055817	0.95969
N	-0.503987	1.91044	1.758694
N	-0.509129	-0.921699	-2.259653
H	-1.239921	-1.569194	-1.97269
H	0.390494	-1.378329	-2.156177
C	-0.068844	1.427272	-2.003889
N	0.347137	2.40306	-2.513314
H	-2.821495	0.0	0.0
