13

C	0.0	0.0	0.0
C	-0.351086	-0.230125	-1.514908
F	1.37623	0.0	0.0
H	0.437549	0.338779	-2.02226
H	-0.389246	-0.772483	0.660267
C	-0.430325	1.335987	0.437838
N	-0.5534	2.458297	0.764338
N	-1.635577	0.143582	-2.043948
H	-2.350268	-0.009856	-1.259427
H	-1.624774	1.15015	-2.183099
C	-0.055864	-1.649497	-1.796418
N	0.206647	-2.772309	-2.017942
H	-3.044266	0.0	0.0
