13

C	0.0	0.0	0.0
C	-0.676531	0.072379	-1.348673
F	1.371186	0.0	0.0
H	-1.751355	0.327365	-0.98927
H	-0.359536	-0.912644	0.4789
C	-0.397399	1.160559	0.836111
N	-0.554172	2.107775	1.512083
N	-0.733022	-1.266933	-1.953562
H	-0.649726	-1.190983	-2.960078
H	-1.68088	-1.590647	-1.748691
C	-0.095308	1.073019	-2.215435
N	0.344617	1.883957	-2.947658
H	-2.910887	0.0	0.0
