16

C	-0.357291	0.236791	-1.464549
C	0.0	0.0	0.0
F	-1.693254	0.486518	-1.634909
H	1.107121	0.0	0.0
N	0.407946	1.275997	-1.987389
H	1.372726	1.232953	-1.659377
H	0.345032	1.304649	-2.996963
N	-0.151965	-1.075541	-2.277336
O	0.36471	-2.044193	-1.734478
O	-0.489246	-0.992504	-3.456373
C	-0.618294	-1.167713	0.598162
N	-1.123904	-2.08961	1.121775
N	-0.45154	1.232031	0.7562
O	-1.53857	1.177549	1.328115
O	0.302666	2.195611	0.728248
Cl	3.161353	0.0	0.0
