16

C	-0.286063	0.260792	-1.471044
C	0.0	0.0	0.0
F	0.118458	1.527945	-1.817387
H	1.106918	0.0	0.0
N	0.334723	-0.746956	-2.217426
H	0.239056	-0.555544	-3.207055
H	1.318579	-0.802019	-1.952553
N	-1.773951	0.242256	-1.819623
O	-2.582246	0.081665	-0.913536
O	-2.034396	0.396359	-3.009615
C	-0.474583	-1.301171	0.437924
N	-0.838072	-2.356425	0.803759
N	-0.469507	1.049135	0.959547
O	-0.273608	0.793691	2.142561
O	-0.975121	2.07394	0.517141
Cl	3.129485	0.0	0.0
