16

C	-0.279036	0.026852	-1.494768
C	0.0	0.0	0.0
F	0.120398	1.230047	-2.026424
H	1.107195	0.0	0.0
N	0.356962	-1.078312	-2.073013
H	1.338951	-1.082538	-1.79623
H	0.267358	-1.042294	-3.081187
N	-1.760931	-0.062215	-1.850679
O	-2.577607	-0.131805	-0.939919
O	-2.009114	-0.06485	-3.052934
C	-0.467065	-1.217754	0.639218
N	-0.814992	-2.205322	1.171007
N	-0.4824	1.185806	0.776112
O	-0.254013	1.146285	1.979899
O	-1.040975	2.098078	0.176905
Cl	3.129985	0.0	0.0
