16

C	-0.277521	-0.054578	-1.495156
C	0.0	0.0	0.0
F	0.098947	1.130919	-2.083367
H	1.100405	0.0	0.0
N	0.383598	-1.172794	-2.014398
H	0.299888	-1.19115	-3.022994
H	1.362804	-1.147646	-1.729338
N	-1.755998	-0.189165	-1.852008
O	-1.995248	-0.284538	-3.052269
O	-2.578993	-0.192	-0.944646
C	-0.47335	-1.178445	0.704642
N	-0.836098	-2.131316	1.28631
N	-0.479364	1.228381	0.711109
O	-0.198148	1.277018	1.903276
O	-1.09158	2.081267	0.077382
Cl	3.137231	0.0	0.0
