14

C	-0.541219	0.0002	-1.420355
C	0.0	0.0	0.0
F	-0.241431	-1.260285	-1.945003
H	1.089792	0.0	0.0
H	-0.004508	0.73466	-2.021864
H	-0.385794	-0.851493	0.558822
C	-2.0388	0.191506	-1.518122
H	-2.553162	-0.547057	-0.898251
H	-2.323614	1.193056	-1.194312
H	-2.357632	0.056709	-2.55407
N	-0.442579	1.21932	0.712936
O	-0.354174	2.288859	0.107632
O	-0.860476	1.10256	1.864943
Cl	3.366649	0.0	0.0
