14

C	-0.539796	-0.024769	-1.421926
C	0.0	0.0	0.0
F	-0.232526	-1.286089	-1.936966
H	1.089735	0.0	0.0
H	-0.00606	0.710681	-2.025926
H	-0.396186	-0.836354	0.573812
C	-2.039273	0.161462	-1.517531
H	-2.33153	1.15951	-1.185386
H	-2.360407	0.034027	-2.553569
H	-2.549243	-0.582382	-0.900074
N	-0.470082	1.238016	0.660644
O	-1.124707	1.136034	1.70278
O	-0.199982	2.304468	0.104686
Cl	3.394496	0.0	0.0
