14

C	-0.571291	-0.03328	-1.404152
C	0.0	0.0	0.0
F	-0.011169	-1.06061	-2.149237
H	1.089275	0.0	0.0
H	-0.266555	0.90495	-1.881042
H	-0.359223	0.897045	0.505846
C	-2.077015	-0.199396	-1.450789
H	-2.353331	-1.175507	-1.047454
H	-2.57713	0.573758	-0.863717
H	-2.424497	-0.145555	-2.48438
N	-0.521741	-1.13921	0.793573
O	-0.145271	-2.267733	0.49224
O	-1.35095	-0.888177	1.674941
Cl	3.398278	0.0	0.0
