12
Coordinates from ORCA-job run
  C   -0.79574823779369     -0.49256607806694      0.04299844573118
  C   0.70085246280980     -0.65076909471677     -0.00011669473112
  F   -1.30771267769110     -1.49739524621746      0.81309743681101
  H   1.12904845108802     -0.57681805124508      0.99660610596390
  H   -1.28294678385697     -0.48946467999051     -0.92841044196851
  H   0.96318021555278     -1.61108986228039     -0.44628936011913
  N   -1.18609326401305      0.80161450635411      0.71319184040341
  O   -2.29279916572679      1.23866190435748      0.41897612004011
  O   -0.39933204944146      1.27305194400964      1.52936296138124
  N   1.33274769116743      0.41098744532007     -0.83506222770483
  O   2.55502905553043      0.45861461891670     -0.81629721352724
  O   0.58377430237461      1.13517259355914     -1.48905697228003
