12
Coordinates from ORCA-job run
  C   -0.34754672037929     -0.10109241641697      0.67081770418250
  C   0.36034051585373      0.13983758056918     -0.63855988670081
  F   0.34874325069313      0.44582569491573      1.69011488330092
  H   -0.23440063018369     -0.23101539093868     -1.47290767616669
  H   -0.52942881475818     -1.15683107858725      0.86489283007971
  H   0.60330501520232      1.19412486621927     -0.76359599132963
  N   -1.70631004782381      0.56141615813596      0.58194322695584
  O   -2.45591058089212      0.05840416853782     -0.24876031781770
  O   -1.93578028765975      1.50961899387303      1.31607306776468
  N   1.65217588566793     -0.61506704390579     -0.65216956615350
  O   2.62690011163953     -0.03683084085884     -1.11768598845673
  O   1.61991230264018     -1.76739069154347     -0.23016228565859
