12
Coordinates from ORCA-job run
  C   -0.35022999025569     -0.17166870033046      0.65454549726690
  C   0.36251753903251      0.20685494513834     -0.61903513134177
  F   0.34278933148479      0.26097765599676      1.72952000216331
  H   -0.22965145632562     -0.07342616906640     -1.48974562009349
  H   -0.53459161160887     -1.24177063494121      0.73324756074531
  H   0.60772435260433      1.26791031987917     -0.63109636377883
  N   -1.70746058182071      0.49976201909179      0.63214415961665
  O   -1.93410581513945      1.37306188587354      1.45469897578175
  O   -2.45819029066826      0.08242753692418     -0.24382304868254
  N   1.65321098084271     -0.54519279664072     -0.70748523195260
  O   2.63487587183292      0.07984330044746     -1.09065930218330
  O   1.61311167002134     -1.73877936237245     -0.42331149754139
