12
Coordinates from ORCA-job run
  C   -0.57367243039934     -0.42759903367946      0.60938246795075
  C   0.41542002898916     -0.70812625231217     -0.49314066181956
  F   0.05029412484768     -0.31057750311031      1.80129692693588
  H   -0.07579069261705     -0.65976333707402     -1.46443734964799
  H   -1.32215870779192     -1.22180938520810      0.66329949374899
  H   0.88400506416929     -1.67968846826625     -0.34716961916095
  N   -1.37013862398731      0.83323911454488      0.33209469145508
  O   -1.44141566201181      1.67431359107182      1.20949987760059
  O   -1.91938525353023      0.84059252196543     -0.76346646540657
  N   1.51670366315437      0.30289950722436     -0.50195826467051
  O   2.64448366581287     -0.11228570295713     -0.74128782371008
  O   1.19265482336428      1.46980494780095     -0.30511327327563
