12
Coordinates from ORCA-job run
  C   -0.40541440514488     -0.26273897535928      0.58921731366142
  C   0.41567250491380      0.29143465959963     -0.54737506560053
  F   0.20720823433269     -0.03169324446010      1.77013394208579
  H   -0.10968409804210      0.17473357630137     -1.49487774969647
  H   -0.61725873666890     -1.32491334319729      0.47862527023904
  H   0.68268883838660      1.33188272042470     -0.36763028065308
  N   -1.74223434523002      0.44853695320666      0.57265541756383
  O   -2.01673285041943      1.18511030218252      1.50687572954909
  O   -2.42792946083944      0.20320061403354     -0.41458007187086
  N   1.69367770184038     -0.47912943333317     -0.65829009323067
  O   1.60652157886244     -1.70084991875890     -0.57570609049690
  O   2.71548503800886      0.16642608936031     -0.85904832155065
