12
Coordinates from ORCA-job run
  C   -0.37804391298115     -0.22239792185795      0.62325986787176
  C   0.38979670773388      0.25364695743401     -0.58378236425648
  F   0.29165249629567      0.07768020805576      1.75671167662028
  H   0.66984968572716      1.30124729002015     -0.48275595378420
  H   -0.59954732588490     -1.28781024944905      0.58988466834450
  H   -0.18092392987482      0.08183374125138     -1.49600395916710
  N   -1.71109460504484      0.49590059420283      0.62586307775957
  O   -2.44496707172459      0.19300659803845     -0.30944682388151
  O   -1.93691154165334      1.29259977321484      1.52305031160044
  N   1.65758576643087     -0.53179866447846     -0.70663078739820
  O   2.67153573089810      0.09240596135895     -0.99552832521090
  O   1.56906800007795     -1.74531428779093     -0.54362138849816
