12
Coordinates from ORCA-job run
  C   -0.62757228045774     -0.59827287540439      0.40455234612249
  C   0.85755002051347     -0.35761655014734      0.24229218421367
  F   -0.83999887172495     -1.19687130740264      1.60096224242587
  H   1.21734345555570      0.33524418561034      1.00071265073571
  H   -1.06405596531082     -1.18415441321298     -0.40202414695767
  H   1.38274565803328     -1.31124143223407      0.28977931626949
  N   -1.32777958977539      0.73882520730577      0.40136684982256
  O   -1.33192194060992      1.36384705795644      1.45298702544271
  O   -1.78570975944110      1.08966807122356     -0.68244837342700
  N   1.11504887872867      0.23142418169493     -1.10280448021499
  O   1.53471073785220      1.38392522663447     -1.14437114571810
  O   0.86863965663661     -0.49477735202409     -2.06200446871474
