12
Coordinates from ORCA-job run
  C   -0.57278774971761     -0.43324737659392      0.60676140134105
  C   0.41573492397270     -0.70409932642211     -0.49871930850289
  F   0.05197188511353     -0.32474581047687      1.79892902857513
  H   -0.07613361303733     -0.64922296549093     -1.46932642973898
  H   -1.32070198416479     -1.22840127766086      0.65479738601534
  H   0.88626504440402     -1.67585191560029     -0.36053240054909
  N   -1.37095959431018      0.82896185361907      0.33978067239593
  O   -1.44265845626873      1.66272583292072      1.22410627112475
  O   -1.92098045918893      0.84454452000417     -0.75529473940444
  N   1.51555384354481      0.30875719954317     -0.50078245410969
  O   1.19026743124518      1.47353481863306     -0.29393871399013
  O   2.64342872840734     -0.10295555247521     -0.74578071315699
