12
Coordinates from ORCA-job run
  C   -0.32339929265288      0.14292236665829      0.67539093306825
  C   0.31874289378338     -0.09387469938998     -0.66811348758993
  F   0.06237815856190      1.33460575610324      1.17942095855695
  H   -0.04660982066070     -1.01992550541869     -1.11132534249596
  H   -0.11460754053412     -0.65180634722966      1.38962089821699
  H   0.16067939242581      0.75386667712861     -1.33330087084034
  N   -1.82294057053384      0.15142031122609      0.46499196861026
  O   -2.28839552070850     -0.93351344739895      0.13149916216077
  O   -2.42375026249775      1.20131094235358      0.63091762775266
  N   1.79636216773988     -0.24674610604655     -0.49072901500338
  O   2.51550243056016      0.32738614361136     -1.29972667153151
  O   2.16603796451667     -0.96664609159735      0.43235383909524
