12
Coordinates from ORCA-job run
  C   -0.58745755870741     -0.43839088385347      0.58864995538535
  C   0.43374840150426     -0.70075837200215     -0.48858981424111
  F   0.00219623629517     -0.33030388147708      1.79860592268639
  H   0.90560027397416     -1.67033652439162     -0.34012522830672
  H   -1.33294730891266     -1.23690138360127      0.61261101504448
  H   -0.03026969481504     -0.64490997468760     -1.47278187562867
  N   -1.38417219200488      0.82071567041762      0.30251894990018
  O   -1.48598195275907      1.65142303602132      1.18674116668620
  O   -1.90261328054128      0.83639568117117     -0.80782816338003
  N   1.52781185539448      0.31793750035119     -0.45583242552689
  O   2.66456974673225     -0.08729668500218     -0.66845787300408
  O   1.19051547384004      1.48042581705408     -0.25551162961510
