13
Coordinates from ORCA-job run
  C   0.96432166684047      0.13967343721195      0.24549112019154
  C   -0.12667778210743     -0.90626759858892     -0.04491903272221
  Br  2.65398494089171     -0.77759993067656      0.66020639876707
  H   -0.20013805865179     -1.54870211666250      0.83660420573686
  H   0.23084217605878     -1.52137825800779     -0.87505942912362
  C   1.19125648298837      0.99247230050021     -0.92115719790516
  N   1.33161004421227      1.65334167583333     -1.88314235265489
  C   0.60506154992543      0.96250217376450      1.40028445866301
  N   0.26812779861780      1.59961540633643      2.32896758889785
  C   -1.46963154768749     -0.26293699915999     -0.37291087447131
  H   -1.40426617249082      0.36872693441515     -1.26105024291635
  H   -2.20719547540598     -1.04306213365877     -0.57090789020681
  H   -1.83729562319133      0.34161510869294      0.45859324774402
