13
Coordinates from ORCA-job run
  C   0.97821391964869      0.13458547192132      0.18637686719993
  C   -0.13967283070877     -0.90565007096695     -0.00556417803261
  Br  2.67785689645267     -0.79055261458951      0.53668850596595
  H   -0.17309731579998     -1.51263523555980      0.90323494438766
  H   0.16416600647439     -1.55752672862584     -0.82900914587741
  C   1.14870944377008      0.94698897809478     -1.01803637062487
  N   1.24166354188328      1.57754146791324     -2.00575008109659
  C   0.69309516133019      0.99887637118563      1.33169081102221
  N   0.41587765421538      1.66998443265557      2.25612935394603
  C   -1.49035876083831     -0.25570367048389     -0.28528841733197
  H   -1.46546492704116      0.34117543736659     -1.19928107168867
  H   -1.80482993341662      0.38501287509034      0.54108187092799
  H   -2.24715885596984     -1.03209671400146     -0.41327308879763
