13
Coordinates from ORCA-job run
  C   0.86570952436347      0.26556056903533      0.16653574968153
  C   -0.31148748075944     -0.21511914379607     -0.70387685656809
  Br  1.78686659626453     -1.26926815439403      0.98902349681687
  H   -0.68732306741883      0.67270490350132     -1.22494390865246
  H   0.10361493997123     -0.88809166180893     -1.45924558973481
  C   1.84884238295746      0.97209643592778     -0.65364738893141
  N   2.60949936328038      1.53663444446901     -1.34984325804039
  C   0.40068547771149      1.13644319627489      1.24561502828300
  N   -0.01844937087892      1.83054034846464      2.09663981296722
  C   -1.43081952298016     -0.88279030570737      0.08185106685749
  H   -1.85874579277782     -0.20315938931263      0.82172065711886
  H   -1.08033151737143     -1.77940026025072      0.59408042748079
  H   -2.22806153236197     -1.17615098240321     -0.60390923727862
