13
Coordinates from ORCA-job run
  C   0.82790994651640      0.34999324584070      0.20461388621955
  C   -0.39774875125321     -0.56303296900554      0.40173253042936
  Br  2.12661380925413     -0.49384376670275     -1.01355350829508
  H   -0.02729661645151     -1.51304616100745      0.79646223671018
  H   -1.00324144020506     -0.09481719616721      1.18584907589332
  C   0.43951277711880      1.63413698066873     -0.37745610995288
  N   0.07805678183374      2.65139860759508     -0.84249456448076
  C   1.50792716247936      0.56642139977094      1.48095493003698
  N   2.01564516448454      0.71431329957484      2.53078683172804
  C   -1.22690926573786     -0.76940942095156     -0.85738761824593
  H   -0.64536435411750     -1.24904682663653     -1.64525625808590
  H   -2.07804865618405     -1.41320339932846     -0.62734201246562
  H   -1.61605655773777      0.17713620634922     -1.23790941949125
