13
Coordinates from ORCA-job run
  C   0.85097430904671      0.18381726046284      0.28137083963358
  C   -0.64304216781226     -0.14772498062812      0.45756793982397
  Br  1.90054778447633     -1.46661233524131      0.04892557036002
  H   -0.72523687585793     -0.80469604484916      1.32784819157520
  H   -1.13720644553647      0.79700464939951      0.71119812039356
  C   1.07003011164592      1.02205619686421     -0.89722723365858
  N   1.22674826625254      1.71718766672617     -1.83223211478001
  C   1.36644531822330      0.86088419141491      1.47090125816117
  N   1.77409692473049      1.38681723965164      2.44002221074374
  C   -1.28911909817059     -0.76960713112613     -0.77203490011866
  H   -2.34556800985813     -0.95643718522225     -0.56989954757488
  H   -0.82269064397429     -1.72046840434976     -1.03158589619458
  H   -1.22597947316562     -0.10322112310254     -1.63485443836454
