13
Coordinates from ORCA-job run
  C   0.89407413620526      0.20428967390438      0.09053697576558
  C   -0.39877792979354     -0.12736681298904     -0.67958928449843
  Br  1.81112148264242     -1.44928288966739      0.64331614439845
  H   -0.11041023870016     -0.73779671246008     -1.53976223607731
  H   -0.77664412199657      0.82636427260526     -1.06493443183776
  C   1.81719417199300      0.94757283586006     -0.76614508028666
  N   2.51989695154418      1.55009932679760     -1.49061357066674
  C   0.60376559006320      0.97855890592458      1.29691745090001
  N   0.32332783262145      1.60406514562466      2.25188711360788
  C   -1.46198660868188     -0.81824587888402      0.16181233259185
  H   -2.34522814513839     -1.00235031230372     -0.45291863146748
  H   -1.11040972395526     -1.77788504079758      0.54197729539886
  H   -1.76592339680370     -0.19802251361471      1.00751592217176
