13
Coordinates from ORCA-job run
  C   0.86081969008078      0.22691900171615      0.24260629736699
  C   -0.49574663382115     -0.48965925894769      0.39006357723555
  Br  2.07735054681912     -0.82862692689077     -0.89187163519177
  H   -1.06185103087459      0.08066727941895      1.13508896597567
  H   -0.29119293907429     -1.47533748917133      0.81703987222382
  C   0.69618933108928      1.53942038592248     -0.38106317533780
  N   0.50861663495655      2.58435839590356     -0.88608001685719
  C   1.50126518466515      0.37274927295509      1.54902447430147
  N   1.97085617258649      0.47584177550055      2.62159048274889
  C   -1.28396246902062     -0.59762458255174     -0.90709663302099
  H   -2.23272533135624     -1.10126618448663     -0.71208384316437
  H   -0.74366326229648     -1.17621309924675     -1.65701301907319
  H   -1.50695589375401      0.38777142987814     -1.32120534720711
