13
Coordinates from ORCA-job run
  C   0.88063017648002      0.23116789245298      0.13810316867744
  C   -0.34441454421309     -0.19504304189163     -0.69378242275198
  Br  1.77784640021946     -1.34724096998545      0.90261998827067
  H   0.01830451204996     -0.87138983913065     -1.47268806193802
  H   -0.70695616900668      0.71279125669997     -1.18903330024448
  C   1.85575751329323      0.91600268658401     -0.70988276679481
  N   2.60807608293837      1.47136636430479     -1.42215315621729
  C   0.48753661296831      1.10209683248085      1.24525345301946
  N   0.12557110187791      1.80370549060429      2.11620668320044
  C   -1.45750827599331     -0.83404743390063      0.12380886977620
  H   -2.28899827029848     -1.08934129681455     -0.53597521045126
  H   -1.12104454623440     -1.74971303982015      0.61101536944002
  H   -1.83380059408133     -0.15035490158382      0.88750738601362
