13
Coordinates from ORCA-job run
  C   0.84037457825407      0.26749718721297      0.26080961121958
  C   -0.49295357142758     -0.49435997020117      0.39240804637942
  Br  2.13188901934606     -0.78045717040969     -0.79526035104060
  H   -1.10506797720962      0.08431611504920      1.09342400646594
  H   -0.26749178255542     -1.45312280826667      0.86741521274415
  C   0.64825753612571      1.55023452986433     -0.41478702287367
  N   0.45152855760685      2.57594163221944     -0.95435136920983
  C   1.43283470477514      0.48556447841883      1.57948742302504
  N   1.87571004030842      0.66418198225602      2.65362640354909
  C   -1.23125710541125     -0.68489563354829     -0.92441214504816
  H   -2.16625162995661     -1.21753615836068     -0.74022688261924
  H   -1.47705566001900      0.27379101138941     -1.38569044360405
  H   -0.64351670983677     -1.27115519562367     -1.63144248898767
