13
Coordinates from ORCA-job run
  C   0.97178025020836      0.13516337739142      0.20895487414721
  C   -0.13457546057255     -0.90728056394189     -0.03055896902558
  Br  2.67026939885568     -0.78838710678772      0.57294141247862
  H   -0.18098109640195     -1.53866468251732      0.86089316757854
  H   0.18968109622040     -1.53503994806652     -0.86501759012632
  C   1.16313124923239      0.97515601907855     -0.97290490428529
  N   1.27870698010959      1.63584353396292     -1.93827506211720
  C   0.65972843544235      0.97169441929075      1.36735788582818
  N   0.36668760233860      1.62798496751414      2.29752820588417
  C   -1.48420481608436     -0.25910923432988     -0.31929131487642
  H   -2.23310880012225     -1.03679349232320     -0.48177027880656
  H   -1.81886288478395      0.35797783980888      0.51717010433536
  H   -1.44625195444230      0.36145487091987     -1.21702753101472
