14

C	0.0	0.0	0.0
C	-0.596955	0.038431	-1.399831
Br	1.938617	0.0	0.0
H	-1.677974	-0.156989	-1.172074
H	-0.264573	0.955252	0.469009
N	-0.507109	-1.169746	0.660656
H	-1.535704	-1.031337	0.627153
H	-0.226863	-1.150331	1.636286
C	-0.080893	-1.009242	-2.267468
N	0.282253	-1.832754	-3.023973
N	-0.440582	1.372286	-1.998435
H	-0.438642	1.287786	-3.010279
H	-1.288568	1.878202	-1.746456
H	-3.021381	0.0	0.0
