14

C	0.0	0.0	0.0
C	-0.338315	0.123238	-1.53114
Br	1.998855	0.0	0.0
H	0.436209	-0.445973	-2.055166
H	-0.247016	0.919084	0.539361
N	-0.564647	-1.202267	0.522091
H	-1.58761	-1.025577	0.462512
H	-0.336689	-1.267231	1.509621
C	-0.151526	1.532023	-1.925604
N	0.006783	2.656894	-2.222892
N	-1.622207	-0.356865	-1.99024
H	-1.586428	-1.37094	-1.955419
H	-2.364281	-0.088756	-1.297853
H	-3.218377	0.0	0.0
