14

C	0.0	0.0	0.0
C	-0.542069	0.00145	-1.426573
Br	1.955293	0.0	0.0
H	-1.645073	-0.047734	-1.224025
H	-0.254864	0.977098	0.431475
N	-0.534128	-1.129601	0.691674
H	-0.311862	-1.050379	1.679237
H	-1.565068	-0.974863	0.597229
C	-0.133078	-1.192271	-2.165362
N	0.168022	-2.140632	-2.790226
N	-0.271668	1.200751	-2.207458
H	0.699558	1.471565	-2.086596
H	-0.858506	1.941349	-1.836775
H	-2.971952	0.0	0.0
