14

C	-0.011788	-0.036405	-1.522185
C	0.0	0.0	0.0
F	-1.267405	-0.040331	-2.120241
H	1.094251	0.0	0.0
H	-0.395498	0.947919	0.363291
N	0.648834	1.193566	-1.928648
H	1.559519	1.143221	-1.460315
H	0.812939	1.143805	-2.929872
N	0.64679	-1.268362	-1.905495
H	0.805302	-1.251168	-2.908082
H	1.556661	-1.218925	-1.437014
C	-0.612232	-1.135265	0.650174
N	-1.099613	-2.040747	1.218669
F	2.657245	0.0	0.0
