14

C	-0.024703	-0.186775	-1.519469
C	0.0	0.0	0.0
F	-1.315065	-0.325749	-2.028292
H	1.090923	0.0	0.0
H	-0.407397	-0.872359	0.511836
N	0.574506	0.941898	-2.209739
H	1.496541	1.025976	-1.776947
H	0.054673	1.786778	-1.986431
N	0.722248	-1.389	-1.769766
H	1.606882	-1.250728	-1.265485
H	0.932341	-1.39901	-2.76371
C	-0.598613	1.236245	0.443787
N	-1.060175	2.257453	0.800221
F	2.64724	0.0	0.0
