14

C	-0.142032	-0.047274	-1.533057
C	0.0	0.0	0.0
F	-1.318965	0.637924	-1.946602
H	1.090743	0.0	0.0
H	-0.411484	-0.881536	0.494805
N	0.966142	0.593733	-2.196626
H	0.82876	1.593685	-2.093646
H	1.796118	0.361613	-1.617645
N	-0.189495	-1.404615	-1.957928
H	-0.090829	-1.413808	-2.965708
H	-1.070987	-1.820921	-1.687411
C	-0.522185	1.218142	0.583638
N	-0.937075	2.199967	1.078898
F	2.652829	0.0	0.0
