14

C	-0.412476	-0.051402	-1.460845
C	0.0	0.0	0.0
F	-1.715656	-0.649526	-1.52709
H	1.094128	0.0	0.0
H	-0.268855	-0.9735	0.43132
N	-0.412722	1.227659	-2.058363
H	-0.676873	1.121775	-3.02947
H	-1.046702	1.850094	-1.577477
N	0.44911	-0.907254	-2.244791
H	1.396478	-0.682173	-1.931157
H	0.265027	-1.862056	-1.956591
C	-0.708134	1.022969	0.719672
N	-1.374002	1.91967	1.108208
F	2.607628	0.0	0.0
