19

C	0.0	0.0	0.0
C	-0.352634	0.234544	-1.497646
Br	1.966778	0.0	0.0
H	0.334211	-0.38932	-2.073266
C	-0.410235	1.050852	1.008899
H	-0.022656	0.773427	1.987983
H	-1.505527	1.03204	0.983245
H	0.011783	2.015551	0.726822
N	-0.346046	-1.40173	0.475524
O	-0.686775	-1.538193	1.641725
O	-0.148224	-2.310077	-0.322742
C	-0.182233	1.701917	-1.85021
H	0.781322	2.074979	-1.50335
H	-0.992224	2.269138	-1.396104
H	-0.241459	1.83396	-2.930387
N	-1.700291	-0.226991	-2.065296
O	-2.422195	0.626894	-2.566122
O	-1.844058	-1.432408	-2.214028
F	-2.518312	0.0	0.0
