19

C	0.0	0.0	0.0
C	-0.356275	-0.064013	-1.542933
Br	1.941002	0.0	0.0
H	0.536474	0.32684	-2.032953
C	-0.568193	1.232985	0.654873
H	-0.231198	2.126221	0.125444
H	-1.666875	1.079651	0.577492
H	-0.231074	1.279504	1.69025
N	-0.470051	-1.198234	0.822877
O	-1.058345	-2.109469	0.265237
O	-0.207901	-1.139427	2.020459
C	-1.551919	0.708692	-2.058053
H	-2.455695	0.379692	-1.517981
H	-1.595552	0.577953	-3.142273
H	-1.387325	1.769506	-1.851064
N	-0.371318	-1.48749	-2.072817
O	-1.363995	-1.881157	-2.6714
O	0.661529	-2.13895	-1.924872
F	-2.996554	0.0	0.0
