19

C	0.0	0.0	0.0
C	-0.580894	-0.093961	-1.421227
Br	1.969996	0.0	0.0
H	-1.676142	-0.170331	-1.167287
C	-0.469307	1.249673	0.710929
H	-1.566031	1.18866	0.639128
H	-0.062011	2.128118	0.209096
H	-0.126693	1.241292	1.743383
N	-0.440503	-1.220682	0.802087
O	-0.600217	-1.071937	2.004127
O	-0.544711	-2.286035	0.206313
C	-0.024037	-1.121535	-2.390442
H	-0.260641	-2.122798	-2.045574
H	-0.493325	-0.966866	-3.36579
H	1.055384	-1.018017	-2.509874
N	-0.399365	1.248533	-2.07007
O	0.7203	1.532417	-2.509265
O	-1.378414	1.986951	-2.157115
F	-2.79729	0.0	0.0
