14
Coordinates from ORCA-job run
  C   0.81824090858786      0.06458631185390      0.12754537872307
  C   -0.59134518858283      0.34381159800344     -0.45384964643453
  Br  1.76049565331984      1.83487868760378      0.22711224454612
  H   -0.43525236929101      0.84394574111430     -1.41611934178746
  C   0.69047997986756     -0.40621731696270      1.50591865892814
  N   0.54474393101202     -0.79250014041730      2.60636629985292
  N   1.49666104144471     -0.89363656434027     -0.66174618165628
  H   2.37999022872276     -1.17136170080944     -0.25303801625876
  H   1.65263334972564     -0.55482497338877     -1.60393735088052
  N   -1.34039876533016      1.22967288437323      0.40865989686096
  H   -2.10158703014894      1.66029152732029     -0.09957761562229
  H   -1.72923738473289      0.72095342918425      1.19441738015842
  C   -1.26077849071402     -0.94884145954122     -0.70619203099988
  N   -1.88364586388052     -1.93075802399349     -0.87655967542994
