14
Coordinates from ORCA-job run
  C   0.72360132804747     -0.14310777286328      0.32623666624867
  C   -0.69167761158766     -0.15958468930827     -0.29357457351411
  Br  0.75877348048414      1.41304665090158      1.64685050588197
  H   -0.69673242319043     -1.03532131297856     -0.95265660182343
  C   0.95386373170779     -1.33001250870211      1.14430092028735
  N   1.13810027236152     -2.30701564409081      1.77142504723806
  N   1.66196097855445     -0.03991211505786     -0.71002048070201
  H   1.41638125355855      0.72917496315406     -1.32347278706127
  H   2.61691433228254      0.02143116953896     -0.38359480204989
  N   -0.85483665208194      1.02408051141501     -1.11854794965672
  H   -1.59865541072569      0.88201242453949     -1.79025640517901
  H   -1.09096706192140      1.82247896613542     -0.54052110571353
  C   -1.73041569535046     -0.35609448195731      0.72964389938851
  N   -2.60731052213888     -0.52017616072630      1.49418766665541
