14
Coordinates from ORCA-job run
  C   0.87713297613251      0.12672443613058      0.20940494856585
  C   -0.51247425639033      0.43228897966348     -0.42902453195395
  Br  1.79996357419341      1.83961032461947      0.42859416890225
  H   -0.31204548097935      1.01087629083550     -1.33673898649923
  C   0.64671861180802     -0.44934573340366      1.53698839215295
  N   0.38624416541169     -0.93267526991745      2.57601807707130
  N   1.73341935021289     -0.74204340134188     -0.54785399217995
  H   1.33684829633450     -1.67285110067312     -0.62077893184540
  H   1.90947853832201     -0.36367651952536     -1.47112292003003
  N   -1.34193465561908      1.21970858673140      0.45242539865551
  H   -1.72719711174649      0.64803790727963      1.19530226465436
  H   -2.10644610772420      1.64462492188357     -0.05638118266086
  C   -1.10199253266561     -0.86405083807721     -0.82955641044038
  N   -1.58971536728997     -1.89722858420495     -1.10727629439241
