14
Coordinates from ORCA-job run
  C   0.81215833645731      0.08621545991083      0.15204568468209
  C   -0.58775578249692      0.33521750100312     -0.46454187787169
  Br  1.69867681305797      1.88117404743099      0.31061766686397
  H   -0.41955383668426      0.85700395577508     -1.41320445320344
  C   0.65974208563578     -0.41310119764581      1.51787621984270
  N   0.49441601152272     -0.82251421750696      2.60701151106000
  N   1.54043084883548     -0.83699833912135     -0.63384491061003
  H   2.41928263898972     -1.09809803312674     -0.20539349031111
  H   1.71195216982037     -0.47798966363146     -1.56564714118067
  N   -1.38702883034521      1.18322746699881      0.39107557335103
  H   -1.77886674627777      0.64962477114856      1.15875009368126
  H   -2.14911547997504      1.59574557100001     -0.13086369007955
  C   -1.21178724780782     -0.97153985735527     -0.75862081121844
  N   -1.80155098073235     -1.96696746487980     -0.96426037500611
