14
Coordinates from ORCA-job run
  C   0.82931010090858      0.17249421602656      0.09629429615758
  C   -0.58867404836182      0.43781540613162     -0.46336495267751
  Br  1.75668494905749      1.87970769066101      0.25825488252461
  H   -0.43803060813907      1.00540056325067     -1.38565261354019
  C   0.70952284687638     -0.38866375706397      1.45199234308039
  N   0.58191097336522     -0.90171275120327      2.50299636896184
  N   1.56566876161226     -0.64348682317324     -0.83849279052753
  H   2.53883811587935     -0.70415040647383     -0.56258707630298
  H   1.17772746270544     -1.58238926211572     -0.86268798392504
  N   -1.37703249374685      1.21661273209084      0.46423346516429
  H   -1.73684351509023      0.63789380369087      1.21428097653141
  H   -2.15868944303634      1.65015355502037     -0.00923269195738
  C   -1.18549014156369     -0.86805217539656     -0.81642172755048
  N   -1.67590296046672     -1.91062279144534     -1.04961249593900
