14
Coordinates from ORCA-job run
  C   0.72710140985876      0.26072336694906     -0.05336168884782
  C   -0.79948872569496      0.35748997448609     -0.36233140472036
  Br  1.70258237820685      1.15453174917234     -1.57463546316059
  H   -1.01996495509068      1.39389344416498     -0.63238694196773
  C   1.01212901505524      1.06947563337679      1.12986911711767
  N   1.19107988601934      1.71681206847946      2.09425216427218
  N   1.09484473556669     -1.08628996443994      0.16955648467001
  H   2.04131673173523     -1.18030458849093      0.51534848527382
  H   0.97752546157390     -1.64669100770819     -0.66768494723746
  N   -1.64441114486464     -0.03491106025322      0.74000854795776
  H   -1.34141479921273     -0.92762206977111      1.11120745812939
  H   -1.61253696408623      0.65941961074554      1.47646062165585
  C   -1.07243876604781     -0.49885267820908     -1.52575289867982
  N   -1.25532426301898     -1.23667447850180     -2.42054953446289
