14
Coordinates from ORCA-job run
  C   0.69847528361248     -0.19845706735239      0.35065633633981
  C   -0.65281289948631     -0.10668510367921     -0.39284848927542
  Br  0.52946444933498      0.98112447264063      2.00815592346437
  H   -0.54893665591106     -0.79047855249813     -1.24310524646636
  C   0.92277057864428     -1.54297585241609      0.87354649865000
  N   1.10941531332497     -2.63701175848663      1.26087526205071
  N   1.71813733761605      0.18917435941242     -0.52952316685738
  H   1.48654110598612      1.07800023831804     -0.95895177428946
  H   2.63512666654965      0.19780545881255     -0.10369231439967
  N   -0.80928570647700      1.23894616064647     -0.91489325022269
  H   -1.14201852785096      1.85938099020097     -0.18582380309714
  H   -1.48040229187537      1.24396849521709     -1.67243927548481
  C   -1.76584176444889     -0.58359529903493      0.44332606270755
  N   -2.70063288901896     -0.93019654178077      1.06471723688049
