14
Coordinates from ORCA-job run
  C   0.83232432827204      0.11004358823577      0.20907822200726
  C   -0.58182166338736      0.33469279528821     -0.39862951397073
  Br  1.62034715531100      1.90978697059795      0.42207440310262
  H   -0.41528968927448      0.83910045622991     -1.36482735653665
  C   0.70798601581121     -0.49396635423441      1.53564680844298
  N   0.62409301901199     -1.03810028386801      2.57353870525992
  N   1.73154922037590     -0.66698648691005     -0.58923473113802
  H   1.77775337141593     -0.32113006159737     -1.54032875356087
  H   1.47275480851993     -1.64727043280854     -0.58014246389845
  N   -1.44154839244601      1.04488900237068      0.52648463896437
  H   -1.19558133800293      2.02660995929238      0.54287479264009
  H   -2.41384947896717      0.95442055394413      0.26084248212882
  C   -1.14517715472447     -0.99126045061028     -0.68133506682114
  N   -1.57254020191556     -2.05982925593036     -0.91504216662020
