14
Coordinates from ORCA-job run
  C   0.81441275487555      0.07431326839762      0.14510952546554
  C   -0.58298428801044      0.32781302995209     -0.47572464882889
  Br  1.74011955089801      1.85452095904856      0.22469415935196
  H   -0.40832553954373      0.80733432526950     -1.44525012366134
  C   0.65777132157426     -0.36459958118079      1.53111403734941
  N   0.48813114804613     -0.72280597971071      2.63756099264707
  N   1.51913378168367     -0.89661153497158     -0.60440289221745
  H   2.39580014398263     -1.15499456131558     -0.16958675168032
  H   1.69227408473620     -0.58055789573699     -1.55147100361209
  N   -1.35950218965358      1.22669430861338      0.34819872957538
  H   -1.76128312024961      0.73300408979384      1.13701792018588
  H   -2.11294501470426      1.63751379233732     -0.18721199146835
  C   -1.23597239095804     -0.97591042216952     -0.71427496778141
  N   -1.84663024267677     -1.96671379832715     -0.87677298532537
