14
Coordinates from ORCA-job run
  C   0.74185683783953      0.05337504387599      0.10254112468809
  C   -0.68199029604038      0.25758761844122     -0.50835250119225
  Br  1.55339227498941      1.91912177683982      0.21008621734409
  H   -0.52277167560586      0.69170532273698     -1.50333121216365
  C   0.62968337960450     -0.39633774861403      1.48672415090493
  N   0.48112311720699     -0.75988153468478      2.59470761964191
  N   1.49799555745003     -0.84452901902726     -0.66663076212778
  H   1.60248103341354     -0.53920489973654     -1.62635771125270
  H   2.40096456487673     -1.06106923782049     -0.26441752064263
  N   -1.59563862689363      1.10195820902891      0.21495888957879
  H   -1.22756784523591      2.04038387576974      0.29967195381012
  H   -1.78882640545255      0.72905533257510      1.13702795726639
  C   -1.28818943989701     -1.07182761957707     -0.67787482724741
  N   -1.80051247625539     -2.12133711980760     -0.79775337860789
