14
Coordinates from ORCA-job run
  C   0.57218964573212     -0.07033865703475      0.39152040744755
  C   -0.75362106033485     -0.09032369138270     -0.43279619400118
  Br  0.34188354165960      1.04764645960569      1.97434550067173
  H   -0.53117748351191     -0.72693969558808     -1.30172929575085
  C   0.90949536922406     -1.42237435239375      0.85096121318396
  N   1.21874104097935     -2.52160233178173      1.13581902174718
  N   1.58840558490490      0.53848934520093     -0.44372505618226
  H   2.41513761604425      0.75216949568713      0.10293151019518
  H   1.85628763325217     -0.11732298783163     -1.17326516115014
  N   -1.19473929171820      1.19419926184868     -0.91598823695695
  H   -0.39968580987939      1.66991783828251     -1.32866724047660
  H   -1.53526900867599      1.75658948552726     -0.14514383261320
  C   -1.81683319952549     -0.74758245998608      0.33167426444939
  N   -2.66981457815062     -1.26152771015348      0.95306309943619
