14
Coordinates from ORCA-job run
  C   0.87383837554064      0.28085034695490      0.17313451567957
  C   -0.63820048123907      0.47247767287770     -0.17108698051910
  Br  1.86390623073374      1.77467674549905     -0.60727443027451
  H   -0.94221875927286      1.48163813003035      0.13879564548437
  C   0.97916261753694      0.37768932605452      1.63289655728921
  N   0.97446747137080      0.45211267277155      2.80579609027344
  N   1.45373928640353     -0.95199127480491     -0.27608101114519
  H   0.85964358343402     -1.71052309265801      0.04824328412350
  H   1.49049882739081     -0.96748780406342     -1.28998746452966
  N   -1.35811960972972     -0.60973640047451      0.49344871958923
  H   -1.58819327390682     -0.34018638236823      1.44270740710386
  H   -2.21672315858993     -0.83415197550924      0.00697862222615
  C   -0.80596002406156      0.35623846629224     -1.62031574613332
  N   -0.94484108561053      0.22039356939800     -2.77825520916756
