14
Coordinates from ORCA-job run
  C   0.59217323897401     -0.07230687912226      0.36237010842493
  C   -0.78068359968382     -0.08162169481676     -0.38176687760630
  Br  0.50309777957721      1.14522412632514      1.88449948915038
  H   -0.63628576002853     -0.77669351327577     -1.22186173597705
  C   0.89914881433364     -1.40937732609501      0.88267300953186
  N   1.17476254044839     -2.50347818951932      1.21719879797573
  N   1.58039854696250      0.44061882360175     -0.56588328514652
  H   1.77916737749121     -0.26948891888726     -1.26605831562812
  H   2.44546876747045      0.65202273182246     -0.08131647787602
  N   -1.19789197646716      1.19040182024056     -0.91628080575714
  H   -0.41160227894471      1.60367438469203     -1.40619540735488
  H   -1.46397066284906      1.81296834071219     -0.16234615455919
  C   -1.82253646868402     -0.64603078198390      0.48010837438656
  N   -2.66024631860011     -1.08591292369385      1.17485928043576
