14
Coordinates from ORCA-job run
  C   0.65480333538089     -0.07803798685144      0.35433342636078
  C   -0.78378281482101     -0.00764218868448     -0.20843780719659
  Br  0.82262198965322      1.04032841324566      1.93838696071416
  H   -0.77475873576731     -0.69579067880476     -1.07437226923975
  C   0.95982306237286     -1.45788872677266      0.75674304495444
  N   1.23769921275019     -2.57573172969627      0.99556283519277
  N   1.54897905398797      0.43870375662265     -0.66783115542135
  H   2.45886299606340      0.63884399007716     -0.26864745535459
  H   1.67119481773958     -0.26486634312708     -1.39146643259629
  N   -1.10892697313540      1.36390617502629     -0.53430247615419
  H   -0.38642349983816      1.72668327481809     -1.14512628490311
  H   -2.00607954006937      1.40998968381894     -1.00075836669303
  C   -1.74819313268376     -0.54885616750155      0.75486391912687
  N   -2.54781977163311     -0.99064147217054      1.49205206120987
