14
Coordinates from ORCA-job run
  C   0.63077364140582     -0.06975451450704      0.39711783587545
  C   -0.76581165625957     -0.03022136365042     -0.26562041882187
  Br  0.63342689761944      0.96697127520083      2.04429313295181
  H   -0.66357265248266     -0.67012357535805     -1.16199280870019
  C   0.97054645175290     -1.45518253151066      0.74950932538584
  N   1.28469671967129     -2.57101564439049      0.95010589797872
  N   1.57055678386592      0.53933336645934     -0.52877998104331
  H   2.43961804352763      0.75556694679328     -0.05415404300266
  H   1.77605921317608     -0.11789519799300     -1.27677528210542
  N   -1.12961988048113      1.34183212722932     -0.54508483489363
  H   -0.38287971623710      1.76699269071375     -1.08200347601772
  H   -1.99238728804909      1.37490621985679     -1.07340393768559
  C   -1.77063529149320     -0.66172039651245      0.59601805837215
  N   -2.60077126601632     -1.17168940233120      1.25077053170642
