14
Coordinates from ORCA-job run
  C   0.76573523989009      0.06277693727326      0.18297733593873
  C   -0.63534595560328      0.22668901322478     -0.44847661486053
  Br  1.49852596956151      1.95717148217142      0.35183720628848
  H   -0.47095778036129      0.66080424780060     -1.44845824728859
  C   0.67148504909048     -0.44368471596861      1.54873751166065
  N   0.63413870931405     -0.89161295896104      2.63437806872967
  N   1.57404787816804     -0.77418661712546     -0.60765614238146
  H   1.70787769840811     -0.40917577505352     -1.54273843575842
  H   2.46806073813192     -0.97842447145422     -0.18017503405748
  N   -1.49621005091785      1.00877362324052      0.41799760568365
  H   -2.46956804628704      0.84523068871741      0.19583581302057
  H   -1.29484264962319      1.99500293623029      0.31579680464607
  C   -1.21812229455938     -1.10857212742412     -0.63077019728078
  N   -1.73682450521217     -2.14979226267132     -0.78928567434057
