14
Coordinates from ORCA-job run
  C   0.87216841496702      0.13803164896577      0.22803650053620
  C   -0.50427620619057      0.41438268703260     -0.45054276490749
  Br  1.77554685820725      1.86388865634038      0.42356513330969
  H   -0.28714840824729      0.97033372197584     -1.36859563452046
  C   0.61566898913322     -0.40476436496226      1.56470439255433
  N   0.33236989978029     -0.85342420077933      2.61343029909851
  N   1.75303336397826     -0.74272893135765     -0.48644661635969
  H   1.36594832972182     -1.67858389035214     -0.54440281988520
  H   1.94771351115290     -0.38673673581126     -1.41487343440530
  N   -1.36107873230187      1.21633103482977      0.39006785836843
  H   -1.76724204096603      0.65972919898755      1.13323795554888
  H   -2.11002079028847      1.63149597359763     -0.14847258321280
  C   -1.07421364838144     -0.89613504106273     -0.83300783588551
  N   -1.55746954056509     -1.93181975740417     -1.10870045023960
