14
Coordinates from ORCA-job run
  C   0.73133784550509      0.25320878674171     -0.00501414507362
  C   -0.78812716470439      0.41949513339541     -0.31801086688401
  Br  1.74556160710940      1.33804519155880     -1.36816399311137
  H   -0.98910760317226      1.48762411355969     -0.43798650516534
  C   1.00877345995188      0.87937137457835      1.28601725555146
  N   1.18197315272082      1.37876867483995      2.33577729676838
  N   1.07519593827486     -1.11838858421467      0.02774388625520
  H   0.96497958894884     -1.54951410213571     -0.88404843314931
  H   2.01507905536516     -1.27566777413250      0.36890764904363
  N   -1.65674637393051     -0.11368149588083      0.70382373811224
  H   -1.62428050103439      0.46438608914057      1.53446573810590
  H   -1.37467738432298     -1.05660021423708      0.94402454941171
  C   -1.05566032469301     -0.25425253554590     -1.59682732740940
  N   -1.23330129601852     -0.85179465766779     -2.59170884245548
