14
Coordinates from ORCA-job run
  C   0.76523380827021      0.06928363200994      0.18148805068926
  C   -0.63600210833507      0.21438644880480     -0.45400394397475
  Br  1.49264848419940      1.97026024062374      0.30554018389130
  H   -0.47266059871240      0.62445436510021     -1.46433596598856
  C   0.67229597117135     -0.40496055852551      1.55869171030990
  N   0.63650626599020     -0.83088350578724      2.65316707395203
  N   1.57646842562111     -0.78289670845370     -0.58854234109827
  H   1.71139220605950     -0.43939545627955     -1.53140098118146
  H   2.46956173372259     -0.97819102664219     -0.15527510720020
  N   -1.49949163772553      1.01428052105523      0.39328850832991
  H   -1.29921350239797      1.99843273333839      0.27028538758503
  H   -2.47225008589803      0.84435115467378      0.17347017449225
  C   -1.21484982080443     -1.12680221237292     -0.60403305682790
  N   -1.72963914116094     -2.17331962754501     -0.73833969297853
