14
Coordinates from ORCA-job run
  C   0.81516000298584      0.06966583243164      0.14351842055799
  C   -0.58183964906548      0.33066592110794     -0.47509060170171
  Br  1.75102322056572      1.84494774772302      0.21999034175614
  H   -0.40600144414107      0.80712396900716     -1.44591850095564
  C   0.65839045400704     -0.36676044049186      1.53027330394082
  N   0.48813473347951     -0.72187921771054      2.63760777535769
  N   1.51296642818093     -0.90573267390644     -0.60644428840397
  H   1.68675341011691     -0.59126492566698     -1.55390830193615
  H   2.38843066880531     -1.16988979010903     -0.17271828781250
  N   -1.35162421921016      1.23539841073679      0.34855382938938
  H   -1.75476581568236      0.74540404635190      1.13898459172522
  H   -2.10368213805425      1.64952185797796     -0.18627037480088
  C   -1.24274022575910     -0.96980618363696     -0.71028751527106
  N   -1.85920542622883     -1.95739455381460     -0.87029039184534
