14
Coordinates from ORCA-job run
  C   0.82314187835562      0.12792095139633      0.23658774625885
  C   -0.57705353008033      0.32401679770953     -0.41187385131679
  Br  1.55745232865638      1.94330736117637      0.49653116341780
  H   -0.39409674342950      0.84421704251562     -1.36666080429983
  C   0.67346831799867     -0.49701725706075      1.55075836209678
  N   0.56923761848875     -1.05377202179454      2.57999339207991
  N   1.76632547360415     -0.61537047583896     -0.54356867413943
  H   1.83409435317527     -0.25364526504750     -1.48741477987502
  H   1.53005888430321     -1.60127824110421     -0.55769667958510
  N   -1.48291380452506      1.00072643359475      0.49435587196548
  H   -2.44391404113469      0.88826432771405      0.19752456866662
  H   -1.26354072207019      1.98828302462429      0.52896845436046
  C   -1.09822791869744     -1.01171070623996     -0.72753261485965
  N   -1.49503209464483     -2.08494197164503     -0.99197215477009
