14
Coordinates from ORCA-job run
  C   0.78289796115789      0.14997259476937      0.12465043928025
  C   -0.63865269214578      0.32921396083199     -0.45734460460618
  Br  1.58925653113428      1.93378335303288      0.25796250819829
  H   -0.49057489289794      0.79452725116048     -1.44248872360583
  C   0.71033628173937     -0.39502823901827      1.48745812790299
  N   0.70992157758333     -0.92228221003333      2.53864584655917
  N   1.58281027113813     -0.61790508949677     -0.79694990069125
  H   1.24178611915860     -1.57523758565260     -0.82650573845225
  H   2.55015407617218     -0.63494115881410     -0.49449058459481
  N   -1.47804769338080      1.06502868354919      0.46930199407961
  H   -1.27788995319576      2.05508202445551      0.40291544728035
  H   -2.45777322088231      0.91758973865229      0.26387475646660
  C   -1.19929659682401     -1.01019279430405     -0.67348804722438
  N   -1.62496642064826     -2.08959920697998     -0.85454959100211
