14
Coordinates from ORCA-job run
  C   0.87965969514051      0.11773886103393      0.03340245751722
  C   -0.57088625170114      0.57207226935211     -0.25858686624664
  Br  2.11554878408045      1.26068797390208     -0.96497713626206
  H   -0.64100780026977      1.64142490381616     -0.01806117515341
  C   1.13687783098196      0.36477428065757      1.46329995841519
  N   1.28866602504087      0.51095600929280      2.62075519886337
  N   1.03215399928957     -1.23935341775640     -0.38720016503241
  H   1.93696414254925     -1.61204127718055     -0.12735788751838
  H   0.28855764736084     -1.78525381238009      0.03876466495581
  N   -1.45726494884335     -0.27869509513092      0.53432849678965
  H   -2.36469016026435     -0.36745449561801      0.09534602243350
  H   -1.58351935060402      0.11804700611924      1.45802747722576
  C   -0.86920836086911      0.40594443958870     -1.68340801761915
  N   -1.19085125189173      0.29115235430338     -2.80633302836846
