14
Coordinates from ORCA-job run
  C   0.70708606022461     -0.20967070794106      0.32806801127252
  C   -0.66657996557885     -0.09584121404769     -0.36963197218981
  Br  0.61600742180092      0.97760010137316      1.98559363591809
  H   -0.60311821440296     -0.78368315742246     -1.22056098658362
  C   0.92391430733213     -1.55688425449434      0.84727427465177
  N   1.09871270764908     -2.65418819489547      1.23056804766647
  N   1.70333942093042      0.15645467473803     -0.58800459120665
  H   1.47402097872360      1.04911425301176     -1.01063614115434
  H   2.63387556704429      0.14963524221020     -0.19254655714870
  N   -0.81691386962078      1.25085424113874     -0.89079310313343
  H   -1.11369787973435      1.87898137431790     -0.15274064268415
  H   -1.51371127865200      1.26543514392194     -1.62488974206054
  C   -1.75972816430695     -0.55062674215831      0.50429501504281
  N   -2.68220709140915     -0.87818075975241      1.15400475160959
