14
Coordinates from ORCA-job run
  C   0.82085125549163      0.12792111134518      0.24272628929142
  C   -0.57195766165921      0.32126021124620     -0.42283894156728
  Br  1.55978386006196      1.94481966266399      0.48524993880804
  H   -0.37663481070756      0.82773288469354     -1.38257381542074
  C   0.65455115923609     -0.47726525321410      1.56408728451046
  N   0.53314877381922     -1.01822466348050      2.59991559897327
  N   1.76847028436528     -0.62961144524766     -0.51711662390517
  H   1.84476478791324     -0.28442400441215     -1.46651398058757
  H   1.53235212319536     -1.61551660956365     -0.51539134646705
  N   -1.48416892863794      1.01369152593621      0.46459184346338
  H   -2.44230259817190      0.90394293253696      0.15771860319510
  H   -1.25874052346368      2.00010959314067      0.49101972186462
  C   -1.09373406019361     -1.01735190714935     -0.72500665162744
  N   -1.48538366124888     -2.09608403849535     -0.97386792053104
