14
Coordinates from ORCA-job run
  C   0.82167466966259      0.18801594680912      0.12738141377563
  C   -0.57852085464382      0.42527689389852     -0.48642142502750
  Br  1.71110746281902      1.91224000721244      0.31731876919293
  H   -0.40308055021768      0.99197137037055     -1.40491630637856
  C   0.66225108741371     -0.37223365597902      1.47932153364397
  N   0.50767835734037     -0.88884176565128      2.52487883965254
  N   1.60743963091902     -0.61754417299957     -0.77615036605451
  H   1.23897541738878     -1.56407653611239     -0.80900265852380
  H   2.57080902547626     -0.65798660676407     -0.46420936204981
  N   -1.41555800379220      1.19311354298268      0.40710039337320
  H   -2.18534290093655      1.61197728205273     -0.09798319885779
  H   -1.79439663637917      0.61053484965431      1.14469675157199
  C   -1.13857145140220     -0.89215744101575     -0.85643942723316
  N   -1.60446525364811     -1.94228971445828     -1.10557495708515
