14
Coordinates from ORCA-job run
  C   0.78316369059809      0.15448909680474      0.11823978493432
  C   -0.64689113705159      0.33109001049227     -0.44330208259056
  Br  1.57465932861515      1.94358337327967      0.27490863434712
  H   -0.51537900928476      0.81494929318806     -1.42195572545538
  C   0.73219628213323     -0.41527699696481      1.47162815071455
  N   0.74802158644375     -0.96046626223242      2.51350363555419
  N   1.57916629481555     -0.58830690593789     -0.82651790057461
  H   2.54897372868036     -0.60825261502524     -0.53244585431782
  H   1.24197406227166     -1.54583707925152     -0.87654226966231
  N   -1.48127175713840      1.04282612784420      0.50643231960583
  H   -2.46193732142208      0.89404532783788      0.30675885086917
  H   -1.28734340274675      2.03510061831083      0.45786242923563
  C   -1.19865537316294     -1.00911150042190     -0.67651613919995
  N   -1.61667697275126     -2.08883248792386     -0.87305383346016
