14
Coordinates from ORCA-job run
  C   0.64728522872374     -0.07404027661972      0.36381869548453
  C   -0.78316208587419     -0.00887995473747     -0.22086617478780
  Br  0.78931366589676      1.05066380275843      1.94581151181228
  H   -0.76040008106306     -0.70065601060662     -1.08358060781057
  C   0.94980110786692     -1.45188925726909      0.77525755148700
  N   1.22955533925301     -2.56776462948380      1.02166765703280
  N   1.55541419704625      0.44104417091392     -0.64682693569736
  H   2.45969049562762      0.64156697448364     -0.23537256437301
  H   1.68731070667728     -0.26380035324420     -1.36756543417224
  N   -1.10505370110196      1.36042889473721     -0.55842818079809
  H   -1.99272831373674      1.40357084758526     -1.04283971676889
  H   -0.37095752507213      1.72351781745352     -1.15502562684322
  C   -1.75912937777831     -0.54815343524711      0.73173684143024
  N   -2.54693965646519     -1.00360859072399      1.47321298400433
