14
Coordinates from ORCA-job run
  C   0.58830514429232     -0.07564347262876      0.36693175125319
  C   -0.77432065083538     -0.08088075495056     -0.39552262846447
  Br  0.45884643274973      1.08401528464765      1.93108129822301
  H   -0.60750168953805     -0.74299573013565     -1.25779836561895
  C   0.91176385170687     -1.42536650029843      0.84307596248526
  N   1.20064293566466     -2.52658442798174      1.14099871134600
  N   1.57947950802455      0.48742291814470     -0.52838226632927
  H   1.79609693443513     -0.19140076424223     -1.25402776670167
  H   2.43615107130626      0.69088602359294     -0.02560149546811
  N   -1.20582913615547      1.20275336722961     -0.88944068078940
  H   -1.49636994007032      1.79178265648732     -0.11793716004484
  H   -0.41942371029244      1.64806928511473     -1.34979557016252
  C   -1.81664745672442     -0.69281755916010      0.43264539015469
  N   -2.65219329456344     -1.17024032581948      1.10477282011709
