14
Coordinates from ORCA-job run
  C   0.62763989615071     -0.07868175790214      0.40005026733773
  C   -0.76408505214408     -0.02358773713916     -0.27182614703866
  Br  0.61830222520660      0.92109842179412      2.07004117823875
  H   -0.65489780862028     -0.64167750960631     -1.18244092535344
  C   0.96458280393036     -1.47174257495790      0.72408461682371
  N   1.27702259478329     -2.59174363366656      0.90275667513685
  N   1.57452496013488      0.55051390356045     -0.50476228137810
  H   1.78376695513854     -0.08895617869112     -1.26700805908574
  H   2.44070720693123      0.75388661445763     -0.01952648294160
  N   -1.12602497870976      1.35484933871820     -0.52156013490338
  H   -1.98293538371571      1.39970886449350     -1.05864576367395
  H   -0.37393421301448      1.79288763616748     -1.04045494541102
  C   -1.77483492309361     -0.67523118866338      0.56730047656788
  N   -2.60983428297769     -1.20232419856480      1.20199152568097
