13

C	0.0	0.0	0.0
C	-0.606083	-0.166543	-1.385969
Cl	1.748848	0.0	0.0
H	-0.57983	0.804018	-1.879651
H	-0.381502	0.910292	0.45518
H	-1.641548	-0.496891	-1.264135
N	-0.404807	-1.111968	0.941392
O	-0.407548	-2.246622	0.479773
O	-0.618364	-0.785794	2.101983
N	0.127524	-1.093175	-2.293725
O	1.093934	-0.622965	-2.899109
O	-0.289413	-2.241565	-2.420471
Cl	-3.482411	0.0	0.0
