13

C	0.0	0.0	0.0
C	-0.472628	0.285801	-1.418463
Cl	1.760918	0.0	0.0
H	-1.564999	0.208379	-1.453458
H	-0.341185	0.734475	0.722761
H	-0.008832	-0.369823	-2.159226
N	-0.466448	-1.342017	0.480654
O	-0.578807	-1.443438	1.693696
O	-0.618682	-2.232602	-0.345301
N	-0.152384	1.695154	-1.767496
O	-0.064283	1.960246	-2.963267
O	-0.080065	2.510859	-0.851462
Cl	-3.223452	0.0	0.0
