16

C	-0.631218	-0.023622	-1.392387
C	0.0	0.0	0.0
Cl	-0.052234	-1.401096	-2.358722
H	1.09692	0.0	0.0
C	-2.09018	-0.07994	-1.319838
N	-3.260032	-0.147911	-1.224912
N	-0.238962	1.266821	-2.124076
O	0.921365	1.354344	-2.48473
O	-1.116743	2.113341	-2.247449
N	-0.492948	-1.182616	0.728303
H	-0.071662	-1.99979	0.29092
H	-0.031487	-1.121503	1.633544
N	-0.414318	1.226491	0.630467
H	-1.232581	1.081243	1.209894
H	0.360495	1.575258	1.184173
H	2.785098	0.0	0.0
