16

C	-0.472086	0.003427	-1.466316
C	0.0	0.0	0.0
Cl	0.143658	-1.416822	-2.349341
H	1.096919	0.0	0.0
C	-1.925762	0.043828	-1.590345
N	-3.099125	0.054094	-1.6475
N	0.102985	1.248253	-2.162074
O	-0.708263	2.084747	-2.553944
O	1.313301	1.326768	-2.204037
N	-0.587704	-1.167839	0.664969
H	-0.107608	-1.994593	0.319542
H	-0.306712	-1.08766	1.638212
N	-0.449735	1.244572	0.567849
H	-1.356235	1.137985	1.005318
H	0.236935	1.576532	1.231477
H	2.823124	0.0	0.0
