16

C	-0.653731	-0.01537	-1.379172
C	0.0	0.0	0.0
Cl	0.026378	-1.263127	-2.445577
H	1.095044	0.0	0.0
C	-2.096652	-0.21919	-1.239512
N	-3.229606	-0.437677	-1.011758
N	-0.447535	1.322496	-2.089206
O	0.663235	1.819749	-2.006299
O	-1.401873	1.762818	-2.72557
N	-0.356715	-1.23208	0.66473
H	0.412525	-1.495017	1.271956
H	-1.216966	-1.157764	1.196972
N	-0.428711	1.249147	0.636159
H	0.418149	1.727565	0.931017
H	-0.973366	1.048955	1.465576
H	2.728071	0.0	0.0
