16

C	-0.582255	0.01312	-1.400905
C	0.0	0.0	0.0
Cl	-2.38438	0.083039	-1.364911
H	1.093158	0.0	0.0
C	-0.111777	1.147436	-2.188526
N	0.225368	2.06051	-2.847527
N	-0.157924	-1.271315	-2.12587
O	0.982263	-1.231868	-2.571356
O	-0.927839	-2.216633	-2.157739
N	-0.3568	-1.237318	0.653036
H	-1.220084	-1.165982	1.175658
H	0.405636	-1.481367	1.276202
N	-0.344511	1.265175	0.621267
H	-1.18013	1.190923	1.188361
H	0.441363	1.536782	1.204485
H	2.67901	0.0	0.0
