13

C	-0.465794	0.036167	-1.43068
C	0.0	0.0	0.0
Cl	-0.165512	-1.484406	-2.297562
H	1.092513	0.0	0.0
H	-0.008608	0.852243	-1.98571
H	-0.361632	-0.91292	0.480668
N	-1.954769	0.294435	-1.49087
O	-2.659185	-0.240199	-0.638327
O	-2.36365	1.000183	-2.410189
N	-0.468222	1.236074	0.629783
H	-1.259337	1.050207	1.234952
H	0.286954	1.620786	1.185915
Cl	3.43788	0.0	0.0
