13

C	-0.463723	-0.063132	-1.433329
C	0.0	0.0	0.0
Cl	-2.246508	-0.075326	-1.565944
H	1.094753	0.0	0.0
H	-0.09182	-0.948045	-1.940729
H	-0.358542	0.929771	0.450756
N	0.020795	1.116486	-2.22589
O	-0.141887	2.228729	-1.734156
O	0.527242	0.877116	-3.319049
N	-0.44438	-1.217759	0.676772
H	-1.24953	-1.033527	1.258717
H	0.310675	-1.542041	1.266225
Cl	3.414954	0.0	0.0
