13

C	-0.470106	0.018746	-1.430057
C	0.0	0.0	0.0
Cl	-0.170982	-1.509451	-2.274938
H	1.092494	0.0	0.0
H	-0.011224	0.823544	-1.997341
H	-0.362596	-0.905118	0.494824
N	-1.955382	0.282121	-1.497405
O	-2.354845	1.005673	-2.4074
O	-2.665845	-0.256393	-0.652579
N	-0.465871	1.245388	0.612685
H	-1.250355	1.068658	1.226009
H	0.2909	1.642482	1.154308
Cl	3.451354	0.0	0.0
