13

C	-0.405756	-0.010013	-1.469732
C	0.0	0.0	0.0
Cl	-0.063683	-1.559056	-2.24705
H	1.093075	0.0	0.0
H	0.083167	0.777211	-2.039221
H	-0.38023	-0.907706	0.47248
N	-1.880472	0.271621	-1.585324
O	-2.657728	-0.526818	-1.07234
O	-2.200191	1.334445	-2.119478
N	-0.449207	1.172836	0.727711
H	0.095808	1.982278	0.463766
H	-1.433751	1.368211	0.601191
Cl	3.446286	0.0	0.0
