17

C	0.0	0.0	0.0
C	-0.337323	0.194884	-1.5095
Cl	1.797766	0.0	0.0
H	0.343156	-0.460173	-2.053223
N	-0.562047	0.998026	0.84085
H	-1.554212	1.096766	0.614602
H	-0.490658	0.716447	1.811823
C	-0.360998	-1.391154	0.349598
N	-0.610399	-2.498838	0.653831
N	0.083198	1.575651	-1.934795
O	1.080805	1.660918	-2.654056
O	-0.618692	2.518243	-1.580812
C	-1.761917	-0.033281	-1.947836
H	-1.80388	0.089275	-3.034492
H	-2.473678	0.639028	-1.477487
H	-2.087516	-1.041088	-1.691451
Cl	-4.306019	0.0	0.0
