17

C	0.0	0.0	0.0
C	-0.335414	0.099162	-1.521448
Cl	1.796619	0.0	0.0
H	0.349466	-0.583909	-2.023125
N	-0.562498	1.049629	0.774831
H	-0.4828	0.831666	1.761745
H	-1.556345	1.132074	0.549866
C	-0.362975	-1.364593	0.436146
N	-0.618682	-2.444264	0.825587
N	0.077648	1.453099	-2.029064
O	-0.634694	2.410166	-1.740879
O	1.082137	1.501306	-2.742691
C	-1.758142	-0.165434	-1.945609
H	-2.474045	0.533627	-1.524259
H	-1.802365	-0.11934	-3.038591
H	-2.077637	-1.155098	-1.620568
Cl	-4.305702	0.0	0.0
