17

C	0.0	0.0	0.0
C	-0.525894	-0.178256	-1.438355
Cl	1.784909	0.0	0.0
H	-1.580975	-0.454434	-1.324475
N	-0.509076	1.238757	0.51742
H	-1.535593	1.145576	0.475677
H	-0.249484	1.309651	1.496025
C	-0.341956	-1.161966	0.856941
N	-0.527358	-2.006185	1.653569
N	0.152365	-1.35743	-2.065253
O	0.949765	-1.160104	-2.982961
O	-0.134517	-2.464527	-1.608249
C	-0.373056	1.060463	-2.287484
H	-1.037574	1.827246	-1.896287
H	0.651919	1.43003	-2.283746
H	-0.660923	0.833504	-3.314604
Cl	-3.48987	0.0	0.0
