17

C	0.0	0.0	0.0
C	-0.520274	-0.001023	-1.452186
Cl	1.784545	0.0	0.0
H	-1.578854	-0.280969	-1.375692
N	-0.509312	1.169617	0.659492
H	-1.535202	1.087241	0.595239
H	-0.263442	1.116348	1.642534
C	-0.346433	-1.250647	0.716571
N	-0.520509	-2.169281	1.429437
N	0.151998	-1.103939	-2.214578
O	-0.090441	-2.253007	-1.850373
O	0.896579	-0.806253	-3.148677
C	-0.356423	1.328085	-2.14829
H	-0.97765	2.062023	-1.638799
H	0.68153	1.661838	-2.141164
H	-0.689776	1.23742	-3.183237
Cl	-3.482184	0.0	0.0
