17

C	0.0	0.0	0.0
C	-0.533772	-0.24764	-1.420397
Cl	1.834078	0.0	0.0
H	-1.591657	-0.512212	-1.246566
N	-0.509899	1.228806	0.476264
H	-0.760872	1.231287	1.451736
H	0.043206	2.024968	0.200919
C	-0.359412	-1.07698	0.936396
N	-0.570825	-1.882885	1.764217
N	0.14544	-1.43792	-2.020657
O	0.792918	-1.291671	-3.057716
O	0.010294	-2.50573	-1.425276
C	-0.438613	0.963491	-2.315465
H	0.583753	1.339729	-2.392395
H	-1.108001	1.721022	-1.91001
H	-0.780096	0.702493	-3.316313
Cl	-3.581054	0.0	0.0
