17

C	0.0	0.0	0.0
C	-0.506276	0.10877	-1.466975
Cl	1.791221	0.0	0.0
H	-1.547059	-0.233276	-1.427931
N	-0.492231	1.023143	0.873872
H	-0.25369	1.932934	0.496013
H	-1.515787	0.918966	0.880152
C	-0.369476	-1.305226	0.581968
N	-0.590947	-2.358113	1.052184
N	0.229458	-0.858879	-2.340383
O	0.005304	-2.052634	-2.149988
O	1.015151	-0.417844	-3.180159
C	-0.427619	1.511717	-2.02125
H	0.564032	1.950332	-1.889882
H	-0.651842	1.498125	-3.087638
H	-1.187384	2.118577	-1.528876
Cl	-3.461406	0.0	0.0
