17

C	0.0	0.0	0.0
C	-0.345281	0.321675	-1.484363
Cl	1.796887	0.0	0.0
H	0.297803	-0.319573	-2.086545
N	-0.558998	0.922299	0.925419
H	-1.552233	1.036446	0.715792
H	-0.477604	0.560649	1.868941
C	-0.362872	-1.415606	0.228429
N	-0.616831	-2.544297	0.437552
N	0.129101	1.711728	-1.81744
O	1.110674	1.805037	-2.557769
O	-0.517269	2.654621	-1.372681
C	-1.78781	0.191975	-1.902855
H	-2.167674	-0.80682	-1.692689
H	-1.847048	0.379216	-2.979843
H	-2.449208	0.878132	-1.381556
Cl	-4.351133	0.0	0.0
