15

C	-0.423766	-0.000888	-1.44631
C	0.0	0.0	0.0
Br	-2.375781	-0.278831	-1.649295
H	1.096803	0.0	0.0
H	-0.334626	-0.942719	0.437979
C	-0.106965	1.230135	-2.154726
N	0.104753	2.268126	-2.664415
N	0.212063	-1.188295	-2.184911
O	0.146735	-2.264473	-1.613409
O	0.700646	-0.963364	-3.284197
C	-0.508375	1.203619	0.779358
H	-0.126944	2.133728	0.352657
H	-0.130563	1.138002	1.801377
H	-1.600259	1.249823	0.813105
Cl	3.357991	0.0	0.0
