15

C	-0.483135	-0.002237	-1.435534
C	0.0	0.0	0.0
Br	0.125019	1.575253	-2.391731
H	1.093184	0.0	0.0
H	-0.33844	0.938136	0.447254
C	-0.076188	-1.1828	-2.186975
N	0.263766	-2.136939	-2.783793
N	-2.024579	0.044443	-1.421066
O	-2.52986	1.014367	-0.87443
O	-2.626685	-0.915623	-1.892398
C	-0.523967	-1.205229	0.774477
H	-0.210905	-2.141147	0.306165
H	-1.614177	-1.206699	0.872152
H	-0.091757	-1.183656	1.776691
Cl	3.393531	0.0	0.0
