15

C	-0.423159	0.006376	-1.44772
C	0.0	0.0	0.0
Br	-2.371626	-0.268988	-1.655311
H	1.096758	0.0	0.0
H	-0.336395	-0.944395	0.432575
C	-0.101602	1.240903	-2.148403
N	0.099993	2.277987	-2.664275
N	0.214879	-1.177941	-2.192138
O	0.700811	-0.948313	-3.291212
O	0.151291	-2.25626	-1.62476
C	-0.508456	1.200542	0.784008
H	-1.60023	1.247278	0.817593
H	-0.131523	1.130968	1.806153
H	-0.126278	2.132226	0.361452
Cl	3.353921	0.0	0.0
