15

C	-0.540546	0.017985	-1.417969
C	0.0	0.0	0.0
Br	0.270729	-1.359219	-2.528737
H	1.091119	0.0	0.0
H	-0.33492	0.933174	0.46983
C	-1.987852	-0.169978	-1.466339
N	-3.148225	-0.356953	-1.418028
N	-0.242342	1.354679	-2.119978
O	0.757958	1.953395	-1.757903
O	-1.032115	1.696904	-2.9985
C	-0.490418	-1.201092	0.803683
H	-1.578584	-1.222197	0.919674
H	-0.16396	-2.133244	0.338743
H	-0.032126	-1.157951	1.792057
Cl	3.419318	0.0	0.0
