15

C	-0.528532	0.057419	-1.429004
C	0.0	0.0	0.0
Br	0.199569	-1.384963	-2.496044
H	1.106105	0.0	0.0
H	-0.321459	-0.968648	0.396636
C	-1.985558	-0.035753	-1.484448
N	-3.154775	-0.161654	-1.479427
N	-0.134675	1.405686	-2.058497
O	0.954263	1.498619	-2.593357
O	-0.956156	2.305361	-1.889855
C	-0.516707	1.135311	0.878521
H	-0.165799	0.957285	1.89706
H	-0.11191	2.097609	0.562595
H	-1.608202	1.202085	0.891336
Cl	3.416048	0.0	0.0
