15

C	-0.485631	-0.37844	-1.384369
C	0.0	0.0	0.0
Br	0.109892	0.898899	-2.719497
H	1.105739	0.0	0.0
H	-0.336953	1.023273	0.185941
C	-0.074009	-1.711384	-1.805124
N	0.26219	-2.78915	-2.132571
N	-2.027683	-0.340757	-1.370856
O	-2.540247	0.742552	-1.13046
O	-2.620898	-1.403673	-1.524343
C	-0.521713	-0.959478	1.065124
H	-0.227282	-1.988857	0.846886
H	-0.070036	-0.689256	2.021778
H	-1.610066	-0.920482	1.176495
Cl	3.389622	0.0	0.0
