15

C	-0.466876	-0.140894	-1.437272
C	0.0	0.0	0.0
Br	-2.432506	-0.06661	-1.592956
H	1.107735	0.0	0.0
H	-0.316224	0.999434	0.316371
C	0.043275	0.92196	-2.2944
N	0.381626	1.82574	-2.965801
N	-0.028485	-1.490871	-2.022414
O	-0.609226	-2.483736	-1.606067
O	0.896071	-1.461928	-2.823645
C	-0.494514	-1.057106	0.977675
H	-1.581961	-1.159947	0.977979
H	-0.169417	-0.760751	1.977602
H	-0.050561	-2.02931	0.766234
Cl	3.358873	0.0	0.0
