15

C	-0.492727	-0.100474	-1.430797
C	0.0	0.0	0.0
Br	0.162366	1.376011	-2.508773
H	1.107113	0.0	0.0
H	-0.329917	0.972515	0.378053
C	-0.129883	-1.349822	-2.088114
N	0.168759	-2.363708	-2.602174
N	-2.029895	-0.010813	-1.394052
O	-2.6564	-1.039203	-1.635171
O	-2.505696	1.053096	-1.02692
C	-0.522508	-1.140174	0.868167
H	-0.072311	-1.048843	1.859163
H	-1.610937	-1.127506	0.98234
H	-0.224039	-2.110893	0.464052
Cl	3.388434	0.0	0.0
