15

C	-0.484529	-0.128029	-1.43023
C	0.0	0.0	0.0
Br	0.122387	1.359505	-2.521006
H	1.09346	0.0	0.0
H	-0.337971	0.974048	0.363005
C	-0.078949	-1.369654	-2.075348
N	0.256153	-2.375498	-2.582845
N	-2.026453	-0.082248	-1.41668
O	-2.532365	0.936523	-0.969528
O	-2.626961	-1.086427	-1.785464
C	-0.524226	-1.13187	0.877725
H	-1.613942	-1.122096	0.97899
H	-0.215614	-2.105451	0.491185
H	-0.088273	-1.02481	1.872468
Cl	3.39238	0.0	0.0
