15

C	-0.477969	0.063418	-1.444498
C	0.0	0.0	0.0
Br	0.273713	1.560053	-2.409706
H	1.106334	0.0	0.0
H	-0.333111	-0.967724	0.389736
C	-0.18195	-1.15437	-2.189686
N	0.0399	-2.136685	-2.795208
N	-2.0186	0.18888	-1.402797
O	-2.536332	1.283087	-1.562597
O	-2.59655	-0.850819	-1.099744
C	-0.522907	1.138117	0.865678
H	-0.286655	2.108762	0.427123
H	-0.022439	1.085362	1.834319
H	-1.602846	1.081985	1.032218
Cl	3.384725	0.0	0.0
