15

C	-0.485296	-0.178398	-1.433471
C	0.0	0.0	0.0
Br	0.348642	1.061985	-2.656909
H	1.106596	0.0	0.0
H	-0.341966	-0.878549	0.556945
C	-0.276071	-1.531209	-1.933545
N	-0.129269	-2.62756	-2.331779
N	-2.015051	0.050172	-1.418334
O	-2.464109	1.126427	-1.77876
O	-2.653605	-0.874727	-0.925451
C	-0.501535	1.281815	0.652714
H	0.01228	1.399324	1.608218
H	-1.579558	1.268749	0.839349
H	-0.26202	2.154096	0.042364
Cl	3.387427	0.0	0.0
