15

C	-0.480074	-0.010047	-1.445731
C	0.0	0.0	0.0
Br	0.279199	1.430409	-2.485667
H	1.092792	0.0	0.0
H	-0.336368	-0.945021	0.440055
C	-0.194547	-1.267151	-2.127806
N	0.022921	-2.278753	-2.685376
N	-2.019515	0.128281	-1.405337
O	-2.530645	1.216453	-1.619284
O	-2.603114	-0.890012	-1.045852
C	-0.520399	1.184045	0.803038
H	-0.269818	2.130059	0.320222
H	-0.03029	1.173391	1.778373
H	-1.602432	1.146498	0.961503
Cl	3.385941	0.0	0.0
