15

C	-0.528853	0.00348	-1.430022
C	0.0	0.0	0.0
Br	0.256528	-1.432615	-2.464811
H	1.107354	0.0	0.0
H	-0.319537	-0.95399	0.432278
C	-1.981215	-0.146522	-1.484514
N	-3.143448	-0.3254	-1.481457
N	-0.182845	1.350747	-2.087071
O	-1.05441	2.211784	-1.980997
O	0.92331	1.484637	-2.576526
C	-0.52236	1.167353	0.831959
H	-0.113831	2.116468	0.482211
H	-1.613939	1.235325	0.833844
H	-0.179258	1.028894	1.859139
Cl	3.415407	0.0	0.0
