15

C	-0.526192	0.173393	-1.421206
C	0.0	0.0	0.0
Br	0.152979	-1.222726	-2.580142
H	1.094088	0.0	0.0
H	-0.323844	-0.997681	0.312701
C	-1.985456	0.132256	-1.479971
N	-3.157856	0.039806	-1.480696
N	-0.091255	1.547071	-1.966116
O	0.960227	1.630125	-2.573597
O	-0.848921	2.467977	-1.667114
C	-0.515651	1.054168	0.975214
H	-0.113806	2.040959	0.744572
H	-0.161773	0.785824	1.972961
H	-1.607278	1.116998	0.996772
Cl	3.411211	0.0	0.0
