14
Coordinates from ORCA-job run
  C   0.47914417048029     -0.63539743780340     -0.01134513198012
  C   -0.72708132696024      0.26801728640170     -0.31000761810083
  Cl  0.00659335622023     -2.32971390189263     -0.13257511143314
  H   -1.12195133252373      0.01199298387430     -1.29311880468285
  N   1.52837747468792     -0.38151400740169     -1.13392849821295
  O   2.69450893743799     -0.55664336153038     -0.82708182245049
  O   1.06913039835927     -0.08390125019017     -2.22608854616183
  C   1.10597652868105     -0.35800518823562      1.26858834491929
  N   1.62003782752932     -0.13355778046912      2.30255949442084
  C   -0.35004470450369      1.67110901323716     -0.23295649243801
  N   -0.03658944259573      2.80268697493433     -0.18513315856981
  N   -1.82940325291140     -0.02025849534755      0.69184446519113
  O   -2.80530072661304     -0.61219077366099      0.24851202446826
  O   -1.63439790728824      0.35537593808407      1.84073085503050
