14
Coordinates from ORCA-job run
  C   0.52038154388932     -0.43171035812804      0.39817879304211
  C   -0.40402860027257      0.65247302551006     -0.18380295805953
  Cl  -0.21533988815519     -1.23180684430573      1.76315207803438
  H   0.01714562107223      0.98116976835321     -1.13985580792719
  N   0.86067206821065     -1.45193182358843     -0.74919039859229
  O   0.73100786929606     -2.63422044277113     -0.52148457472678
  O   1.27097701259905     -0.90386533720702     -1.75972562118366
  C   1.79545366727937      0.17081832830989      0.76298215473338
  N   2.82221765069422      0.66888995586123      1.04872296869802
  C   -0.54413356024973      1.76674879409948      0.73866204663482
  N   -0.61359591068381      2.67546666271274      1.48038240851218
  N   -1.76447745550187      0.05518973341592     -0.51776821162022
  O   -2.75458218487524      0.69956266985286     -0.21015266451194
  O   -1.72169783330250     -1.01478413211502     -1.11010021303326
