14
Coordinates from ORCA-job run
  C   0.53689767991593     -0.41319819161368      0.39319306909847
  C   -0.42156968327805      0.64237472246535     -0.18565915532143
  Cl  -0.15456374625180     -1.20918482845939      1.78350915907519
  H   -0.02627871343366      0.96484786577450     -1.15470455810215
  N   0.87761732785621     -1.44312413557623     -0.74599743849922
  O   0.78606402478316     -2.62435783628748     -0.49534395096628
  O   1.24827964606104     -0.90200096833646     -1.77518751813474
  C   1.80609482938543      0.22038261025201      0.72470151956935
  N   2.83044518301763      0.73733126180634      0.98481533799533
  C   -0.56834292020576      1.76592125109981      0.72415238571926
  N   -0.64743063297216      2.67982245033085      1.45842321905136
  N   -1.77505172125535      0.01101897532267     -0.48402752740692
  O   -2.77281328472086      0.63852836791918     -0.16601690669943
  O   -1.72034798890176     -1.06636154469747     -1.06185763537879
