14
Coordinates from ORCA-job run
  C   0.56309305824759     -0.45185981691204      0.30584638942590
  C   -0.44505490133979      0.64960200892036     -0.06605021795696
  Cl  -0.05558851294120     -1.48207780944182      1.57081014693923
  H   -0.09236355356117      1.13842389484471     -0.98025429914612
  N   0.89251530920559     -1.27441804229360     -0.99342951903224
  O   0.84718357290426     -2.48309095086716     -0.93176267187865
  O   1.20899718356315     -0.56400577697263     -1.93392922041054
  C   1.82453445457114      0.16379554898437      0.69565699790887
  N   2.84269683914069      0.66654634480812      1.00323700648671
  C   -0.59709351839251      1.60383721061391      1.01914354291826
  N   -0.68645275432750      2.37982236994646      1.89681214618189
  N   -1.78870083182489      0.02824033377575     -0.42697416125078
  O   -2.79376242437481      0.56471955934914      0.01140589939912
  O   -1.72100392087055     -0.94053487475555     -1.17151203958469
