14
Coordinates from ORCA-job run
  C   0.58121988856585     -0.54305375544701      0.40298137172548
  C   -0.53541352734238      0.50715806757194      0.49390422380343
  Cl  0.38092352792496     -1.70311167462802      1.72335666667819
  H   -0.31391292986964      1.15161348384251      1.35255865274436
  N   0.47805436564028     -1.33701699211626     -0.91497819910916
  O   1.50189562829071     -1.88773044693318     -1.28026015624915
  O   -0.62921760516788     -1.37332301455952     -1.42703161753841
  C   1.89881617200287      0.06848039154243      0.49066637286059
  N   2.94668803237897      0.58080810511211      0.63837120416958
  C   -1.87470225972861     -0.04173977185963      0.64720447607976
  N   -2.96255636886207     -0.44408540005013      0.83186735577436
  N   -0.50308242528867      1.44299377916606     -0.71287075776650
  O   0.45194700089554      1.33350949853449     -1.47044106752868
  O   -1.41965949943997      2.24549772982422     -0.77432852564385
