14
Coordinates from ORCA-job run
  C   0.49867001178427     -0.62068239432544     -0.02522591347805
  C   -0.73543141469833      0.25032694735133     -0.30618658622802
  Cl  0.08435752101180     -2.32572215421753     -0.19460736049602
  H   -1.11940267738381      0.00521256549121     -1.29634478836402
  N   1.54231508788327     -0.29844502225810     -1.13672854070309
  O   1.07423277870260     -0.01773264038641     -2.22950157506837
  O   2.71434551734785     -0.40892588486847     -0.82243273818943
  C   1.11044771269194     -0.35680973797975      1.26482231162455
  N   1.61509828222926     -0.14597387560654      2.30632783814462
  C   -0.40108992399620      1.66183207655966     -0.19392478444057
  N   -0.11517989461174      2.79902148058101     -0.11732020930002
  N   -1.83081363061268     -0.09610550484810      0.68462084305294
  O   -1.65279453938009      0.26116277330891      1.84219863667098
  O   -2.78575483096814     -0.70915862880177      0.22430286677453
