14
Coordinates from ORCA-job run
  C   0.68189304577069     -0.38724194525484      0.42445684459308
  C   -0.50830422880297      0.58292974697244      0.43531733749403
  Cl  0.78176191468190     -1.18496655331053      2.00003267292174
  H   -0.23357059749644      1.43653616847128      1.06582159378961
  N   0.47427249747319     -1.49414273145491     -0.62942932501474
  O   -0.68458484990886     -1.72531384845931     -0.93449128961331
  O   1.48622017685685     -2.05703643628417     -1.00886864725103
  C   1.93266000380119      0.30448408110662      0.15094431987244
  N   2.93537983971609      0.90020240113389      0.00227087502680
  C   -1.75302849744443      0.01175530124582      0.92821834909838
  N   -2.75970912638725     -0.39489271966433      1.37596663680645
  N   -0.73621163114659      1.18166483191835     -0.95157151824688
  O   -1.72724681021152      1.88466334444269     -1.05868331113232
  O   0.11046826309815      0.94135835913701     -1.80198453834425
