14
Coordinates from ORCA-job run
  C   0.48547591749338     -0.63490973563338      0.01231699926489
  C   -0.73048438114558      0.24463867126338     -0.31971385693005
  Cl  0.03755345114537     -2.33790233030310     -0.05648878806451
  H   -1.12448457974835     -0.05636989608197     -1.29048668541968
  N   1.52959460595286     -0.39486178383721     -1.11920429566880
  O   2.70283372724529     -0.43105619664166     -0.79149109377047
  O   1.05950868121734     -0.24057294867093     -2.23580883872836
  C   1.10134695672354     -0.30802926445746      1.28569652268945
  N   1.60153533595574     -0.04841487778411      2.31826044432171
  C   -0.36067404272008      1.65159232188770     -0.30211297886104
  N   -0.04259363136882      2.78282432439027     -0.30651900881199
  N   -1.82773721335234     -0.01105843398936      0.69624240783543
  O   -1.64892506845326      0.44383805951197      1.81894972503925
  O   -2.78294975894509     -0.66071790965415      0.29035944710417
