14
Coordinates from ORCA-job run
  C   0.69726878593993     -0.33661163775404      0.43906747518220
  C   -0.45149371902718      0.67866454023428      0.35476686729468
  Cl  0.88798597013096     -0.84253262912538      2.12358109278402
  H   -0.09805928993509      1.61641617533973      0.79916944250228
  N   0.36577932747351     -1.60256538047676     -0.37824712252203
  O   1.31936290437725     -2.30261346678255     -0.67088383049339
  O   -0.81776545265828     -1.79533969429831     -0.60516985180824
  C   1.95141339619671      0.22448157514860     -0.04040631043732
  N   2.96857415203521      0.72033230220656     -0.35991710507353
  C   -1.67255224419344      0.26421514047751      1.02998416509907
  N   -2.65283880068406     -0.00913519776245      1.61616741487329
  N   -0.76514658363221      1.03050553496036     -1.09837505470825
  O   -1.75722212185945      1.72044248553572     -1.26634558314489
  O   0.02669367583613      0.63474025229672     -1.94339159954788
