14
Coordinates from ORCA-job run
  C   0.56283418164121     -0.47201693006765      0.27214001892491
  C   -0.44857699811616      0.65049244784188     -0.01900856313345
  Cl  -0.05742351368175     -1.60001528007354      1.45011278282458
  H   -0.09576750416869      1.20818954664935     -0.89293594192241
  N   0.90280726430340     -1.18978926281415     -1.08511894013190
  O   1.22106029866531     -0.40692350577715     -1.96564849233409
  O   0.86199670280278     -2.39970684069651     -1.11826295275545
  C   1.81949216088335      0.11626906644705      0.71603303229619
  N   2.83365878377385      0.59675720932857      1.06910699315756
  C   -0.60649266870696      1.52114176179430      1.13364458987027
  N   -0.69441716323554      2.23349059162499      2.06394982856574
  N   -1.78859748547170      0.05218308569079     -0.42878242552300
  O   -1.71456549944647     -0.85834384290368     -1.24291683315556
  O   -2.79700855924262      0.54927195295573      0.04668690331661
