14
Coordinates from ORCA-job run
  C   0.45587635300851     -0.64699082738023      0.46698162459598
  C   -0.60098396105979      0.47730848150368      0.49619799670128
  Cl  0.00807755386860     -1.87206062166872      1.64296237410170
  H   -0.55823609786255      0.95102305659315      1.47996377539916
  N   0.46253691774508     -1.27329595958951     -0.95852426148825
  O   1.37289452952058     -0.90473905948367     -1.68511726807994
  O   -0.46020616653504     -2.02442973431423     -1.21343875596691
  C   1.78053355604645     -0.11921806054498      0.75218194699309
  N   2.83224448967067      0.32617285648711      1.03367067628002
  C   -1.94602695320318      0.00718434239402      0.20367938896162
  N   -3.05853316698320     -0.31270084980286      0.00272453397460
  N   -0.19919086657004      1.54940674368259     -0.50607604539758
  O   0.41526369005172      2.50165614743002     -0.04237083767186
  O   -0.50424987769780      1.34268348469362     -1.67383514840290
