14
Coordinates from ORCA-job run
  C   0.52193777699991     -0.50222187306096      0.29809736979634
  C   -0.42918175364156      0.66324143611594     -0.02565886818401
  Cl  -0.23806512030166     -1.67378769336639      1.34461405570337
  H   0.02147484450036      1.25711162946225     -0.82784360855806
  N   0.97719020611035     -1.15504998917636     -1.05769076915515
  O   1.39869667602570     -0.33520135359713     -1.85757445903736
  O   0.91233073633959     -2.35981493152851     -1.16281703032118
  C   1.74197589790731      0.02450040032671      0.89508968120323
  N   2.72706659081317      0.45551426606726      1.37248199784208
  C   -0.67941545637453      1.47406668298469      1.15398702476767
  N   -0.84207895885294      2.13612036948888      2.11097416844124
  N   -1.73566529873116      0.12776084487861     -0.59744888378123
  O   -1.60331598769503     -0.74031559810281     -1.44970767093415
  O   -2.77395015309951      0.62907580950783     -0.19650300778277
