14
Coordinates from ORCA-job run
  C   0.79420109224400     -0.17460692547806      0.36649040873735
  C   -0.44021259337536      0.73064447258085      0.24515949282926
  Cl  1.33286068772204     -0.18201113998933      2.05118635925276
  H   -0.10037440764729      1.76827199330903      0.34249760052377
  N   0.44159406665009     -1.63073362062178     -0.00088746675423
  O   -0.73143583058937     -1.94127988102795      0.12950751120421
  O   1.38059723216535     -2.33270796051637     -0.33302411955983
  C   1.87912081659054      0.28428640183839     -0.48794667370282
  N   2.76079552417419      0.72127863304836     -1.13137348227368
  C   -1.47834750770934      0.47785911381827      1.23355600515999
  N   -2.31155665436051      0.34620256263089      2.05070758256968
  N   -1.04068707525034      0.64845217632801     -1.15707372960755
  O   -0.40183734582016      0.02626839439671     -1.99527935108843
  O   -2.08571800479384      1.25807577968297     -1.31252013729048
