14
Coordinates from ORCA-job run
  C   0.47878704738796     -0.63385448662763      0.01729228205568
  C   -0.71716796532322      0.26125454125052     -0.34289699236787
  Cl  0.01533673498378     -2.33149256704226     -0.08932628063793
  H   -1.07517361160617     -0.01348412034837     -1.33493040798911
  N   1.56849531115487     -0.39740146477931     -1.07077557037239
  O   2.72350341297208     -0.55569441986166     -0.71663550917201
  O   1.14844328418194     -0.12865754813443     -2.18574209314331
  C   1.05754086382520     -0.33060203894393      1.31395626955831
  N   1.53587882936676     -0.08854377668863      2.36101553850053
  C   -0.34221748891802      1.66523682832931     -0.27495740386564
  N   -0.02262848658946      2.79506882159424     -0.22520321607405
  N   -1.85548474213279     -0.01186439779080      0.62267180373568
  O   -1.70246948225367      0.38143019712033      1.77192012893904
  O   -2.81384370704927     -0.61239556807739      0.15361145083305
