14
Coordinates from ORCA-job run
  C   0.58035590967651     -0.61101214119317      0.28897681752779
  C   -0.65688198446316      0.26430431600749      0.53686356526300
  Cl  0.33842396123288     -2.17638468908563      1.07644652562935
  H   -0.63643535301149      0.57625837467717      1.58759912989313
  N   0.75871488843703     -0.88673287628857     -1.21825854840151
  O   -0.24768555421182     -0.78133448105194     -1.90070616791436
  O   1.87647865025051     -1.22989540087549     -1.56168075612345
  C   1.79069601503210      0.00887173649228      0.80710970517770
  N   2.74037638887302      0.49548464064982      1.30075171158539
  C   -1.92651968964110     -0.39161635442194      0.26109361593112
  N   -2.97121949600723     -0.90588933814721      0.10774971121488
  N   -0.57197148405935      1.56639260665090     -0.25738065745442
  O   0.49642259593797      1.80966775363702     -0.80248437942901
  O   -1.57275484804586      2.26288585294927     -0.22708027289961
