14
Coordinates from ORCA-job run
  C   0.49421239260178     -0.62487658030261      0.00305807819072
  C   -0.72995125064350      0.24530764943825     -0.31897613269975
  Cl  0.06256725796272     -2.33092817213500     -0.09717835736076
  H   -1.10887782829164     -0.03196616608977     -1.30258807415267
  N   1.54512156117699     -0.36079114676970     -1.11650433587517
  O   2.71459155543297     -0.47244630568926     -0.79336617572927
  O   1.08481060299728     -0.11899644614731     -2.22188525172495
  C   1.10453891150162     -0.31316774348428      1.28315743851258
  N   1.60457331005213     -0.06005212203202      2.31739989195187
  C   -0.38473808548580      1.65748876383903     -0.25666274462530
  N   -0.09378196461441      2.79541501382844     -0.22099360577252
  N   -1.83658078749087     -0.05452800572624      0.67463579248902
  O   -1.65314659470076      0.32121910639507      1.82535602461831
  O   -2.80433908049850     -0.65367784512460      0.22354745217790
