14
Coordinates from ORCA-job run
  C   0.48094859463136     -0.63165867151205     -0.03869471470127
  C   -0.72734123212694      0.27925898646337     -0.30354294161445
  Cl  0.01923140856739     -2.32058805565193     -0.24615243097078
  H   -1.11650914668867      0.06609955966565     -1.29900759117624
  N   1.53986798458834     -0.31891673531666     -1.13770701671568
  O   1.09103580595589      0.04967168536755     -2.21236033496081
  O   2.70193431475607     -0.52313457590911     -0.83409994496163
  C   1.09581334767416     -0.41441572642319      1.25858773324170
  N   1.60509851759630     -0.24353929488101      2.30512984125201
  C   -0.35757391592926      1.67892887421336     -0.16036436079339
  N   -0.04676985131231      2.80735259548022     -0.05666667622285
  N   -1.83356748863110     -0.05936327007960      0.67882325147842
  O   -1.65095500850570      0.27480833519300      1.84247586872870
  O   -2.80021333057554     -0.64350370660961      0.20557931741628
