18

C	-0.229382	0.006306	-1.513578
C	0.0	0.0	0.0
F	-1.593092	0.077772	-1.830564
H	1.100196	0.0	0.0
N	0.35159	1.223426	-2.047792
H	0.309963	1.189013	-3.060805
H	1.333768	1.229144	-1.776974
N	0.245228	-1.239795	-2.073697
H	1.198154	-1.373312	-1.741155
H	0.286303	-1.152584	-3.084116
C	-0.571626	-1.230217	0.678729
H	-0.334231	-1.178411	1.742396
H	-1.660902	-1.250375	0.56443
H	-0.168568	-2.151347	0.259657
N	-0.500269	1.20528	0.657143
H	-1.424326	1.393545	0.278723
H	0.080386	1.983344	0.366729
Cl	3.473554	0.0	0.0
