13

C	-0.434784	0.003348	-1.436244
C	0.0	0.0	0.0
F	-1.824949	0.079534	-1.589167
H	1.091842	0.0	0.0
H	-0.368833	-0.887037	0.513813
C	0.164501	1.088576	-2.238614
N	0.634614	1.89715	-2.948405
C	-0.009913	-1.280899	-2.034858
N	0.307854	-2.300097	-2.523862
N	-0.509168	1.163946	0.723037
O	-0.670843	2.217999	0.105252
O	-0.703339	1.031925	1.931175
F	2.462858	0.0	0.0
