13

C	-0.406486	-0.019515	-1.444707
C	0.0	0.0	0.0
F	-1.790372	-0.114606	-1.625616
H	1.09186	0.0	0.0
H	-0.383458	0.888447	0.498399
C	0.013278	1.265865	-2.043017
N	0.321263	2.284213	-2.53975
C	0.217535	-1.102868	-2.228803
N	0.697866	-1.906478	-2.9366
N	-0.511022	-1.161918	0.721419
O	-0.643274	-2.224411	0.109647
O	-0.739687	-1.018445	1.922609
F	2.466353	0.0	0.0
