13

C	-0.390104	0.018754	-1.449226
C	0.0	0.0	0.0
F	-1.772025	0.136575	-1.646053
H	1.091873	0.0	0.0
H	-0.390955	-0.88488	0.498064
C	0.259089	1.088492	-2.232391
N	0.739163	1.882685	-2.951102
C	0.014457	-1.276897	-2.033479
N	0.308997	-2.307056	-2.514344
N	-0.51286	1.168129	0.711424
O	-0.59958	2.235974	0.101419
O	-0.789656	1.023572	1.902855
F	2.467884	0.0	0.0
