13

C	-0.432553	0.022297	-1.447483
C	0.0	0.0	0.0
F	0.252632	-0.894547	-2.212401
H	1.089641	0.0	0.0
H	-0.33767	0.89209	0.52706
C	-1.88269	-0.214356	-1.64504
N	-3.040947	-0.336306	-1.798685
C	-0.137358	1.37144	-1.98128
N	0.071194	2.437974	-2.425139
N	-0.521107	-1.162282	0.710831
O	-0.820562	-2.165006	0.055229
O	-0.579551	-1.088717	1.93852
F	2.466674	0.0	0.0
