13

C	-0.466875	-0.007237	-1.425025
C	0.0	0.0	0.0
F	-1.86124	-0.074451	-1.540836
H	1.09187	0.0	0.0
H	-0.360766	0.888647	0.516866
C	-0.053847	1.271984	-2.039092
N	0.244852	2.284189	-2.553231
C	0.09825	-1.100788	-2.238455
N	0.508249	-1.914456	-2.978932
N	-0.497561	-1.158708	0.739133
O	-0.636072	-1.024707	1.955916
O	-0.704064	-2.208642	0.124515
F	2.466474	0.0	0.0
