13

C	-0.43259	0.304469	-1.41497
C	0.0	0.0	0.0
F	0.278684	1.345165	-1.970909
H	1.105519	0.0	0.0
H	-0.33862	-0.986452	0.316122
C	-0.179179	-0.906415	-2.227495
N	-0.014595	-1.872922	-2.873524
C	-1.874137	0.621745	-1.547456
N	-3.0285	0.80935	-1.657571
N	-0.511127	0.977596	0.950956
O	-0.614895	0.621986	2.126642
O	-0.750348	2.119189	0.541916
F	2.45989	0.0	0.0
