13

C	-0.392109	-0.258322	-1.43565
C	0.0	0.0	0.0
F	0.270649	-1.343091	-1.966816
H	1.10478	0.0	0.0
H	-0.329612	0.984639	0.331429
C	-1.843903	-0.468128	-1.645976
N	-3.000906	-0.566158	-1.823583
C	-0.005908	0.938147	-2.218181
N	0.267921	1.888674	-2.850404
N	-0.552202	-0.990716	0.913484
O	-0.910729	-2.081399	0.4564
O	-0.584904	-0.691055	2.107784
F	2.463066	0.0	0.0
