13

C	-0.413172	0.095154	-1.455635
C	0.0	0.0	0.0
F	-0.093562	-1.128824	-2.031203
H	1.104411	0.0	0.0
H	-0.384867	-0.92191	0.434166
C	-1.869067	0.278605	-1.648771
N	-3.034829	0.331819	-1.78592
C	0.309867	1.141735	-2.202945
N	0.839561	1.936669	-2.885087
N	-0.503456	1.125399	0.766538
O	-0.544105	1.011583	1.990937
O	-0.818972	2.15236	0.148856
F	2.469102	0.0	0.0
