13

C	-0.390515	-0.031788	-1.465633
C	0.0	0.0	0.0
F	-0.10352	-1.316157	-1.915416
H	1.104924	0.0	0.0
H	-0.399665	-0.874452	0.511318
C	-1.835049	0.181495	-1.706128
N	-2.993071	0.273225	-1.884651
C	0.380183	0.911942	-2.298017
N	0.948596	1.61324	-3.048509
N	-0.493855	1.198468	0.652124
O	-0.734178	2.18373	-0.059837
O	-0.589377	1.187528	1.879964
F	2.468626	0.0	0.0
