13

C	-0.378546	-0.074211	-1.4679
C	0.0	0.0	0.0
F	-0.106498	1.180927	-2.001672
H	1.096946	0.0	0.0
H	-0.408122	0.906098	0.444393
C	0.412158	-1.061084	-2.229183
N	0.986238	-1.806354	-2.931297
C	-1.817444	-0.327829	-1.704284
N	-2.971605	-0.458414	-1.880643
N	-0.494685	-1.152471	0.731025
O	-0.699062	-2.194129	0.091393
O	-0.629537	-1.047133	1.949819
F	2.470542	0.0	0.0
