13

C	-0.422587	0.096962	-1.434539
C	0.0	0.0	0.0
F	-1.813545	0.108773	-1.599439
H	1.10388	0.0	0.0
H	-0.356793	0.862042	0.562347
C	0.077121	1.386672	-1.956792
N	0.403227	2.430252	-2.384147
C	0.110062	-0.972595	-2.3018
N	0.494057	-1.747929	-3.095217
N	-0.527704	-1.193571	0.651502
O	-0.739366	-2.198382	-0.032498
O	-0.692348	-1.135894	1.870933
F	2.46262	0.0	0.0
