13

C	-0.419772	0.171901	-1.440155
C	0.0	0.0	0.0
F	0.263466	-0.673396	-2.286727
H	1.10466	0.0	0.0
H	-0.331776	0.837161	0.614053
C	-1.869479	-0.024666	-1.678848
N	-3.026415	-0.113904	-1.862246
C	-0.101983	1.563137	-1.833805
N	0.116387	2.669146	-2.161276
N	-0.52927	-1.224038	0.585787
O	-0.84829	-2.148123	-0.170521
O	-0.57648	-1.281562	1.81541
F	2.462056	0.0	0.0
