13

C	-0.41686	0.138548	-1.43295
C	0.0	0.0	0.0
F	-1.805343	0.129906	-1.609841
H	1.103829	0.0	0.0
H	-0.345025	-0.951384	0.403986
C	0.107957	1.344107	-2.103561
N	0.52728	2.220219	-2.761026
C	0.117765	-1.036238	-2.155206
N	0.499189	-1.984617	-2.733337
N	-0.552918	1.052286	0.842842
O	-0.716742	0.783054	2.032491
O	-0.795348	2.153129	0.339568
F	2.461	0.0	0.0
