16

C	-0.412477	0.009492	-1.458338
C	0.0	0.0	0.0
F	0.012938	-1.092438	-2.06088
H	1.091805	0.0	0.0
N	-1.925899	0.106697	-1.673065
O	-2.490784	-0.888997	-2.097204
O	-2.41666	1.190871	-1.386501
N	0.146826	1.215496	-2.201481
O	0.468452	2.185829	-1.534194
O	0.1784	1.086971	-3.418536
N	-0.507792	-1.319853	0.551871
O	-1.716679	-1.373347	0.780543
O	0.304419	-2.2209	0.697795
C	-0.543876	1.073021	0.810001
N	-0.954036	1.89773	1.539492
Cl	3.11101	0.0	0.0
