16

C	-0.499035	0.013771	-1.433142
C	0.0	0.0	0.0
F	0.009496	1.073158	-2.061396
H	1.095833	0.0	0.0
N	-0.130619	-1.218995	-2.266346
O	1.041174	-1.272874	-2.59302
O	-1.039554	-1.985442	-2.555119
N	-2.019318	0.11112	-1.514384
O	-2.473989	0.676902	-2.498249
O	-2.639082	-0.408931	-0.595507
N	-0.385684	-1.233667	0.756082
O	-0.243004	-2.290075	0.151925
O	-0.728226	-1.10087	1.922588
C	-0.488622	1.194351	0.667989
N	-0.871003	2.194463	1.151419
Cl	3.066838	0.0	0.0
