16

C	-0.647198	0.00744	-1.370949
C	0.0	0.0	0.0
F	-1.975083	-0.090053	-1.297174
H	1.09176	0.0	0.0
N	-0.322251	1.304327	-2.112873
O	0.731257	1.852328	-1.821012
O	-1.144075	1.637629	-2.958412
N	-0.136641	-1.077114	-2.319817
O	1.073105	-1.239168	-2.318675
O	-0.984423	-1.621939	-3.012046
N	-0.400916	-1.264801	0.716127
O	-0.602821	-2.252233	0.015072
O	-0.436527	-1.222226	1.937514
C	-0.494562	1.147312	0.747823
N	-0.910845	2.093424	1.306042
Cl	3.103934	0.0	0.0
