16

C	-0.505519	0.007515	-1.423226
C	0.0	0.0	0.0
F	-1.825736	-0.04728	-1.593113
H	1.090415	0.0	0.0
N	-0.003124	1.290062	-2.098477
O	-0.838612	1.998285	-2.637795
O	1.213509	1.425187	-2.088673
N	0.079516	-1.141204	-2.239126
O	0.47368	-2.112526	-1.60694
O	0.036929	-1.002706	-3.455434
N	-0.420136	-1.281117	0.704935
O	0.433138	-1.796338	1.42478
O	-1.61641	-1.578326	0.677483
C	-0.5327	1.15749	0.683182
N	-0.991506	2.102341	1.217255
Cl	2.67886	0.0	0.0
