19

C	-0.529607	-0.047051	-1.443063
C	0.0	0.0	0.0
Br	0.200349	1.512893	-2.402126
H	1.099479	0.0	0.0
C	-0.008012	-1.281082	-2.164745
H	1.074426	-1.358385	-2.03991
H	-0.240046	-1.232686	-3.231215
H	-0.490114	-2.174341	-1.755806
C	-2.044345	0.053818	-1.495909
H	-2.471724	-0.777059	-0.926606
H	-2.398703	0.010756	-2.529663
H	-2.373786	0.99688	-1.056551
N	-0.481732	-1.226637	0.694242
H	-0.159323	-1.123176	1.653123
H	0.055064	-2.011832	0.334025
N	-0.481027	1.173745	0.700432
H	-1.321761	0.936881	1.21733
H	0.231834	1.492643	1.344837
Cl	3.52236	0.0	0.0
