19

C	-0.51581	-0.046039	-1.449354
C	0.0	0.0	0.0
Br	0.02531	1.61453	-2.369566
H	1.094374	0.0	0.0
C	0.136103	-1.196998	-2.19608
H	-0.141975	-1.182099	-3.25371
H	-0.185298	-2.136237	-1.742841
H	1.221638	-1.121038	-2.104227
C	-2.034021	-0.108944	-1.50494
H	-2.383379	-0.110276	-2.540442
H	-2.376367	-1.031415	-1.026123
H	-2.473873	0.753504	-1.000065
N	-0.381251	-1.277871	0.630907
H	-1.281379	-1.18119	1.090834
H	0.310592	-1.489412	1.341783
N	-0.448031	1.20107	0.698964
H	-1.294184	1.013784	1.222858
H	0.272666	1.482045	1.351769
Cl	3.495871	0.0	0.0
