19

C	-0.507017	-0.013077	-1.45158
C	0.0	0.0	0.0
Br	-0.069828	1.733151	-2.307697
H	1.101118	0.0	0.0
C	0.247647	-1.074008	-2.234093
H	0.016238	-2.046583	-1.792872
H	1.32394	-0.902975	-2.154725
H	-0.051722	-1.069617	-3.285704
C	-2.014641	-0.178011	-1.536284
H	-2.523475	0.6071	-0.975143
H	-2.274618	-1.148639	-1.104833
H	-2.348396	-0.151145	-2.576422
N	-0.410904	-1.266085	0.613773
H	0.353721	-1.609509	1.181665
H	-1.20727	-1.077942	1.212182
N	-0.567617	1.114659	0.769833
H	-0.351349	1.978027	0.281981
H	-0.036607	1.152694	1.635209
Cl	3.51709	0.0	0.0
