19

C	-0.523565	-0.089853	-1.443998
C	0.0	0.0	0.0
Br	-0.103952	1.60824	-2.403623
H	1.095232	0.0	0.0
C	0.220528	-1.1924	-2.176174
H	1.293404	-0.99786	-2.147899
H	0.026066	-2.134238	-1.661212
H	-0.114373	-1.268748	-3.213113
C	-2.032169	-0.259091	-1.500639
H	-2.288802	-1.203688	-1.013723
H	-2.533141	0.556489	-0.979655
H	-2.381746	-0.28703	-2.536031
N	-0.406014	-1.23626	0.678775
H	-1.180412	-1.010095	1.289313
H	0.370506	-1.571519	1.235577
N	-0.561722	1.152127	0.72259
H	0.047732	1.288486	1.526206
H	-0.438421	1.971538	0.13463
Cl	3.507441	0.0	0.0
