19

C	-0.511401	0.1184	-1.445324
C	0.0	0.0	0.0
Br	-0.084629	-1.56295	-2.427189
H	1.095239	0.0	0.0
C	-2.018311	0.294463	-1.5115
H	-2.356581	0.341978	-2.549223
H	-2.529046	-0.52555	-1.004425
H	-2.272155	1.233199	-1.011865
C	0.243743	1.229836	-2.152847
H	1.319452	1.050275	-2.091198
H	0.018138	2.168364	-1.641376
H	-0.060445	1.302568	-3.200444
N	-0.565854	-1.167155	0.688938
H	-0.015452	-1.283953	1.535579
H	-0.371685	-1.990524	0.127505
N	-0.408276	1.219077	0.704773
H	0.354451	1.512309	1.302786
H	-1.207523	0.988075	1.284197
Cl	3.513119	0.0	0.0
