19

C	-0.445806	0.044745	-1.478997
C	0.0	0.0	0.0
Br	0.085607	-1.676416	-2.326906
H	1.101877	0.0	0.0
C	-1.952451	0.152601	-1.653278
H	-2.299853	1.131274	-1.302871
H	-2.452434	-0.626001	-1.076911
H	-2.226209	0.063961	-2.706979
C	0.318218	1.132232	-2.218275
H	0.006647	2.112145	-1.841088
H	0.109547	1.097032	-3.290354
H	1.391889	1.014783	-2.048924
N	-0.617744	-1.12658	0.697223
H	-0.159831	-1.978297	0.391661
H	-0.375174	-0.992968	1.672836
N	-0.374331	1.200746	0.738046
H	0.296463	1.934956	0.559618
H	-1.308086	1.517454	0.512982
Cl	3.546032	0.0	0.0
