16

C	0.0	0.0	0.0
C	-0.631314	0.001134	-1.383773
Cl	1.770766	0.0	0.0
H	-0.431833	-0.969374	-1.842325
H	-1.710395	0.152315	-1.250813
N	-0.355204	1.308411	0.718839
O	-0.465162	2.302151	0.010908
O	-0.428679	1.277427	1.939373
C	-0.530775	-1.171585	0.789836
H	-0.221377	-2.096723	0.298985
H	-0.129695	-1.147986	1.801225
H	-1.623341	-1.105167	0.813132
N	-0.14123	1.010468	-2.371352
O	1.034882	0.929253	-2.728714
O	-0.960545	1.806759	-2.816898
Br	-3.909527	0.0	0.0
