16

C	0.0	0.0	0.0
C	-0.22994	0.159633	-1.514308
Cl	1.779642	0.0	0.0
H	0.077034	1.158874	-1.809369
H	0.399824	-0.587093	-1.995713
N	-0.413412	1.269186	0.752717
O	-0.413491	2.319972	0.123692
O	-0.638838	1.141627	1.949166
C	-0.599226	-1.212129	0.643688
H	-1.69028	-1.090977	0.629443
H	-0.25176	-1.301775	1.671476
H	-0.32371	-2.099357	0.073867
N	-1.567609	-0.088722	-2.125554
O	-2.140336	0.872827	-2.626186
O	-1.909895	-1.264321	-2.194965
Br	-3.983809	0.0	0.0
