16

C	-0.846666	-0.027925	-1.410575
C	0.089335	0.025116	-0.223225
Br	-0.706807	1.49359	-2.6281
H	1.11869	0.050542	-0.589566
H	-1.893288	-0.086707	-1.114842
N	-0.592165	-1.270204	-2.218728
O	0.532484	-1.434553	-2.669962
O	-1.548692	-2.027044	-2.372193
N	-0.073376	-1.248712	0.466647
H	-0.93882	-1.189056	1.001669
H	0.710543	-1.168937	1.192315
C	-0.139831	1.236123	0.674614
H	0.531406	1.04411	1.519494
H	-1.182631	1.263479	1.018079
H	0.097553	2.18836	0.191021
F	1.751457	-0.466172	2.082329
