16

C	-0.554157	-0.048668	-1.363506
C	0.01693	0.164084	0.040969
Br	-0.380694	1.499026	-2.55914
H	1.103365	0.240741	-0.057045
H	-1.624256	-0.252857	-1.314356
N	0.0288	-1.252157	-2.074146
O	-0.630008	-2.280267	-1.92908
O	1.038714	-1.124911	-2.740381
N	-0.208252	-1.008041	0.862741
H	-1.101399	-1.434377	0.635613
H	0.602426	-1.637394	0.559344
C	-0.593873	1.410918	0.67709
H	-1.687999	1.336933	0.691705
H	-0.251182	1.44062	1.712466
H	-0.315838	2.339569	0.174439
F	1.859936	-1.927974	-0.204787
