16

C	-0.558512	0.01953	-1.591224
C	0.140203	-0.021151	-0.235154
Br	-2.49233	-0.091475	-1.480013
H	1.210243	0.040885	-0.464005
H	-0.234009	-0.824989	-2.19346
N	-0.159109	1.254545	-2.353675
O	0.900708	1.141204	-2.971625
O	-0.82248	2.281412	-2.267185
N	-0.053848	-1.339582	0.343229
H	0.688	-1.306536	1.107939
H	-0.954431	-1.330924	0.816916
C	-0.185304	1.129449	0.708388
H	-1.242918	1.114045	0.991039
H	0.052496	2.114916	0.294287
H	0.447701	0.911591	1.574525
F	1.755092	-0.643864	2.028666
