16

C	-0.568778	-0.040436	-1.628977
C	0.120498	0.002042	-0.27217
Br	-0.40406	-1.736233	-2.550848
H	1.196072	-0.05252	-0.478682
H	-0.177958	0.71994	-2.302005
N	-2.028125	0.295973	-1.500136
O	-2.757328	-0.474033	-0.885317
O	-2.377237	1.377923	-1.976974
N	-0.163652	-1.123346	0.588424
H	0.536823	-0.938941	1.357087
H	-1.093929	-1.00208	0.978393
C	-0.1253	1.363002	0.393318
H	0.523375	1.307657	1.27598
H	0.13789	2.215618	-0.245184
H	-1.173237	1.462667	0.699694
F	1.675304	-0.081574	2.101743
