16

C	-0.584271	0.017331	-1.630255
C	0.111448	0.033683	-0.271909
Br	0.049853	-1.42519	-2.777193
H	1.190366	0.032012	-0.496263
H	-0.416472	0.938182	-2.185551
N	-2.076537	-0.0894	-1.476288
O	-2.612259	-1.185618	-1.418837
O	-2.64826	0.997688	-1.368441
N	-0.292547	-1.075466	0.563925
H	0.3374	-0.916188	1.403702
H	0.020606	-1.938128	0.126363
C	-0.169788	1.326803	0.487074
H	-1.22592	1.393543	0.755471
H	0.1196	2.213715	-0.08774
H	0.445332	1.216908	1.388006
F	1.493744	-0.239383	2.244457
