16

C	0.069767	0.016569	-1.413955
C	0.075821	0.194426	0.118348
Br	-1.641647	-0.627865	-2.073424
H	1.102072	0.537632	0.309056
H	0.848426	-0.800371	-1.5847
N	0.455366	1.286021	-2.094731
O	1.514805	1.773761	-1.690228
O	-0.230808	1.780419	-2.987482
N	-0.065591	-1.075652	0.805546
H	-0.981886	-1.453225	0.581094
H	0.63286	-1.678197	0.332075
C	-0.915412	1.230039	0.620353
H	-0.789122	1.346366	1.699241
H	-1.942599	0.907988	0.428447
H	-0.765827	2.202321	0.141229
F	1.722178	-1.949206	-0.999926
