14

C	-0.403485	-0.090397	-1.463553
C	0.0	0.0	0.0
Br	-2.340601	-0.378183	-1.702905
H	1.097717	0.0	0.0
H	0.058246	-1.009695	-1.832851
C	0.011269	1.002413	-2.332996
N	0.334505	1.812513	-3.121337
N	-0.416723	-1.104406	0.796683
H	0.378875	-1.669061	1.051339
H	-1.162598	-1.651582	0.39086
N	-0.464405	1.296158	0.628272
O	-0.951418	2.158316	-0.105088
O	-0.290202	1.410706	1.832901
Br	3.350626	0.0	0.0
