14

C	-0.420255	-0.105721	-1.465105
C	0.0	0.0	0.0
Br	-2.387663	-0.205307	-1.634687
H	1.109061	0.0	0.0
H	-0.067336	-1.082131	-1.801662
C	0.066272	0.89824	-2.40136
N	0.435738	1.619383	-3.252002
N	-0.404812	-1.084837	0.810317
H	-1.275402	-1.518892	0.543622
H	0.346486	-1.743776	0.943928
N	-0.474722	1.322737	0.576217
O	-0.416625	2.290866	-0.180523
O	-0.847661	1.357213	1.741033
Br	3.352433	0.0	0.0
