14

C	-0.394819	0.087324	-1.480366
C	0.0	0.0	0.0
Br	-2.338156	-0.159601	-1.736964
H	1.091867	0.0	0.0
H	0.067872	-0.772988	-1.968145
C	-0.00836	1.297132	-2.192757
N	0.246702	2.233814	-2.854483
N	-0.403118	-1.177248	0.674747
H	0.328992	-1.871817	0.639428
H	-1.302927	-1.539059	0.39687
N	-0.528282	1.226545	0.702839
O	-1.462605	1.089164	1.488846
O	-0.003866	2.294554	0.393485
Br	3.375187	0.0	0.0
