14

C	-0.53575	-0.14582	-1.412966
C	0.0	0.0	0.0
Br	-2.510654	-0.095615	-1.405144
H	1.108496	0.0	0.0
H	-0.289995	-1.163883	-1.716147
C	-0.058715	0.781295	-2.428043
N	0.284201	1.442945	-3.336322
N	-0.412547	-1.094982	0.809297
H	-1.323223	-0.93503	1.219722
H	0.264775	-1.224273	1.54943
N	-0.393189	1.353117	0.572357
O	-0.33667	2.320884	-0.179285
O	-0.702858	1.394198	1.761886
Br	3.357645	0.0	0.0
