14

C	-0.61824	-0.031591	-1.396336
C	0.0	0.0	0.0
Br	-0.122048	1.530443	-2.452055
H	1.090606	0.0	0.0
H	-1.705911	0.012681	-1.296945
C	-0.254447	-1.247165	-2.109698
N	-0.033204	-2.218409	-2.731918
N	-0.458889	-1.145913	0.719453
H	0.198772	-1.379766	1.452136
H	-1.390441	-1.008973	1.091306
N	-0.496128	1.284001	0.647827
O	-1.723559	1.360806	0.791872
O	0.313199	2.128651	1.009434
Br	3.45311	0.0	0.0
