14

C	-0.5962	-0.006562	-1.404914
C	0.0	0.0	0.0
Br	0.316774	1.22402	-2.605269
H	1.096081	0.0	0.0
H	-1.636262	0.318525	-1.356616
C	-0.536694	-1.345294	-1.977949
N	-0.518074	-2.427864	-2.433545
N	-0.555694	-1.121223	0.756553
H	-0.264125	-0.972591	1.71858
H	-0.050648	-1.948399	0.45098
N	-0.445294	1.235455	0.730971
O	-0.108253	1.29976	1.910469
O	-1.105131	2.086693	0.139472
Br	3.426643	0.0	0.0
