15

C	0.0	0.0	0.0
C	-0.338662	-0.561305	-1.403621
Br	2.071886	0.0	0.0
H	0.415496	-0.188323	-2.111784
H	-0.204887	-0.749347	0.762077
N	-0.541607	1.252311	0.268209
H	-1.15115	1.239816	1.072178
H	-1.061662	1.573824	-0.541673
N	-1.594941	-0.019847	-1.838277
H	-2.388446	-0.249401	-1.229997
H	-1.80001	-0.304113	-2.786363
N	-0.30037	-2.028161	-1.289391
H	-0.602573	-2.427137	-2.171115
H	0.663426	-2.3144	-1.140634
Cl	-4.245521	0.0	0.0
