15

C	0.0	0.0	0.0
C	-0.451258	-0.064306	-1.502068
Br	2.000708	0.0	0.0
H	0.452746	-0.089652	-2.114501
H	-0.219392	-0.956746	0.479847
N	-0.489578	1.162021	0.678389
H	-0.285834	1.077972	1.667914
H	-1.506431	1.133951	0.577463
N	-1.235724	1.072164	-1.968899
H	-0.794115	1.930067	-1.655404
H	-2.155469	1.020408	-1.535495
N	-1.137505	-1.331872	-1.686979
H	-1.402768	-1.380885	-2.665719
H	-2.011777	-1.277994	-1.163797
Cl	-3.730059	0.0	0.0
