15

C	0.0	0.0	0.0
C	-0.309561	0.036794	-1.513808
Br	2.10559	0.0	0.0
H	0.403579	-0.628041	-2.016495
H	-0.17584	-0.988717	0.420774
N	-0.577609	1.013249	0.734223
H	-1.282054	0.703865	1.386015
H	-0.902625	1.755724	0.127285
N	-0.198152	1.426739	-1.944002
H	-0.656064	1.49378	-2.843954
H	0.776641	1.687125	-2.03115
N	-1.634148	-0.417917	-1.850651
H	-1.691799	-1.423193	-1.75103
H	-2.373338	-0.033843	-1.25548
Cl	-4.267174	0.0	0.0
