15

C	0.0	0.0	0.0
C	-0.419967	0.267623	-1.477235
Br	2.054989	0.0	0.0
H	0.467316	0.381842	-2.101236
H	-0.221405	-1.03461	0.251701
N	-0.493561	0.874039	0.990123
H	-0.601827	1.791988	0.571873
H	-1.419242	0.545991	1.258106
N	-1.138085	1.541558	-1.53175
H	-2.076142	1.38039	-1.16134
H	-1.240418	1.808394	-2.504537
N	-1.121223	-0.929231	-1.935704
H	-1.363668	-0.80222	-2.913354
H	-2.002814	-0.979257	-1.423952
Cl	-3.72973	0.0	0.0
