15

C	0.0	0.0	0.0
C	-0.547426	0.42093	-1.357635
Br	2.018717	0.0	0.0
H	-1.632475	0.401102	-1.18365
H	-0.231295	-1.044092	0.206085
N	-0.491756	0.840171	0.988038
H	-0.224936	0.623437	1.933758
H	-0.398029	1.813768	0.737618
N	-0.238518	-0.492102	-2.451691
H	-0.881199	-1.274768	-2.407521
H	0.705616	-0.851433	-2.344411
N	-0.14877	1.796864	-1.609163
H	-0.766664	2.166732	-2.321805
H	0.790402	1.794783	-1.994008
Cl	-3.938548	0.0	0.0
