15

C	0.0	0.0	0.0
C	-0.353834	-0.200162	-1.496407
Br	1.980126	0.0	0.0
H	0.247613	0.546326	-2.039182
H	-0.256829	-0.903912	0.561818
N	-0.519267	1.237044	0.502452
H	-1.532988	1.190501	0.38723
H	-0.339428	1.30719	1.497091
N	-1.722767	0.016645	-1.874201
H	-1.96068	0.998205	-1.834399
H	-2.396308	-0.451533	-1.270454
N	-0.031542	-1.580087	-1.854145
H	-0.454216	-1.738489	-2.760508
H	0.970469	-1.702818	-1.931468
Cl	-4.274922	0.0	0.0
