15

C	-0.48766	0.093423	-1.450788
C	0.0	0.0	0.0
Cl	-0.233786	-1.476242	-2.298127
H	1.095035	0.0	0.0
H	-1.572472	0.260372	-1.458943
C	0.251137	1.196386	-2.183214
H	1.326622	1.003377	-2.141448
H	-0.075779	1.250222	-3.224245
H	0.04522	2.147408	-1.685353
C	-0.505902	-1.200853	0.678262
N	-0.964251	-2.087838	1.298582
N	-0.413698	1.222797	0.698385
H	-1.298951	1.084644	1.164959
H	0.2831	1.441065	1.397111
Cl	3.391267	0.0	0.0
