15

C	-0.446179	-0.002131	-1.478382
C	0.0	0.0	0.0
Cl	0.058678	1.541794	-2.240329
H	1.095382	0.0	0.0
H	0.1243	-0.780072	-1.990939
C	-1.93658	-0.194311	-1.696663
H	-2.171341	-0.170362	-2.762571
H	-2.254457	-1.156568	-1.287669
H	-2.510945	0.600538	-1.212579
C	-0.464749	-1.26334	0.59186
N	-0.879114	-2.277913	1.015157
N	-0.441698	1.117027	0.820698
H	0.229737	1.864683	0.707789
H	-1.351429	1.451723	0.530551
Cl	3.332369	0.0	0.0
