15

C	-0.440297	0.09671	-1.470652
C	0.0	0.0	0.0
Cl	-0.150946	-1.457241	-2.32195
H	1.096158	0.0	0.0
H	-1.524918	0.252921	-1.51517
C	0.314804	1.201552	-2.186848
H	1.388284	1.025299	-2.086736
H	0.074973	2.169572	-1.739905
H	0.042329	1.232775	-3.243576
C	-0.549083	-1.198035	0.64508
N	-1.042318	-2.12965	1.162364
N	-0.398357	1.177505	0.772647
H	0.34848	1.857786	0.733758
H	-1.253218	1.588986	0.418288
Cl	3.348171	0.0	0.0
