15

C	-0.508443	-0.01078	-1.44591
C	0.0	0.0	0.0
Cl	0.082658	1.468777	-2.278328
H	1.100806	0.0	0.0
H	-0.023951	-0.841298	-1.961932
C	-2.018153	-0.074782	-1.567752
H	-2.465693	0.760935	-1.031232
H	-2.319844	-0.036444	-2.616199
H	-2.384428	-1.007497	-1.132058
C	-0.456455	-1.236497	0.642864
N	-0.828342	-2.226965	1.15337
N	-0.550134	1.151544	0.739795
H	-0.062223	1.965377	0.37597
H	-0.234712	1.059365	1.7
Cl	3.367041	0.0	0.0
