15

C	-0.317833	0.0062	-1.49732
C	0.0	0.0	0.0
Cl	-2.101498	0.113567	-1.788861
H	1.097928	0.0	0.0
H	0.091113	0.937243	-1.896882
C	0.268172	-1.186644	-2.220354
H	0.11595	-1.101598	-3.297953
H	-0.193784	-2.112415	-1.871415
H	1.339806	-1.216563	-2.00249
C	-0.495595	-1.23208	0.620713
N	-0.894663	-2.229674	1.094293
N	-0.448566	1.154857	0.759115
H	0.18687	1.924262	0.57765
H	-1.38706	1.418874	0.475208
Cl	3.34409	0.0	0.0
