15

C	-0.364947	0.028271	-1.47435
C	0.0	0.0	0.0
Cl	-2.164127	0.070886	-1.686401
H	1.096745	0.0	0.0
H	-0.008886	0.987239	-1.852747
C	0.229014	-1.132963	-2.240293
H	-0.184275	-2.081387	-1.890235
H	0.026123	-1.037262	-3.308694
H	1.309739	-1.130254	-2.070491
C	-0.467993	-1.243355	0.636541
N	-0.842535	-2.21331	1.184686
N	-0.444038	1.207339	0.682601
H	0.121307	1.332199	1.514488
H	-1.41596	1.122365	0.958758
Cl	3.343695	0.0	0.0
