15

C	-0.44597	-0.034216	-1.47758
C	0.0	0.0	0.0
Cl	0.06353	1.490697	-2.273746
H	1.09545	0.0	0.0
H	0.121461	-0.825932	-1.972244
C	-1.937325	-0.225867	-1.690299
H	-2.173264	-0.226874	-2.756022
H	-2.507971	0.582489	-1.226081
H	-2.258548	-1.176179	-1.257622
C	-0.466258	-1.248227	0.62236
N	-0.879204	-2.232895	1.112169
N	-0.441882	1.134786	0.796364
H	-1.348549	1.469501	0.494171
H	0.234111	1.876898	0.670223
Cl	3.333757	0.0	0.0
