13
Coordinates from ORCA-job run
  C   0.05089574615801      0.27168182943828      0.25384004257077
  C   1.34336586149825     -0.44313347075040     -0.09506482719262
  Br  0.21406947379029      0.94950398648462      2.10980688630565
  H   2.17974144795764      0.25403005870159     -0.04769796754819
  H   1.27109836102721     -0.83978237235784     -1.11450540985180
  H   1.52742124599930     -1.27537939575079      0.58479581773636
  C   -1.14625451579784     -0.67121996120501      0.23837713372610
  H   -1.27006241972190     -1.06435399862496     -0.77681475383320
  H   -2.05864412718115     -0.14059828141310      0.51838448643169
  H   -1.01020393038615     -1.50892379223849      0.92501154680174
  N   -0.08503241835415      1.43492912424455     -0.59462535511807
  H   -0.03984903650495      1.14439463259314     -1.56604718151986
  H   -0.97754568848457      1.88885164087841     -0.43646041850856
