16

C	0.0	0.0	0.0
C	-0.493021	0.18104	-1.438146
Cl	1.804761	0.0	0.0
H	0.002271	-0.574269	-2.05642
H	-1.567154	-0.030456	-1.414102
C	-0.498867	1.070094	0.956401
H	-0.179091	0.844337	1.975159
H	-1.591545	1.077723	0.900949
H	-0.090624	2.039809	0.667064
C	-0.367274	-1.336686	0.483428
N	-0.597261	-2.418777	0.878536
C	-0.248806	1.578811	-1.9955
H	0.782162	1.908542	-1.839506
H	-0.926081	2.300893	-1.53677
H	-0.443539	1.585541	-3.070942
Cl	-3.733827	0.0	0.0
