16

C	0.0	0.0	0.0
C	-0.428928	-0.256852	-1.45545
Cl	1.803481	0.0	0.0
H	-0.244381	0.676937	-1.999941
H	0.255589	-1.001705	-1.871082
C	-0.566045	1.285394	0.573849
H	-0.252477	2.127209	-0.046785
H	-1.658633	1.217453	0.571975
H	-0.219903	1.442856	1.59641
C	-0.363647	-1.145906	0.844241
N	-0.617171	-2.070688	1.523279
C	-1.866731	-0.728682	-1.623581
H	-1.995079	-1.733127	-1.214436
H	-2.623001	-0.10962	-1.139904
H	-2.107758	-0.774528	-2.689416
Cl	-4.835922	0.0	0.0
