13
Coordinates from ORCA-job run
  C   -0.86462398877809     -0.26476842947014      0.28344478508718
  C   0.65927893598488     -0.19752733186038      0.23998957068454
  Br  -1.64019350894983      1.30382312447491      1.04338816540264
  H   1.01785553804141     -1.03152117704251     -0.37213934602879
  H   -1.16135282396942     -1.12077211109156      0.89193019815439
  N   -1.40171572395509     -0.59111736358961     -1.11220132351918
  O   -2.30220786761087      0.07693280576478     -1.58220187949406
  O   -0.86843271741927     -1.57818626119604     -1.60639533949174
  C   1.22957332238053     -0.26079901229677      1.57667183062691
  N   1.66987565190953     -0.37193141115333      2.65977662104430
  N   1.11356880963610      1.05671226413713     -0.48684101572545
  O   0.54679075940486      1.25398126671393     -1.55391237921467
  O   2.00258361332528      1.72417363660959      0.01949011247391
