13
Coordinates from ORCA-job run
  C   -0.47996835563714     -0.65283982341312     -0.35548882144127
  C   0.44973127322535      0.26549549621809      0.42874256330295
  Br  -0.29842626455593     -2.47443766332930      0.22345132493649
  H   0.28560481280868      0.16504419232866      1.50119290470838
  H   -0.28748782605829     -0.60236110752326     -1.42536644859874
  N   -1.90146691866225     -0.20718402686338     -0.13208234062577
  O   -2.65048209817136     -0.29837200817450     -1.09633380626401
  O   -2.18232387957240      0.18918738256279      0.99433716910037
  C   0.28458637063264      1.64782409850769     -0.00705702990559
  N   0.13444861980050      2.75365210706977     -0.37393152483370
  N   1.87658839576446     -0.16055293562676      0.14950873752153
  O   2.57084990260747     -0.41044589898867      1.12537910462882
  O   2.19734596781829     -0.21500981276800     -1.03135183252945
