13
Coordinates from ORCA-job run
  C   -0.54484461276614     -0.85801456977212      0.17917779493666
  C   0.66256593190551      0.00871872913809      0.49593894827186
  Br  -1.47794935738526     -1.32158431694989      1.79269633662506
  H   1.35856358107828     -0.59596591875624      1.08842499919083
  H   -0.24452247257838     -1.77837418431323     -0.31641335668985
  N   -1.48434553073287     -0.16032714240273     -0.77993241072852
  O   -2.39930151698317     -0.84171013491746     -1.21653485311817
  O   -1.23046793465828      1.00840993204161     -1.05303766850463
  C   0.35951042602585      1.23610013837738      1.21739635865459
  N   0.13706379885459      2.19367635046475      1.85931546305796
  N   1.42548854652805      0.31495990311991     -0.79111720814485
  O   1.37274766911904     -0.55781619424116     -1.64911102710687
  O   2.06549147159277      1.35192740821108     -0.82680337644408
