13
Coordinates from ORCA-job run
  C   -0.54869822896712     -0.85410025992288      0.17636985163292
  C   0.66322117826800      0.00488640865162      0.49801358690259
  Br  -1.48647891393111     -1.31977616898042      1.78617372491722
  H   1.35209015475092     -0.60489601667708      1.09361384431284
  H   -0.25131976807996     -1.77389200032044     -0.32231694578541
  N   -1.48243527484196     -0.14853723335760     -0.78314282412914
  O   -2.41123978205848     -0.81748939837664     -1.20930791526906
  O   -1.20902352201761      1.01288749498245     -1.06844660424717
  C   0.36270467707713      1.23379948078718      1.21792620393400
  N   0.11373852472190      2.18858472953864      1.85417330084273
  N   1.43494388617851      0.30593972438693     -0.78440442308224
  O   2.07722233402177      1.34160983672574     -0.81835162755084
  O   1.38627473487801     -0.56901659743749     -1.64030017247844
