17
Coordinates from ORCA-job run
  C   -0.92765070031949     -0.09835079516842     -0.14987578535025
  C   0.34412460914356      0.74177991835018     -0.00268997256797
  H   -1.49453306580837      0.24657561754791     -1.01805079211958
  H   0.00660679816885      1.70628650768701      0.38592906287165
  N   -1.66139239266837     -0.09478462668225      1.08795691819677
  H   -1.96200713976018     -1.03467641163505      1.31272972226901
  H   -2.47080223967433      0.50551793434211      1.01225699862302
  N   -0.51836919540319     -1.50967052066460     -0.51294077479830
  O   0.20007263158260     -1.61183060351814     -1.50282004260955
  O   -0.91338144961543     -2.43430103042365      0.18856038850531
  N   0.89839868189506      1.06973489186139     -1.36724506838737
  O   2.07939500848933      0.83424295112844     -1.59434760528349
  O   0.10960100107693      1.58732675773189     -2.15511121876430
  C   1.38548541251594      0.13187878408483      0.90567996491264
  H   1.82469482902227     -0.76058021807336      0.46199408039592
  H   2.19102219974410      0.84121466268000      1.09308190995307
  H   0.91073501161071     -0.12036381924829      1.85589221415341
