17
Coordinates from ORCA-job run
  C   -0.41530152344750     -0.73578277689004      0.20131963656064
  C   0.44221863312901      0.40917384647803     -0.32466515451785
  H   -0.08716674499422     -1.03155254802435      1.19753733418858
  H   0.14526944960150      0.64338115365056     -1.34909497404497
  N   -0.38889249907224     -1.83168271416150     -0.69421996661115
  H   -0.81273337179237     -1.59413396488898     -1.58225621927580
  H   -0.83471667518652     -2.65354979565636     -0.30979956727484
  N   -1.80326373572188     -0.13313053213750      0.40571966109079
  O   -2.45936425251040      0.06970864482155     -0.61477770324466
  O   -2.14666249912618      0.13289116259065      1.55453642429836
  N   1.83537195949194     -0.13424035174293     -0.42853270741351
  O   2.36631115579015     -0.11701830772321     -1.53448385340188
  O   2.34438959027246     -0.53696678966400      0.61388339387374
  C   0.45177846567913      1.64420303546471      0.55611794865152
  H   -0.52647255254887      2.12656258666420      0.54419184492179
  H   1.18538369083754      2.36076653640356      0.18184134441706
  H   0.70485090959847      1.38137081481560      1.58368255778216
