17
Coordinates from ORCA-job run
  C   -0.93137763912337     -0.23072948334743      0.13991706027222
  C   0.27461095361180      0.67922255350489     -0.16510373909755
  H   -1.67686054559530      0.38172055725922      0.65057267163304
  H   -0.06824663016139      1.52477525097390     -0.76303813473561
  N   -0.71974892676616     -1.43891624055024      0.84960708476879
  H   0.14590963987749     -1.89697572217937      0.60113093278691
  H   -0.79366248856644     -1.31327793826705      1.84709980533675
  N   -1.55733841108485     -0.53134630732574     -1.21436791566087
  O   -2.26111486883855      0.35649618677365     -1.68896016502285
  O   -1.26188815910022     -1.59463594190253     -1.74485302098788
  N   1.22310891358686     -0.06428022145057     -1.05639750907863
  O   1.27869369197458      0.27851142633170     -2.23432435640127
  O   1.86841815123093     -0.97979477519928     -0.54276564929839
  C   0.98797383889353      1.11960545477519      1.09567084714576
  H   1.34314891221820      0.25764288474658      1.65858817397305
  H   0.30328999215750      1.70041913959909      1.71835894267547
  H   1.84408357568538      1.75056317625802      0.84986497169106
