17
Coordinates from ORCA-job run
  C   0.78635106515307      0.15390525534611     -0.41124483370605
  C   -0.73247505266419      0.14107964231604     -0.24224667496657
  Cl  1.13824124851782      0.15707489396664     -2.21025178823522
  H   -1.14201224097470      0.99946540785341     -0.76854826674001
  N   1.32356249882866      1.52375919423484      0.03820687290218
  O   2.50885639910970      1.55603250806885      0.33522868403454
  O   0.54534649094509      2.46895658429875      0.03134897660782
  N   1.45317564518801     -0.81338880567070      0.33286205666947
  H   2.45654954234598     -0.75839829828510      0.21974717736640
  H   1.09183334002435     -1.73832313092308      0.13898995052795
  C   -1.18059859297878      0.09351231565759      1.20737220429750
  H   -0.79679085221066     -0.79650127013997      1.70297994400405
  H   -2.27198723792572      0.09292324047683      1.24759101751112
  H   -0.82053604377710      0.97721898136660      1.73394765116867
  N   -1.30050912605602     -1.05341506193111     -0.95373547575471
  O   -0.85548342241060     -2.16021553958667     -0.64894484185329
  O   -2.20552366111491     -0.84368591704905     -1.75330265383384
