17
Coordinates from ORCA-job run
  C   0.70591604452171      0.24416987966555     -0.68580305317825
  C   -0.66322034242553     -0.32875178105036     -0.21957881404439
  Cl  0.39987189175017      1.14316314555310     -2.17495283617486
  H   -1.03329253879024     -0.92376159710678     -1.05693730260788
  N   1.16760291511871      1.20321897180142      0.42142635848556
  O   0.92719809293931      2.39568454961083      0.32739150918353
  O   1.69896791268755      0.62969013896656      1.36828263299821
  N   1.78627415660730     -0.64918795760591     -0.91190268744957
  H   2.00358611120729     -1.17454897399114     -0.07474575737217
  H   1.56560155007146     -1.28718503925597     -1.66533357085585
  C   -1.67618695159351      0.70016216862809      0.23426621807895
  H   -1.85571340511286      1.42349841821491     -0.55994148904476
  H   -2.61673651875146      0.20275743413931      0.47553491098692
  H   -1.33621171154723      1.22495907168964      1.12531135328276
  N   -0.42366229694863     -1.34433945003088      0.86913233612296
  O   -0.00411032521517     -2.44089714149068      0.49762998388788
  O   -0.64788458451886     -1.01963183773774      2.03122020770096
