17
Coordinates from ORCA-job run
  C   0.69423415067844      0.24485319789906     -0.69831568751180
  C   -0.66770546159467     -0.32711864618226     -0.21056524485041
  Cl  0.36392477368866      1.14520355420995     -2.18193266074114
  H   -1.05252607267682     -0.91979506223894     -1.04287950713730
  N   1.17584308612798      1.20357185702620      0.40087193142565
  O   1.73456190051753      0.63321576344467      1.33381663858809
  O   0.92270973576605      2.39411436648491      0.31544693197341
  N   1.76835098588723     -0.65081695878195     -0.94219143701171
  H   1.52683446032277     -1.30189621167703     -1.67779181111448
  H   2.01266645567269     -1.16043598475196     -0.10276911759349
  C   -1.67202531694804      0.70064241139362      0.26439961631866
  H   -1.86244311868437      1.42899738843688     -0.52265713071598
  H   -2.60961147879908      0.20314984222207      0.51692537594872
  H   -1.31719643358514      1.21970017818319      1.15295826050806
  N   -0.40899002378655     -1.34619759820139      0.87035582750023
  O   -0.59882739080372     -1.02032247842299      2.03833849277867
  O   -0.00880025178292     -2.44586561904406      0.48698952163485
