17
Coordinates from ORCA-job run
  C   0.79770435578691      0.11113234864612     -0.53403465156939
  C   -0.72482392995965      0.09979222526099     -0.34882725307560
  Cl  1.24713514322392      0.34505085028587     -2.23559177917459
  H   -1.14090431580639      0.88857158702840     -0.97293341856755
  N   1.25582088018015      1.44205367394720      0.17342762644724
  O   0.70265379587984      2.47498580924679     -0.17778968434291
  O   2.11048854434537      1.32543536207854      1.04327482455987
  N   1.42500652285527     -1.02864985492972     -0.03657354117131
  H   2.43287919095000     -0.96058556090796     -0.07278662756403
  H   1.11490798557647     -1.28162614738768      0.89076231211974
  C   -1.17383980609121      0.24396336848473      1.09478108552792
  H   -2.25894390241250      0.13974980878210      1.14368438750792
  H   -0.74301225081236     -0.51750586106535      1.74369527786829
  H   -0.91552614982571      1.23448404319568      1.46975570698258
  N   -1.24679584045377     -1.18870192490612     -0.91865549800196
  O   -1.26095964640209     -2.16471481172877     -0.17320067028728
  O   -1.62079057703424     -1.16443491603078     -2.08798809725892
