17
Coordinates from ORCA-job run
  C   0.89807424321763      0.04255611889820     -0.44702077802973
  C   -0.62677120506716     -0.20712116944984     -0.39183057276665
  Cl  1.52126858248100     -0.75176643738862     -1.91338403401503
  H   -1.06526056341192      0.13040544378574     -1.33005378776054
  N   0.99139883595824      1.57006205961078     -0.66312120414776
  O   0.52099708414125      2.00184553821049     -1.70534648814403
  O   1.45873850269932      2.23424143893378      0.25528098287718
  N   1.69729525015177     -0.28794706136631      0.66367755977783
  H   1.64666951542203      0.41660517130881      1.38608277391946
  H   1.46571093326109     -1.20905592164229      1.01018221474440
  C   -1.28402238920877      0.43211057271745      0.81592116179353
  H   -0.84149763619471      0.05858695975546      1.73936357101435
  H   -2.35065378431937      0.19955237839676      0.82036688264898
  H   -1.17852547649661      1.51778136821528      0.78024356752742
  N   -0.88067942465932     -1.68257528407709     -0.35561680749105
  O   -1.57857011998008     -2.15276664019202     -1.24781642942766
  O   -0.39517234799437     -2.31351453571657      0.58407138747930
