17
Coordinates from ORCA-job run
  C   0.71202609144588      0.19872295601673     -0.55295465657492
  C   -0.67859673559910     -0.34089703289214     -0.19957362658434
  Cl  0.51803173575115      1.22705796418440     -2.05017193681780
  H   -0.97438081578869     -0.96744893071545     -1.04450063405990
  N   1.27680728212563      1.17226256089684      0.49282778145815
  O   0.54199761562732      2.08114931317803      0.84388356259685
  O   2.43100019020622      0.98456779939195      0.85259564981918
  N   1.60845146260044     -0.86446568394396     -0.68204712330719
  H   2.56914387838797     -0.56242901982873     -0.76871405194420
  H   1.34681702948240     -1.49794672219133     -1.42509734491238
  C   -1.79541063797347      0.62200755175223      0.15576399280564
  H   -2.72572220848078      0.05357064920756      0.22517547286148
  H   -1.90585247498024      1.38065853424301     -0.61755964379627
  H   -1.60036752265316      1.11249022319278      1.10525887924186
  N   -0.48510528306963     -1.30107388049694      0.93950599809262
  O   -0.05511267634194     -0.82327564081483      1.98445718591863
  O   -0.78372693074001     -2.47495064118019      0.74215049520257
