17
Coordinates from ORCA-job run
  C   0.68377730474521      0.27684674317518     -0.69630687301461
  C   -0.65898773762211     -0.34295553629277     -0.21627723144419
  Cl  0.32318873710815      1.18890449570018     -2.16745540833788
  H   -1.02300410547053     -0.93883469432474     -1.05550943226787
  N   1.14412814558403      1.23742776259655      0.41139963789866
  O   0.79542446742586      2.40625607222644      0.36702071046032
  O   1.78422312679642      0.69325441643240      1.30657001964212
  N   1.77615881665211     -0.59050664908158     -0.95499710213202
  H   1.53559455096252     -1.26386899718687     -1.67041943762142
  H   2.06785024307208     -1.07023495344627     -0.11324731077557
  C   -1.70167212335075      0.63800790392970      0.27459469318378
  H   -1.36742646622879      1.15461942530183      1.17220800927257
  H   -2.62021408152721      0.10005157260414      0.51487014961855
  H   -1.91807771354885      1.37258927702267     -0.49981711115498
  N   -0.35680523384502     -1.36361037866417      0.85021418191530
  O   -0.48907803793430     -1.03358074383134      2.02543735383211
  O   0.02392010718119     -2.46436571616142      0.45071515092516
