17
Coordinates from ORCA-job run
  C   0.70178901547285      0.27030657773246     -0.67404749865158
  C   -0.66665909969211     -0.31683218017467     -0.24799644171935
  Cl  0.39963117928038      1.22164850603256     -2.14760781868394
  H   -1.01298614742166     -0.89988050669005     -1.10364354975355
  N   1.19854209785299      1.23008325188603      0.42410978683727
  O   0.63570503377014      2.31086538359268      0.51042973658495
  O   2.08613004112477      0.80758667791061      1.15626360648571
  N   1.73355843303930     -0.66563233399635     -0.91249742958408
  H   2.17192248585647     -0.96373068621230     -0.05123271523167
  H   1.40934294426177     -1.45340192199484     -1.45648063293995
  C   -1.73519473587426      0.64018266904967      0.23666287716206
  H   -1.44056681257061      1.12358152600372      1.16525070770981
  H   -1.92255554123754      1.40439397466242     -0.51621540162211
  H   -2.65846971752250      0.08220893292645      0.40726759938804
  N   -0.38283296613226     -1.34366684659957      0.81046272968877
  O   -0.34667861505019     -2.51985092750774      0.45211667920763
  O   -0.17167759515749     -0.92886209662106      1.94815776512197
