17
Coordinates from ORCA-job run
  C   0.82480089835091     -0.10091111123438     -0.49347040520353
  C   -0.68944691300576     -0.27857074535936     -0.32406690972579
  Cl  1.41755366735759     -0.90404122727378     -1.96026064503661
  H   -1.15043540101804     -0.14888354422516     -1.30163674248190
  N   0.99292030221892      1.43614317726290     -0.79632441812743
  O   0.33622346112601      1.89392867797769     -1.72119352803253
  O   1.74597463404883      2.05399253365433     -0.05335218700714
  N   1.55952093300158     -0.53529100628559      0.60781152932698
  H   1.19979918910251     -0.19035098180893      1.48640725307856
  H   2.54500829388476     -0.32862690736585      0.51850457936429
  C   -1.31014358216981      0.64901109770080      0.70562514307459
  H   -1.24490205728796      1.68312710834948      0.36673523415127
  H   -0.84468458097939      0.55434522416835      1.68589806973628
  H   -2.36648228077543      0.40021765438446      0.81957281702195
  N   -0.94312907348543     -1.70899739604471      0.05944939086008
  O   -1.17979771968862     -2.49244875411167     -0.85601805464872
  O   -0.89577977068070     -1.98464379978857      1.25531887364968
