17
Coordinates from ORCA-job run
  C   0.69229979154237     -0.00707515017726     -0.67600447239721
  C   -0.76047126623518     -0.18294445642691     -0.21458760757893
  Cl  0.89990380058511     -0.47208357384598     -2.37558445797221
  H   -1.40828445422727      0.16886615064147     -1.01560460007027
  N   0.90262116917978      1.55385050203771     -0.67027366567888
  O   0.10270049718424      2.22294510348198     -1.30958659779450
  O   1.83367437000663      1.97138192755488      0.00771772647909
  N   1.60987751842222     -0.69642365838082      0.11368743340086
  H   2.56683513333462     -0.49954659143430     -0.14543828243206
  H   1.46925379736979     -0.55449656914224      1.10374707797573
  C   -1.08128740212430      0.50931487966329      1.09833012252265
  H   -2.10189185277784      0.26009946982253      1.39312787075714
  H   -0.42159791548012      0.19676165986462      1.90683686134788
  H   -1.02322520838291      1.59099599850798      0.97548799772397
  N   -1.02667593217347     -1.65668576738058     -0.09300141688858
  O   -1.50337527152903     -2.21506883670481     -1.07720111336860
  O   -0.74835677469466     -2.18889108808154      0.97834712397392
