17
Coordinates from ORCA-job run
  C   0.70889341661482      0.50149654308121     -0.21789613843753
  C   -0.44483778646945     -0.41078719655703      0.24804430696259
  Cl  0.32974928101979      2.18046842397460      0.12251504389476
  H   -0.05228861565795     -1.43091103776078      0.24356531533970
  N   1.98670370718616      0.07419929787841      0.54424118652264
  O   2.56926690239673      0.86681257020789      1.25820608693126
  O   2.31498370042822     -1.08056050171499      0.29195326265982
  N   1.07622191907897      0.36981429962657     -1.59257044207075
  H   0.38620507534859      0.78773681410016     -2.20096955790930
  H   1.23681783289490     -0.60119710201978     -1.83135548906994
  C   -1.68960155296265     -0.28775925832403     -0.60064035775300
  H   -1.48131846049499     -0.63774877552095     -1.61239350947010
  H   -2.48233273157954     -0.90958227243297     -0.18551655703850
  H   -2.04972790904602      0.73967766165658     -0.63372926891193
  N   -0.74115303899383     -0.12511669113370      1.69647908904990
  O   0.16258399999587     -0.39499428376722      2.48478925785122
  O   -1.83016573975965      0.35945150870612      1.98627777144913
