17
Coordinates from ORCA-job run
  C   0.69700254220324      0.14356215524115     -0.70840779033200
  C   -0.73782917645290     -0.09910196994254     -0.18602743348249
  Cl  0.71892442816470     -0.27503007340688     -2.43831761107237
  H   -1.43169261961212      0.46092780636280     -0.81162683011734
  N   0.85327064751121      1.67677496560896     -0.59231843793605
  O   0.10394952060561      2.35380882160662     -1.28086166659706
  O   1.65869634352304      2.09252680972805      0.23315204724664
  N   1.78776598074256     -0.45436063165485     -0.04906989214234
  H   2.04201203560794      0.04890045991846      0.78935887451286
  H   1.60371920276620     -1.43171352062649      0.13292238386008
  C   -0.89175119828848      0.23017550870185      1.28605980019173
  H   -1.91223020581720      0.01214044201992      1.60685587003884
  H   -0.70450475125106      1.29054960561771      1.46382758860992
  H   -0.20275275488162     -0.36207698474469      1.88824201879152
  N   -1.10027525906465     -1.53656990458313     -0.39952716043228
  O   -2.09660157495483     -1.76801424140387     -1.07629968899279
  O   -0.38770316080163     -2.38249924844306      0.14203792785312
