17
Coordinates from ORCA-job run
  C   0.73092583168474      0.31031067034637     -0.21858046470747
  C   -0.52868888834160     -0.38610632251783      0.29741339410472
  Cl  0.60751698434009      2.07713135845460      0.08215563041482
  H   -0.27113266418146     -1.44130162970042      0.40976096840827
  N   1.98522556157887     -0.23163239002664      0.51360616467147
  O   1.96879613189318     -1.42878474231668      0.75459888485279
  O   2.91427172668923      0.54057899233504      0.68754353904781
  N   0.96845597390436     -0.02727943507780     -1.57521006498483
  H   0.23656389648208      0.33815473838729     -2.17096407617001
  H   1.85313667190488      0.36384508673980     -1.88235691003513
  C   -1.73213078755569     -0.20324210657871     -0.60022602271621
  H   -2.60990215623678     -0.64421200467428     -0.13202471441025
  H   -1.94048018798277      0.85252685109476     -0.77891563911756
  H   -1.56150503674586     -0.71917750711297     -1.54588200587684
  N   -0.80974782092701      0.09214161493016      1.70215704584791
  O   0.14886404379108      0.09881327790989      2.46788633987431
  O   -1.95916928029734      0.40823354780743      1.98903793079619
