17
Coordinates from ORCA-job run
  C   0.74156678182191      0.46207162383475     -0.19605597685552
  C   -0.47223468669693     -0.38908690297053      0.23124591833169
  Cl  0.45947418736873      2.15226733641701      0.18130851627435
  H   -0.14281587430085     -1.43100088038283      0.20468939734696
  N   1.97925989360748     -0.06057665627769      0.57196061576327
  O   2.59748418701544      0.67691805686244      1.31448097564099
  O   2.23847354706917     -1.22785142231448      0.29775447246013
  N   1.12022587302335      0.34155398412517     -1.56867139414731
  H   0.46861744265064      0.81918947417997     -2.17533936275679
  H   1.22234613907960     -0.63122780795161     -1.83095887565275
  C   -1.69515965390170     -0.16844186516121     -0.62953777822402
  H   -2.52934893143104     -0.75292166339455     -0.24238180457328
  H   -1.49334433957382     -0.50195665307983     -1.64812083030311
  H   -1.99305173535148      0.87917628254181     -0.63803021804973
  N   -0.77132836121690     -0.12245412190619      1.68292248442047
  O   -1.83451854333220      0.41731226050816      1.97131321777614
  O   0.10435407416858     -0.46297104503041      2.47542064254850
