17
Coordinates from ORCA-job run
  C   0.72983257103050      0.34416771408865     -0.29072989453044
  C   -0.47518924778845     -0.40700099605937      0.28781765199323
  Cl  0.58937035330081      2.13785926770278     -0.16426079596353
  H   -0.18759799754794     -1.45907272942157      0.29562279087694
  N   1.99657577872466      0.00647632926970      0.50898224881542
  O   1.84444549232578     -0.24654085957520      1.69574434632954
  O   3.05754270594304      0.05501467959102     -0.09888361263979
  N   0.95670174762158     -0.11837603913984     -1.60793005618404
  H   0.28511408805528      0.28569045937114     -2.24751518525702
  H   1.89310090275304      0.13961685762558     -1.90006523524995
  C   -1.73921328369700     -0.18569315282665     -0.52681540747864
  H   -1.98131748326969      0.87590996940955     -0.58011327588721
  H   -1.62501947668245     -0.59809298504354     -1.52927629225530
  H   -2.56908103118701     -0.70817924019238     -0.04748935610194
  N   -0.81271394295836     -0.10343394872954      1.72161400894422
  O   -0.82794572892671     -1.06443223129820      2.48431314296614
  O   -1.13460544769701      1.04608690522791      1.99998492162240
