17
Coordinates from ORCA-job run
  C   0.69377232611188      0.28262814702110     -0.68260444741603
  C   -0.65846346117923     -0.33510197629635     -0.23224475381712
  Cl  0.35822091287535      1.21369699236512     -2.15105027399559
  H   -1.00730036480428     -0.92469669778805     -1.08221162073464
  N   1.15424577990028      1.23660651870092      0.43238878194760
  O   1.88357647727271      0.72619132650893      1.27695967142116
  O   0.71519158935322      2.37602248350504      0.43781920587723
  N   1.77197035253515     -0.60183787867547     -0.93525487088185
  H   2.09844325333078     -1.03579692661755     -0.08168585434868
  H   1.51029316432365     -1.30664927217816     -1.61170676046058
  C   -1.71811809419454      0.63012142561009      0.25378335250329
  H   -2.63712852293721      0.07896615944694      0.46199413713831
  H   -1.92358380376572      1.37718574027055     -0.51154342562599
  H   -1.40637967014857      1.13335117395889      1.16652215820071
  N   -0.36190040834870     -1.36092864202213      0.82831619713785
  O   -0.39060963841033     -0.99925879155714      2.00200798826073
  O   -0.08222989191441     -2.49149978225272      0.42951051479358
