19

C	-0.490675	0.018629	-1.464255
C	0.0	0.0	0.0
Br	0.141154	-1.623918	-2.357938
H	1.090938	0.0	0.0
C	-2.001503	0.056941	-1.646977
H	-2.424967	0.939577	-1.156851
H	-2.482145	-0.826937	-1.232282
H	-2.234931	0.120358	-2.712347
C	0.193803	1.193365	-2.15295
H	1.272855	1.149009	-1.987069
H	-0.194027	2.131162	-1.742862
H	-0.012753	1.176408	-3.225226
N	-0.515569	-1.227974	0.701313
O	0.247348	-2.165327	0.900414
O	-1.706024	-1.200234	1.030998
N	-0.409408	1.128541	0.789891
H	-1.332613	1.473449	0.570081
H	0.288645	1.8568	0.733304
Cl	3.388406	0.0	0.0
