19

C	-0.344876	0.008937	-1.50164
C	0.0	0.0	0.0
Br	-2.316129	0.170483	-1.755739
H	1.093204	0.0	0.0
C	0.30039	1.242297	-2.116658
H	-0.078	2.159735	-1.665046
H	1.380104	1.176886	-1.944689
H	0.098573	1.275348	-3.189169
C	0.122768	-1.245577	-2.218773
H	1.190348	-1.370285	-2.011178
H	-0.033639	-1.134336	-3.294677
H	-0.402445	-2.13699	-1.878746
N	-0.492956	-1.279489	0.626736
O	0.200638	-2.285358	0.488781
O	-1.577949	-1.245137	1.204005
N	-0.448969	1.095503	0.792771
H	0.243823	1.828781	0.787785
H	-1.359398	1.435198	0.517484
Cl	3.351486	0.0	0.0
