19

C	-0.385229	-0.008871	-1.481899
C	0.0	0.0	0.0
Br	-2.374703	0.002387	-1.645346
H	1.094076	0.0	0.0
C	0.141553	1.277258	-2.10041
H	1.229137	1.282345	-1.970042
H	-0.100612	1.307417	-3.165393
H	-0.272856	2.149663	-1.599263
C	0.142047	-1.218109	-2.236136
H	-0.050625	-1.089172	-3.303807
H	-0.314378	-2.148774	-1.906706
H	1.220852	-1.278502	-2.059836
N	-0.430595	-1.301149	0.676178
O	0.185712	-2.325232	0.390889
O	-1.373039	-1.249341	1.470222
N	-0.475278	1.144053	0.698526
H	-1.44256	1.011378	0.969948
H	0.08792	1.27856	1.529932
Cl	3.331344	0.0	0.0
