19

C	-0.538566	0.024654	-1.444256
C	0.0	0.0	0.0
Br	-0.189695	-1.707546	-2.323669
H	1.090951	0.0	0.0
C	-2.036618	0.275406	-1.526877
H	-2.259325	1.244815	-1.072971
H	-2.34736	0.301562	-2.573529
H	-2.604752	-0.500025	-1.011587
C	0.261549	1.079631	-2.196543
H	0.066218	2.052129	-1.738778
H	-0.037833	1.103768	-3.247357
H	1.33018	0.867956	-2.119149
N	-0.481263	-1.23989	0.732399
O	-1.62315	-1.190537	1.211005
O	0.263212	-2.208534	0.806602
N	-0.430464	1.189976	0.685407
H	-1.331399	1.033164	1.120165
H	0.255443	1.414831	1.395746
Cl	3.373245	0.0	0.0
