19

C	-0.327314	0.005074	-1.505296
C	0.0	0.0	0.0
Br	-2.297146	0.147157	-1.785619
H	1.093227	0.0	0.0
C	0.311796	1.245222	-2.112732
H	1.388838	1.19728	-1.913558
H	-0.092095	2.159321	-1.674869
H	0.13708	1.269905	-3.191004
C	0.163323	-1.244567	-2.214797
H	0.028497	-1.132278	-3.293316
H	-0.361667	-2.139955	-1.886283
H	1.227054	-1.36161	-1.985348
N	-0.498411	-1.276927	0.624447
O	-1.584284	-1.240131	1.20132
O	0.191762	-2.285924	0.485069
N	-0.453651	1.101244	0.781158
H	0.247157	1.827722	0.79064
H	-1.354541	1.451248	0.484558
Cl	3.34022	0.0	0.0
