18

C	0.0	0.0	0.0
C	-0.599255	-0.008236	-1.413408
Cl	1.789542	0.0	0.0
H	-1.710519	0.110678	-1.208899
C	-0.425559	1.289498	0.693559
H	0.029831	2.165883	0.236825
H	-0.107873	1.205912	1.733604
H	-1.517929	1.347678	0.644913
N	-0.523276	-1.094063	0.769936
H	-1.550467	-0.947457	0.740925
H	-0.300044	-1.969471	0.310069
N	-0.446945	-1.269984	-2.194774
O	0.315464	-2.15314	-1.803532
O	-1.142152	-1.333295	-3.207528
N	-0.097074	1.075307	-2.300705
O	-0.563321	2.197881	-2.111808
O	0.752796	0.790524	-3.146371
H	-3.02336	0.0	0.0
