16

C	-0.418327	-0.030532	-1.480051
C	0.0	0.0	0.0
Cl	0.150361	-1.52666	-2.26872
H	1.099837	0.0	0.0
C	-1.878883	0.069724	-1.611805
N	-3.042975	0.218825	-1.661921
N	0.204269	1.079243	-2.17905
H	0.004065	1.904333	-1.618971
H	1.210909	0.924501	-2.115602
N	-0.485849	-1.173278	0.816283
O	-0.10359	-1.191878	1.984464
O	-1.258295	-1.987216	0.306576
N	-0.434255	1.23369	0.591521
H	-1.377857	1.175274	0.957266
H	0.204424	1.482762	1.336543
Br	3.399205	0.0	0.0
