16

C	-0.583727	-0.015538	-1.421416
C	0.0	0.0	0.0
Cl	-0.108096	1.515352	-2.216295
H	1.090026	0.0	0.0
C	-0.026197	-1.087054	-2.265798
N	0.286709	-1.952184	-2.997717
N	-2.038593	-0.05044	-1.356399
H	-2.414061	0.193986	-2.266623
H	-2.306901	-1.008233	-1.149032
N	-0.390855	-1.306333	0.704452
O	-0.170399	-1.346222	1.909828
O	-0.889588	-2.230205	0.054481
N	-0.447393	1.128704	0.725468
H	-1.424889	1.069003	0.968665
H	0.14035	1.276358	1.531289
Br	3.399442	0.0	0.0
