16

C	-0.31087	-0.07436	-1.516101
C	0.0	0.0	0.0
Cl	-2.086458	-0.375536	-1.809629
H	1.092399	0.0	0.0
C	-0.07692	1.273359	-2.071773
N	0.124671	2.338095	-2.528157
N	0.458417	-1.105839	-2.123376
H	1.391883	-1.1303	-1.709604
H	0.524176	-0.974737	-3.123923
N	-0.475563	-1.280925	0.631209
O	0.233677	-2.271968	0.492746
O	-1.551715	-1.24685	1.223201
N	-0.511015	1.109337	0.715328
H	0.116893	1.895817	0.630542
H	-1.456266	1.354503	0.454236
Br	3.406712	0.0	0.0
