16

C	-0.566943	-0.02372	-1.435284
C	0.0	0.0	0.0
Cl	0.341629	1.277803	-2.350789
H	1.088281	0.0	0.0
C	-0.32314	-1.263388	-2.176141
N	-0.184787	-2.202315	-2.867779
N	-1.969851	0.219556	-1.380284
H	-2.100161	1.109433	-0.90936
H	-2.358991	0.272225	-2.313799
N	-0.433298	-1.287179	0.682416
O	-1.307322	-1.225439	1.548101
O	0.122838	-2.314896	0.314601
N	-0.500028	1.151384	0.685194
H	-1.255258	0.870013	1.29584
H	0.246422	1.543743	1.240678
Br	3.441092	0.0	0.0
