16

C	-0.449476	0.016691	-1.478705
C	0.0	0.0	0.0
Cl	-0.040075	-1.528023	-2.278266
H	1.090757	0.0	0.0
C	-1.906956	0.198101	-1.569498
N	-3.068198	0.36579	-1.628882
N	0.215727	1.085837	-2.19024
H	0.028467	1.931545	-1.656571
H	1.21868	0.907854	-2.110358
N	-0.498243	-1.242989	0.706782
O	0.254904	-2.206259	0.794834
O	-1.654914	-1.197399	1.143546
N	-0.478742	1.194043	0.623224
H	-1.418842	1.057844	0.976409
H	0.144458	1.451707	1.378035
Br	3.439814	0.0	0.0
