16

C	-0.314825	-0.064765	-1.514255
C	0.0	0.0	0.0
Cl	-2.101621	-0.297709	-1.806048
H	1.092377	0.0	0.0
C	-0.02757	1.272315	-2.071871
N	0.21961	2.329499	-2.523574
N	0.413004	-1.127765	-2.118941
H	0.474567	-1.007751	-3.121416
H	1.348503	-1.174767	-1.713125
N	-0.479596	-1.280922	0.626268
O	0.236944	-2.269916	0.503497
O	-1.566132	-1.250653	1.201711
N	-0.504899	1.110051	0.719577
H	-1.439079	1.37749	0.443339
H	0.140418	1.884071	0.658151
Br	3.400563	0.0	0.0
