18

C	-0.5164	-0.010449	-1.43336
C	0.0	0.0	0.0
Cl	-2.264977	-0.095668	-1.542341
H	1.096798	0.0	0.0
N	-0.007173	1.230185	-2.166948
O	1.14605	1.145437	-2.570314
O	-0.746485	2.205054	-2.226857
N	0.03794	-1.176395	-2.255399
O	-0.255825	-1.168802	-3.446462
O	0.714796	-2.010082	-1.670782
N	-0.512497	-1.194768	0.673094
H	-0.729862	-0.959545	1.63282
H	0.232302	-1.881447	0.684926
C	-0.445474	1.264415	0.721783
H	-0.078692	2.166141	0.231657
H	-1.53474	1.320591	0.806756
H	-0.004814	1.242232	1.722319
Br	3.522227	0.0	0.0
