18

C	-0.486873	0.025826	-1.443546
C	0.0	0.0	0.0
Cl	-2.21983	0.311517	-1.579476
H	1.092175	0.0	0.0
N	0.206271	1.062942	-2.32322
O	0.898992	1.905514	-1.768088
O	-0.007654	0.957635	-3.52695
N	-0.127241	-1.304803	-2.113428
O	-1.01494	-2.088608	-2.398386
O	1.075205	-1.442186	-2.275746
N	-0.416837	-1.287354	0.544317
H	-1.293276	-1.205993	1.043299
H	0.297639	-1.615921	1.180131
C	-0.465978	1.198259	0.817675
H	-0.199868	2.142201	0.343122
H	0.042827	1.153401	1.784022
H	-1.547277	1.17062	0.98722
Br	3.542428	0.0	0.0
