18

C	-0.450424	-0.005708	-1.457511
C	0.0	0.0	0.0
Cl	0.391882	-1.211251	-2.380125
H	1.096724	0.0	0.0
N	-1.96066	-0.228837	-1.631692
O	-2.660502	-0.203047	-0.626352
O	-2.359861	-0.377207	-2.779665
N	-0.237831	1.378931	-2.080682
O	0.851268	1.61723	-2.572795
O	-1.180997	2.158807	-1.958228
N	-0.410464	-1.273053	0.579494
H	0.368195	-1.639672	1.114717
H	-1.211234	-1.149293	1.183175
C	-0.411229	1.239924	0.789243
H	0.003416	1.121266	1.793304
H	-1.493119	1.361329	0.855003
H	0.029783	2.147072	0.371613
Br	3.494542	0.0	0.0
