17

C	0.0	0.0	0.0
C	-0.49161	-0.150271	-1.472463
Cl	1.751273	0.0	0.0
H	-1.451796	-0.6523	-1.346648
C	-0.505225	1.185809	0.681739
N	-0.556247	2.211878	1.265632
N	-0.41504	-1.223218	0.818195
O	-0.430765	-1.099483	2.038516
O	-0.500898	-2.286971	0.207574
C	0.404692	-0.954583	-2.397225
H	1.310895	-0.412172	-2.672725
H	0.668963	-1.911241	-1.948816
H	-0.168872	-1.15889	-3.309009
N	-0.660206	1.206541	-1.985581
H	-1.523998	1.549032	-1.559761
H	-0.825955	1.143185	-2.98507
H	-2.463349	0.0	0.0
