17

C	0.0	0.0	0.0
C	-0.244145	0.03995	-1.579224
Cl	1.768575	0.0	0.0
H	0.274176	0.964589	-1.865944
C	-0.4723	1.236923	0.617131
N	-0.600713	2.321984	1.061933
N	-0.706751	-1.123016	0.666755
O	-0.75184	-2.209738	0.017495
O	-0.705756	-1.088232	1.919448
C	-1.669981	0.141411	-2.117602
H	-2.215154	1.014178	-1.758601
H	-1.582948	0.225918	-3.214477
H	-2.233305	-0.762952	-1.883134
N	0.477463	-1.07018	-2.22025
H	0.160614	-1.112726	-3.182145
H	0.158045	-1.913497	-1.751665
H	-1.962579	0.0	0.0
