17

C	0.0	0.0	0.0
C	-0.270533	0.206949	-1.549503
Cl	1.77164	0.0	0.0
H	0.465413	-0.463955	-2.00501
C	-0.459166	1.101662	0.836452
N	-0.581361	2.089234	1.472569
N	-0.661544	-1.232755	0.473058
O	-0.670987	-1.418041	1.714984
O	-0.649669	-2.193452	-0.361805
C	0.007719	1.650016	-1.948259
H	-0.79418	2.282377	-1.562218
H	0.0151	1.733204	-3.041274
H	0.964338	2.01298	-1.575306
N	-1.617525	-0.122261	-2.015262
H	-1.760287	-1.106424	-1.800176
H	-1.597053	-0.030271	-3.029483
H	-1.903718	0.0	0.0
