14

C	0.0	0.0	0.0
C	-0.549568	0.157915	-1.405544
Br	1.955162	0.0	0.0
H	-1.641573	0.042562	-1.335327
H	-0.28701	0.909959	0.530344
H	-0.284363	1.122657	-1.832949
C	-0.495095	-1.211577	0.768682
H	-0.145113	-2.136584	0.31403
H	-1.588453	-1.188777	0.758914
H	-0.140045	-1.162401	1.800237
N	-0.033057	-0.85477	-2.363261
O	-0.236185	-2.04117	-2.113134
O	0.561224	-0.441364	-3.360712
Br	-3.880727	0.0	0.0
