14

C	-0.364386	0.160276	-1.465855
C	0.0	0.0	0.0
Br	-0.520948	-1.759316	-2.31763
H	1.095687	0.0	0.0
H	-1.387248	0.490491	-1.651922
H	-0.373104	-0.939747	0.404854
N	0.566498	0.970891	-2.107519
H	0.433833	1.063205	-3.103384
H	1.526625	0.729295	-1.868367
C	-0.501885	1.195433	0.806986
H	-1.596558	1.245584	0.826145
H	-0.144983	1.126174	1.837503
H	-0.117341	2.124322	0.382284
Br	3.678729	0.0	0.0
