14

C	-0.504048	-0.009707	-1.429107
C	0.0	0.0	0.0
Br	-0.240677	1.725766	-2.328094
H	1.093184	0.0	0.0
H	0.122835	-0.678147	-2.027557
H	-0.287577	-0.981247	0.41011
N	-1.925905	-0.303948	-1.490684
H	-2.209131	-0.444256	-2.453576
H	-2.085449	-1.168024	-0.98304
C	-0.565684	1.104555	0.880975
H	-0.160721	2.072753	0.584969
H	-0.274981	0.930992	1.919911
H	-1.655674	1.150359	0.819988
Br	3.744191	0.0	0.0
