15
Coordinates from ORCA-job run
  C   -0.04166281166155     -0.60091823696728      0.13755060169266
  C   0.86812529528992      0.64165184592724      0.33454577618169
  Br  -0.06464776051006     -1.50738828169929      1.94644434645351
  H   1.85926326293009      0.29237292785875      0.65011439325323
  C   -1.46891115059029     -0.22405344454194     -0.20308848189351
  H   -2.07971619557391     -1.12493651884343     -0.28864476312287
  H   -1.47920723877434      0.30313141770296     -1.16089063829629
  H   -1.90435769650888      0.40898913671190      0.56962246635555
  N   0.52998577107966     -1.40576493468636     -0.87157382378712
  H   -0.07765574831468     -2.17123907470390     -1.13407471460592
  H   1.43933292250212     -1.77221106614845     -0.61772500786267
  C   0.35553139216564      1.55245490618594      1.36164750436786
  N   -0.06206140287595      2.30033268011127      2.16471570181573
  C   1.00890094367251      1.36017090338242     -0.93905985337070
  N   1.11708041716974      1.94640773971017     -1.95058350718116
