15
Coordinates from ORCA-job run
  C   -0.05323171013226     -0.59960551170013      0.14092286307543
  C   0.87542443449386      0.62850463806733      0.33917189171779
  Br  -0.11169114398120     -1.49292381115155      1.95520773989698
  H   1.85804322367092      0.26491208759309      0.66504530703020
  C   -1.46993718608784     -0.20073452402649     -0.21830661587981
  H   -1.90249900562155      0.44632376783255      0.54440750516020
  H   -2.09561641962454     -1.09142053036974     -0.30328297854019
  H   -1.46058150167308      0.31847415088300     -1.18044666518327
  N   0.51558599159022     -1.42124890150295     -0.85646725299254
  H   -0.10134119451296     -2.17938030909078     -1.11814310456964
  H   1.41597875719092     -1.80044760017060     -0.58982504847077
  C   0.36910274961794      1.55358212004773      1.35677126405156
  N   -0.04273309943016      2.31470036138932      2.15024642795778
  C   1.03828991716951      1.33866717731704     -0.93661396440876
  N   1.16320618733022      1.92059688488217     -1.94868736884498
