15
Coordinates from ORCA-job run
  C   0.00701407388489     -0.61056865168116      0.09003377823414
  C   0.83941595445977      0.67490201270894      0.34552714880731
  Br  0.13819873458750     -1.65532856035964      1.81767182796087
  H   1.86754823805350      0.37515265562817      0.58426373814104
  C   -1.45802980787876     -0.31124108590831     -0.15345762813336
  H   -1.89517279892799      0.22741749971645      0.68691655191555
  H   -2.01043026917779     -1.24388317909946     -0.28389232673480
  H   -1.55252361728065      0.28649891939445     -1.06405886572271
  N   0.57935664507906     -1.29123919855458     -1.00658752310818
  H   1.52382270997075     -1.60866859401889     -0.82509404083996
  H   0.01376215331946     -2.07768203902462     -1.29929530788715
  C   0.31962177501485      1.46263749097632      1.46663091276239
  N   -0.11452344506295      2.10563910147892      2.34774213037015
  C   0.86220394944021      1.50003203134587     -0.86993783859669
  N   0.87973570451815      2.16633159739754     -1.83646255716856
