15
Coordinates from ORCA-job run
  C   -0.00447835010216     -0.60830789105269      0.24504928532769
  C   0.88328565447347      0.66039952138052      0.39403529235299
  Br  -0.04366810646195     -1.46043283867938      2.00791864363477
  H   1.85340716790152      0.32500393062745      0.77599272990788
  C   -1.42930376974221     -0.26556272015302     -0.16196026158729
  H   -1.91617534138810      0.38998039291336      0.56195643164719
  H   -2.01362412994554     -1.18315709041693     -0.24895883728711
  H   -1.41555391842555      0.23122102373812     -1.13788237488784
  N   0.71059244680977     -1.50035829266604     -0.64576958746737
  H   0.32520952058193     -2.43544045881125     -0.58211998321904
  H   0.59915049484115     -1.17962784526329     -1.60408218214704
  C   0.30942973348356      1.64921922879033      1.30932046748506
  N   -0.15569433985771      2.44178945158943      2.03980840825801
  C   1.08375948502303      1.25604742192112     -0.93257145671611
  N   1.21266345280879      1.67822616608225     -2.02073657530182
