15
Coordinates from ORCA-job run
  C   -0.10771275676353     -0.48305921740809      0.18392483490255
  C   0.58494092574253      0.89636038655282      0.01545905887527
  Br  -0.58397789514286     -0.70118059218448      2.06627343126168
  H   0.89564531262322      0.95459586165357     -1.03816332610087
  C   -1.38028300543873     -0.55205333889417     -0.64914070762231
  H   -1.12776571406019     -0.39771161811733     -1.70488017052249
  H   -2.11237720070788      0.19921074829899     -0.34984514227903
  H   -1.83064958435170     -1.54028950541387     -0.54271958542678
  N   0.89477887409796     -1.48045677767109     -0.13352458600854
  H   0.63970956544588     -2.37943793695359      0.25651769014020
  H   0.96362291607994     -1.58145430885854     -1.14218777593195
  C   1.79255776089382      1.00804188903987      0.83745716768128
  N   2.76712589734806      1.14001231597634      1.47790739668396
  C   -0.32559604776664      2.01539389440085      0.27200261414517
  N   -1.07301904799987      2.90302819957869      0.45091910020184
