15
Coordinates from ORCA-job run
  C   -0.21594732693296     -0.52178003641499      0.25070253627734
  C   0.55653472824242      0.77888125561114      0.59823337078891
  Br  -1.51541271922212     -0.76712921056118      1.78257782089903
  H   1.05905084397048      0.63040135780003      1.56223857363331
  C   -1.02839394123757     -0.38964647880590     -1.02104350022665
  H   -0.34953545503929     -0.21904196091300     -1.86093292996425
  H   -1.58867489475593     -1.30936781301220     -1.20053689583115
  H   -1.73991780483606      0.43267895161920     -0.95038976370505
  N   0.72061178552492     -1.57365198030207      0.15309245926845
  H   1.19583729971923     -1.76161859218016      1.02742958231049
  H   0.29564428278361     -2.42727561740068     -0.18542306900494
  C   -0.32884125985791      1.94041773971475      0.71908612481333
  N   -1.02619875175009      2.88172093403760      0.79608504589861
  C   1.57686540087964      1.04027822167506     -0.42603975698684
  N   2.38837781251163      1.26613322913242     -1.24407959817059
