15
Coordinates from ORCA-job run
  C   -0.12177212223371     -0.48658186627240      0.08146529294150
  C   0.54405403880484      0.90762102453960     -0.04780758851015
  Br  -0.35538946956088     -0.82987349444021      2.05377695987548
  H   0.62458287851316      1.09457555090952     -1.12731008005916
  C   -1.50446622543501     -0.48542954338825     -0.54217841720748
  H   -2.15395666979259      0.24802892269439     -0.06526059172853
  H   -1.96302192598153     -1.46946319112096     -0.42748611746645
  H   -1.41307368735600     -0.26205861288057     -1.60905497356925
  N   0.72107706343066     -1.43004696189100     -0.55441924773132
  H   1.61951476789045     -1.52105372323185     -0.09310019695640
  H   0.28321048152730     -2.34190206275526     -0.59848704791459
  C   1.90230171733014      0.90204335942393      0.50187987760823
  N   3.00357776029040      0.85230410857011      0.90620218436375
  C   -0.26098270102545      1.97639426924005      0.54570815340393
  N   -0.92465590640178      2.84344222060289      0.97707179295043
