15
Coordinates from ORCA-job run
  C   -0.14522202834277     -0.51163309666418      0.27804837499709
  C   0.31759988056684      0.95390509741574      0.50866544033946
  Br  -0.28587500651492     -1.33486532541877      2.05049104274019
  H   -0.43185016082001      1.46622870771404      1.12319252003232
  C   -1.52504238472087     -0.54324995434631     -0.36809439125441
  H   -2.26503027386100      0.00060065736443      0.22338069083298
  H   -1.85638757998017     -1.57817080134281     -0.46745034566465
  H   -1.47132360958411     -0.09930739456674     -1.36683186992008
  N   0.90273974499903     -1.19858398160242     -0.43874866436020
  H   0.92191189480976     -0.88309382206224     -1.40474817013124
  H   0.74361059407616     -2.19889431788313     -0.43187654073394
  C   0.40169429752783      1.63669397754175     -0.78917875885016
  N   0.43684761963901      2.13356804884002     -1.85299945742498
  C   1.61259338759356      1.02533576348164      1.19106885574295
  N   2.64273362461165      1.13246644152896      1.74308127365466
