15
Coordinates from ORCA-job run
  C   -0.23564739162086     -0.49476757713570      0.35956213523400
  C   0.51383918014658      0.84084368001329      0.63182055483224
  Br  -1.48297104902727     -0.73760419867915      1.84949011245793
  H   0.97606928901261      0.74809101823893      1.62040276824884
  C   -1.02840245316439     -0.45273518946472     -0.93769666554129
  H   -1.53708880065502     -1.40707553913953     -1.08394353759105
  H   -0.34084275444191     -0.29347694102788     -1.77518719220859
  H   -1.77475161524462      0.34346668287543     -0.93681996088545
  N   0.75935552336017     -1.54424055498244      0.45874681983235
  H   0.30424128569821     -2.44469399402233      0.55401410591357
  H   1.31520399608635     -1.56249086398206     -0.39245643608729
  C   -0.37534530920966      2.00422718374644      0.61152157543165
  N   -1.09173824296116      2.93439658142968      0.58999330142738
  C   1.57773967236430      0.99990283121440     -0.36695216657580
  N   2.41933866965665      1.06615688091568     -1.18349541448849
