15
Coordinates from ORCA-job run
  C   -0.17779593291377     -0.50081256197336      0.18071871919893
  C   0.31823535569822      0.93168679940273      0.50927359566877
  Br  -0.40362493396747     -1.37098071074055      2.00674357656478
  H   -0.36536266203496      1.37638173442119      1.24037171097156
  C   -1.55156761307512     -0.47932470496303     -0.46186444510726
  H   -1.48138411894358     -0.01318264594783     -1.44741293921672
  H   -2.26358553399454      0.06945816920741      0.15541381091310
  H   -1.92152311244996     -1.49976850310637     -0.57714116011668
  N   0.76217300251127     -1.14937294953381     -0.63882594859860
  H   0.43105324611960     -2.04667507372261     -0.96830242348305
  H   1.67090119101970     -1.25801793958166     -0.20415513164084
  C   0.30984199972291      1.75695863879602     -0.70544759507148
  N   0.24088802293139      2.42915759302084     -1.66563169100230
  C   1.66719131699255      0.90343454152235      1.08288907744481
  N   2.76655977238378      0.85205761319861      1.49237084347499
