15
Coordinates from ORCA-job run
  C   -0.15387007732106     -0.50819028938191      0.27851854630782
  C   0.31742922881138      0.95555059974527      0.50352641233542
  Br  -0.32955205659612     -1.31563163202546      2.05535922054120
  H   -0.44034012756051      1.48047354659798      1.09679877826365
  C   -1.52413378319218     -0.53384614418286     -0.38802011226774
  H   -1.45264961661819     -0.09680224669417     -1.38870154690086
  H   -1.86164654143208     -1.56697559078015     -0.48545718451709
  H   -2.26863982118703      0.01883889169609      0.18944981621551
  N   0.89934092796273     -1.20973635111512     -0.41570710921006
  H   0.94188503091425     -0.89652235950610     -1.38165400926285
  H   0.72731915401523     -2.20801776765666     -0.41017930462381
  C   0.43560924305001      1.62347205874278     -0.79926085652582
  N   0.50026106233187      2.10814618336584     -1.86724181385981
  C   1.59716364271142      1.02336542921765      1.21450128977279
  N   2.60982373411025      1.12687567197682      1.79906787373165
