15
Coordinates from ORCA-job run
  C   -0.11704719350140     -0.49042172973465      0.06025562428390
  C   0.53298716297204      0.91561195088128     -0.00606359206046
  Br  -0.35864631031367     -0.91851348617097      2.01514163619831
  H   0.62120673817685      1.14722667158212     -1.07628670303338
  C   -1.49580143003291     -0.47975493660093     -0.57184504378246
  H   -2.15718690863441      0.22503865255388     -0.06872752800541
  H   -1.40090309495757     -0.21068578142045     -1.62781056396199
  H   -1.94275635726754     -1.47323798600435     -0.50137412399405
  N   0.74096636145733     -1.39646935362414     -0.60873589289071
  H   0.31452893684550     -2.31077538598783     -0.69388947794867
  H   1.63789146173373     -1.49583871453032     -0.14627082494724
  C   1.88674247778807      0.90305722981751      0.55456271367246
  N   2.99038264584147      0.84634352767953      0.95139376891823
  C   -0.29004563008368      1.94962572041226      0.62331684512747
  N   -0.96231886002381      2.78779362114703      1.09633316242400
