15
Coordinates from ORCA-job run
  C   -0.14087689071787     -0.48036741303584      0.08482414363178
  C   0.56350506428395      0.89732905052509     -0.01334816621048
  Br  -0.63922017672821     -0.73248177083280      2.02167734805961
  H   0.79094140089042      1.03462055515453     -1.07927437497468
  C   -1.42919624188351     -0.48802183390810     -0.71571714323396
  H   -1.19433215908710     -0.31258717250601     -1.76955718971902
  H   -1.91725303569880     -1.45999405065813     -0.62171863662763
  H   -2.12182294638409      0.27405015341083     -0.35958941130038
  N   0.75974845789018     -1.46258153204460     -0.39338872975600
  H   1.58771282146123     -1.54576921057294      0.18606244009986
  H   0.31375665910504     -2.36922628925109     -0.45775205996628
  C   1.83608517306068      0.89707755748762      0.71295162986422
  N   2.87271147911255      0.84914788699579      1.26229237276036
  C   -0.29248924500155      2.00269360939337      0.42020331891118
  N   -0.99127036030290      2.89711045984227      0.72033445846144
