15
Coordinates from ORCA-job run
  C   -0.22963695853612     -0.47519221220297      0.39105822022583
  C   0.50521673808168      0.88269324988199      0.58114373783862
  Br  -1.47172444910083     -0.64189831813624      1.89636355632356
  H   0.96713969033764      0.85729523067644      1.57386145940570
  C   -1.02628352435720     -0.51900736325024     -0.90385530800702
  H   -0.34247966962044     -0.40418791941259     -1.75159826113154
  H   -1.52613650243897     -1.48522000310907     -0.99100249304698
  H   -1.78055848936532      0.26830093888128     -0.94830534953919
  N   0.77612718596204     -1.50614868985180      0.55068232489777
  H   1.34161399733157     -1.55785451231757     -0.29279395632519
  H   0.33020257703270     -2.40667166663141      0.68368346125534
  C   -0.39744620265245      2.03188404583955      0.48594279222822
  N   -1.12529578967330      2.94873047602836      0.39608284306327
  C   1.56782672284303      0.99170389714173     -0.42574616586538
  N   2.40943467415596      1.01457284646254     -1.24451686132300
