15

C	-0.196464	0.145284	-1.509462
C	0.0	0.0	0.0
F	-0.079987	1.481815	-1.851271
H	1.091777	0.0	0.0
H	-0.316224	-1.024121	0.272472
N	0.895623	-0.523762	-2.205409
H	1.750324	-0.306689	-1.658673
H	0.755914	-1.522173	-2.082724
N	-1.501133	-0.272094	-1.984133
H	-1.681239	-1.205879	-1.634737
H	-1.44283	-0.326524	-2.99758
N	-0.593376	1.045478	0.817726
H	-1.477174	0.747862	1.208542
H	0.043509	1.241877	1.577987
F	2.766249	0.0	0.0
