15

C	0.009205	0.042741	-1.514861
C	0.0	0.0	0.0
F	-1.23318	-0.025428	-2.155691
H	1.105547	0.0	0.0
H	-0.420356	-0.950365	0.33319
N	0.573549	1.337169	-1.889262
H	1.508391	1.316919	-1.472967
H	0.675946	1.353701	-2.898825
N	0.780673	-1.110253	-1.938292
H	1.002658	-1.001521	-2.92215
H	1.660754	-1.020623	-1.413456
N	-0.640871	1.154562	0.642248
H	-0.670364	1.884977	-0.062148
H	0.010003	1.488856	1.344841
F	2.779432	0.0	0.0
