15

C	-0.174522	-0.077368	-1.517627
C	0.0	0.0	0.0
F	-1.376343	-0.772199	-1.83856
H	1.093623	0.0	0.0
H	-0.364123	-0.94271	0.434327
N	-0.215235	1.215576	-2.104805
H	-0.107652	1.907874	-1.372813
H	0.517647	1.276214	-2.794962
N	0.904424	-0.859062	-2.104409
H	0.714773	-1.835633	-1.90552
H	1.745358	-0.61298	-1.552927
N	-0.544372	1.20763	0.615479
H	0.001462	1.415293	1.44224
H	-1.507833	1.070603	0.895134
F	2.759444	0.0	0.0
