15

C	-0.228655	0.089984	-1.501718
C	0.0	0.0	0.0
F	-1.475926	0.762204	-1.772493
H	1.092334	0.0	0.0
H	-0.358132	0.936391	0.444853
N	0.792807	0.894221	-2.133985
H	1.668268	0.601624	-1.67019
H	0.63915	1.848154	-1.824457
N	-0.229782	-1.197552	-2.076865
H	-0.860639	-1.787926	-1.545977
H	-0.486484	-1.127344	-3.054507
N	-0.590391	-1.194632	0.619028
H	0.146479	-1.664964	1.130306
H	-1.303075	-0.932963	1.286156
F	2.752684	0.0	0.0
