15

C	-0.209237	0.023954	-1.509325
C	0.0	0.0	0.0
F	-0.061961	-1.33915	-1.935445
H	1.101014	0.0	0.0
H	-0.374062	0.946944	0.405332
N	-1.506892	0.393611	-2.038458
H	-2.190698	-0.123817	-1.492773
H	-1.627163	1.378081	-1.828047
N	0.808794	0.844527	-2.04522
H	1.687994	0.627034	-1.550626
H	0.892156	0.681201	-3.038089
N	-0.723119	-1.118883	0.620026
H	-0.486084	-1.112255	1.606396
H	-0.296767	-1.957498	0.243709
F	2.787343	0.0	0.0
