15

C	-0.611217	-0.001141	-1.37359
C	0.0	0.0	0.0
F	-2.064172	-0.206579	-1.171166
H	1.090592	0.0	0.0
H	-0.363599	0.897575	0.526433
N	-0.466725	1.242135	-2.048652
H	-0.749557	1.137002	-3.016475
H	-1.050598	1.9359	-1.599184
N	-0.146117	-1.079722	-2.178035
H	-0.932758	-1.437802	-2.709101
H	0.148448	-1.801589	-1.5263
N	-0.356227	-1.257764	0.674047
H	0.395858	-1.455915	1.319904
H	-1.228314	-1.184809	1.179402
F	2.709133	0.0	0.0
