15

C	-0.216192	-0.10662	-1.507889
C	0.0	0.0	0.0
F	-0.138972	1.226875	-2.015933
H	1.101432	0.0	0.0
H	-0.478077	0.899996	0.392121
N	0.832001	-0.923089	-1.988784
H	0.874921	-0.894711	-2.998297
H	1.715885	-0.64395	-1.532366
N	-1.493856	-0.587265	-1.998563
H	-1.694669	-1.409008	-1.436644
H	-2.182487	0.10831	-1.729065
N	-0.553814	-1.211653	0.653043
H	-0.434944	-1.084058	1.653519
H	0.102817	-1.949365	0.409151
F	2.784376	0.0	0.0
