13

C	0.0	0.0	0.0
C	-0.48742	-0.02654	-1.43161
F	1.387234	0.0	0.0
H	-1.580806	-0.112069	-1.343454
H	-0.363269	0.893293	0.511825
H	-0.069909	-0.91589	-1.918256
C	-0.410784	-1.179331	0.786492
N	-0.542994	-2.117277	1.480284
C	-0.076688	1.24882	-2.155265
H	-0.607364	2.101342	-1.72376
H	-0.336307	1.199767	-3.216066
H	0.997627	1.431513	-2.076352
H	-3.01702	0.0	0.0
