13

C	0.0	0.0	0.0
C	-0.204911	0.048985	-1.543532
F	1.385735	0.0	0.0
H	0.30237	0.978759	-1.843352
H	-0.397856	0.872711	0.507822
H	0.452679	-0.755707	-1.885618
C	-0.486585	-1.216193	0.65651
N	-0.505047	-2.244873	1.232964
C	-1.523087	-0.064179	-2.286844
H	-1.308128	-0.033884	-3.370435
H	-2.203469	0.735682	-2.02545
H	-2.043417	-0.985473	-2.029147
H	-2.614114	0.0	0.0
