13

C	0.0	0.0	0.0
C	-0.498299	0.011759	-1.428107
F	1.387679	0.0	0.0
H	-0.088645	0.914593	-1.89819
H	-0.364821	0.874749	0.541309
H	-1.590644	0.105959	-1.326137
C	-0.39577	-1.20976	0.752532
N	-0.522395	-2.161238	1.428225
C	-0.098007	-1.239029	-2.198813
H	-0.643136	-2.105835	-1.815635
H	-0.345326	-1.133117	-3.259303
H	0.97432	-1.442918	-2.120067
H	-3.038172	0.0	0.0
