13

C	0.0	0.0	0.0
C	-0.195636	0.040453	-1.541276
F	1.385885	0.0	0.0
H	0.409626	-0.806236	-1.892173
H	-0.384407	0.875554	0.517536
H	0.371504	0.935559	-1.828929
C	-0.455749	-1.211646	0.699049
N	-0.538132	-2.136327	1.428429
C	-1.513732	0.039551	-2.298397
H	-2.110651	-0.838677	-2.067015
H	-1.268979	0.065805	-3.372846
H	-2.133185	0.888593	-2.025937
H	-2.504299	0.0	0.0
