13

C	0.0	0.0	0.0
C	-0.486366	-0.004385	-1.434401
F	1.387775	0.0	0.0
H	-1.578812	0.095611	-1.345468
H	-0.364536	0.884603	0.524709
H	-0.065911	0.891198	-1.909509
C	-0.411121	-1.199884	0.758934
N	-0.50937	-2.190983	1.382137
C	-0.082194	-1.264561	-2.186414
H	-0.628564	-2.125621	-1.794934
H	0.988629	-1.467086	-2.099435
H	-0.323945	-1.17244	-3.249072
H	-3.003607	0.0	0.0
