16

C	-0.616123	-0.03922	-1.385236
C	0.0	0.0	0.0
Cl	0.046243	-1.33761	-2.392909
H	1.099545	0.0	0.0
H	-1.691514	-0.194808	-1.315621
N	-0.459117	1.278359	-2.09851
O	-1.433194	2.031295	-2.007276
O	0.594775	1.54119	-2.657577
N	-0.493828	-1.225857	0.667656
H	-0.354453	-1.081383	1.663102
H	0.169388	-1.958629	0.422719
C	-0.468752	1.222856	0.768065
H	-1.558891	1.261618	0.866875
H	-0.016923	1.184365	1.763989
H	-0.116387	2.144038	0.301517
H	2.914156	0.0	0.0
