16

C	-0.557674	-0.037534	-1.418078
C	0.0	0.0	0.0
Cl	0.120414	-1.349904	-2.397618
H	1.094452	0.0	0.0
H	-1.643074	-0.163961	-1.416174
N	-0.358513	1.278152	-2.132915
O	-1.327436	2.042821	-2.084238
O	0.72072	1.523061	-2.648503
N	-0.387943	-1.20791	0.725377
H	0.312885	-1.91924	0.54129
H	-1.29363	-1.559289	0.428028
C	-0.478669	1.241452	0.736708
H	-0.103561	1.161131	1.758143
H	-0.068719	2.153663	0.296618
H	-1.572451	1.323181	0.765662
H	2.884134	0.0	0.0
