19

C	-0.356276	-0.085771	-1.501874
C	0.0	0.0	0.0
Br	-0.14925	1.748616	-2.278199
H	1.089996	0.0	0.0
N	0.614084	-0.917552	-2.169218
H	1.543246	-0.734599	-1.762977
H	0.380956	-1.891545	-2.002874
C	-1.772527	-0.527593	-1.831924
H	-1.9371	-1.550424	-1.468524
H	-1.907073	-0.516516	-2.914405
H	-2.501506	0.131645	-1.356641
C	-0.437356	-1.233582	0.773477
H	-0.013307	-2.121844	0.302786
H	-1.520528	-1.327394	0.846682
H	-0.012395	-1.17757	1.779991
N	-0.571687	1.190862	0.675399
O	-1.799344	1.210324	0.832515
O	0.183362	2.082237	1.050165
H	2.84796	0.0	0.0
