19

C	-0.486802	0.049589	-1.454192
C	0.0	0.0	0.0
Br	0.058814	-1.704211	-2.299337
H	1.08986	0.0	0.0
N	-1.920459	0.11186	-1.516525
H	-2.228498	0.537538	-2.381607
H	-2.293995	0.618696	-0.722583
C	0.249157	1.102554	-2.268694
H	0.01338	0.983545	-3.330098
H	1.325264	0.99994	-2.104082
H	-0.062969	2.096435	-1.94188
C	-0.525138	-1.153894	0.827955
H	-0.000833	-2.055948	0.513817
H	-0.286494	-0.97609	1.878148
H	-1.600569	-1.303252	0.727583
N	-0.410452	1.289524	0.616765
O	-1.419516	1.31039	1.345722
O	0.27432	2.287988	0.379923
H	2.736444	0.0	0.0
