19

C	-0.247994	-0.017033	-1.511717
C	0.0	0.0	0.0
Br	-2.197472	0.360867	-1.890048
H	1.095516	0.0	0.0
N	0.53118	0.93968	-2.259855
H	0.356903	1.854401	-1.857418
H	1.500061	0.725537	-1.989702
C	0.060094	-1.395292	-2.066968
H	-0.006703	-1.345056	-3.15419
H	-0.620511	-2.159402	-1.694096
H	1.088575	-1.641504	-1.774848
C	-0.507083	-1.185486	0.786174
H	-1.585846	-1.326597	0.6792
H	0.020641	-2.08064	0.455424
H	-0.27995	-1.042225	1.842163
N	-0.432356	1.2622	0.624438
O	-0.06073	2.326382	0.113288
O	-1.111542	1.21822	1.657885
H	2.658422	0.0	0.0
