19

C	-0.327812	-0.051004	-1.498192
C	0.0	0.0	0.0
Br	-0.115535	1.908341	-2.237475
H	1.092125	0.0	0.0
N	0.639065	-0.900617	-2.041429
H	0.624391	-0.926069	-3.053012
H	1.579575	-0.691534	-1.669428
C	-1.740662	-0.413961	-1.909106
H	-1.952264	-1.43299	-1.573259
H	-2.457838	0.273332	-1.464289
H	-1.836609	-0.377282	-2.997359
C	-0.467047	-1.243475	0.740067
H	-1.554518	-1.308031	0.804023
H	-0.066209	-2.118265	0.228015
H	-0.047268	-1.222951	1.750118
N	-0.569012	1.184246	0.686804
O	0.198619	1.994865	1.195938
O	-1.802923	1.261995	0.741874
H	2.83785	0.0	0.0
