19

C	-0.367073	-0.03911	-1.499343
C	0.0	0.0	0.0
Br	-0.2008	1.822853	-2.21816
H	1.092071	0.0	0.0
N	0.602982	-0.836562	-2.204805
H	1.529735	-0.660714	-1.794918
H	0.378282	-1.814856	-2.065111
C	-1.778182	-0.491866	-1.824221
H	-1.932783	-0.436635	-2.903105
H	-1.911626	-1.532589	-1.503285
H	-2.511804	0.129052	-1.308362
C	-0.433503	-1.258059	0.737343
H	-1.516968	-1.353876	0.819961
H	0.003208	-1.232927	1.739802
H	-0.015138	-2.132389	0.233894
N	-0.569935	1.163752	0.723117
O	-1.797266	1.183388	0.884726
O	0.190808	2.031143	1.13758
H	2.842128	0.0	0.0
