19

C	-0.364594	-0.145805	-1.480072
C	0.0	0.0	0.0
Br	-0.113566	1.739265	-2.37462
H	1.089386	0.0	0.0
N	0.560362	-1.067906	-1.991895
H	1.514377	-0.852322	-1.670745
H	0.516251	-1.155171	-2.997808
C	-1.801079	-0.48625	-1.820464
H	-1.932051	-0.515705	-2.905131
H	-2.036329	-1.471043	-1.40916
H	-2.478505	0.254145	-1.403365
C	-0.460251	-1.188135	0.829739
H	-1.546491	-1.243547	0.920444
H	-0.020202	-1.101779	1.827228
H	-0.071376	-2.097273	0.369489
N	-0.551599	1.234664	0.614527
O	-1.778577	1.284836	0.777654
O	0.22545	2.120934	0.952596
H	2.833253	0.0	0.0
