19

C	-0.354158	-0.091611	-1.500962
C	0.0	0.0	0.0
Br	-0.194727	1.745065	-2.277501
H	1.092078	0.0	0.0
N	0.633315	-0.899576	-2.168834
H	0.417547	-1.878312	-2.010028
H	1.55569	-0.703696	-1.755067
C	-1.756062	-0.570727	-1.829469
H	-1.884289	-1.59758	-1.470067
H	-2.501174	0.063029	-1.350772
H	-1.896279	-0.560503	-2.911395
C	-0.434873	-1.232158	0.777964
H	-1.518786	-1.325859	0.856705
H	-0.014159	-2.122386	0.305924
H	-0.003533	-1.173845	1.781436
N	-0.577421	1.187146	0.677454
O	-1.809524	1.21981	0.801828
O	0.180311	2.05862	1.092397
H	2.848708	0.0	0.0
