13
Coordinates from ORCA-job run
  C   -0.50364170102204     -0.26062481920590     -0.30915874157689
  C   0.99922417062303     -0.48036954724324     -0.56098510882928
  Cl  -1.35431290537675     -1.68441272500378     -0.99912821330321
  H   1.29650388798964     -1.41801082352865     -0.08266017139009
  H   1.18360636088520     -0.57806884983251     -1.63378150646120
  C   -0.95957609434722      0.93119705806612     -1.02620240998077
  N   -1.31260000301409      1.90496428589063     -1.58101090622019
  C   -0.83055153970101     -0.15318662235194      1.17443056483837
  H   -0.49017935972772     -1.05413993848390      1.68871891391341
  H   -0.33203238962877      0.71895013227519      1.60313896356523
  H   -1.90683126256167     -0.05182658069200      1.31528832362266
  C   1.79435459392671      0.61932192761780     -0.02009120966969
  N   2.41503624195469      1.50720650249216      0.43144150149167
