13
Coordinates from ORCA-job run
  C   -0.46246671696432     -0.11608328773090     -0.33501847449677
  C   0.99155362464583      0.32024763171938     -0.59714219611126
  Cl  -0.71933240707432     -1.72494283336173     -1.08595039569843
  H   1.11806995615547      1.35006454046944     -0.24732927582829
  H   1.19080162937493      0.30229990934919     -1.67137239201401
  C   -1.34554849642807      0.84384368982112     -1.00079503372491
  N   -2.03764336459767      1.64543449625218     -1.50969377063950
  C   -0.78824300636953     -0.19873117111328      1.15071236951129
  H   -1.82962093815321     -0.48903194175246      1.29042922590621
  H   -0.14615149033784     -0.94026777023997      1.62783030476106
  H   -0.62548223428996      0.77543712399202      1.61918939101392
  C   1.94718826535175     -0.54125916873738      0.09325609926641
  N   2.70687517868692     -1.22801121866761      0.66588414805429
