13
Coordinates from ORCA-job run
  C   -0.49601196156338     -0.25248714248530     -0.32844512953921
  C   1.01294073499938     -0.47276465889072     -0.54065854537861
  Cl  -1.33061216999641     -1.65885299069876     -1.07170162669683
  H   1.29340693203941     -1.42065699152872     -0.07260298806292
  H   1.22805038499750     -0.54999858767768     -1.60938742700833
  C   -0.92613136119878      0.95516204547864     -1.03492623336042
  N   -1.25688988107737      1.94076073417385     -1.58235382371170
  C   -0.86572229244293     -0.17372287653211      1.14678980760405
  H   -0.37636711000559      0.68728295749235      1.60763020439539
  H   -0.54394678536125     -1.08656510331117      1.65228009402966
  H   -1.94531785166355     -0.07052607150732      1.25843798813941
  C   1.79586016436845      0.61301631624544      0.04419361487428
  N   2.40874119690452      1.48835236924150      0.52974406471524
