16
Coordinates from ORCA-job run
  C   0.91370330300961     -0.22946580595289      0.20276286809809
  C   -0.60902814542318     -0.11137324947857      0.20357550118868
  F   1.23392025713746     -1.03552101919044      1.29625711539673
  H   -0.92587902437773      0.39104125529142      1.11909763112567
  H   1.23473346710630     -0.76372847767458     -0.69594821311381
  C   1.63001187539719      1.09221890388486      0.34264777908237
  H   1.47205352028914      1.71794454146694     -0.53768172368077
  H   1.27583799787122      1.62838091313046      1.22541543485542
  H   2.70129380698324      0.91447100874086      0.44761527543135
  C   -1.30947599021530     -1.44283731543894      0.02021330341498
  H   -1.01178244956843     -1.90132731630307     -0.92336264493178
  H   -2.39366724347307     -1.31384523381708      0.02456316134134
  H   -1.03358021109652     -2.10447974390954      0.84140933032567
  N   -0.97761865819307      0.81800747529237     -0.90688420018488
  O   -0.72732069367844      0.43579838983016     -2.04967877796756
  O   -1.47320181176844      1.90271567412806     -0.60800184038150
