16
Coordinates from ORCA-job run
  C   0.71781870033583      0.71723841331993     -0.01950623428171
  C   -0.60109712244613     -0.00429253659425      0.20168908524459
  F   0.99681838903559      0.74192749784210     -1.38364525311900
  H   -0.71559352733714     -0.23133687274929      1.26574922735837
  H   0.62309421745322      1.75754478073339      0.29789386734183
  C   1.87109404237170      0.04377680339348      0.69333057864943
  H   2.79392148949909      0.58071367952568      0.46970229016324
  H   1.71989732866843      0.05492409776936      1.77507115814045
  H   1.99190060581088     -0.98869951572826      0.36228831283721
  C   -0.76520087775101     -1.26761359164303     -0.62897195451242
  H   -1.70948378346256     -1.75245680824001     -0.38560826826408
  H   0.04860115045045     -1.96375489729742     -0.42256646853704
  H   -0.74680785811593     -1.02098179356755     -1.69026665980336
  N   -1.77633937791763      0.89688776105154     -0.10284536828048
  O   -1.56968022766890      1.98245220890026     -0.63808279333661
  O   -2.87894314892589      0.45267077328406      0.20676848039957
