16
Coordinates from ORCA-job run
  C   0.64987297137703      0.75904724944248      0.08142332996422
  C   -0.65420308536628     -0.01526749594852      0.22897352829340
  F   0.83031728818438      1.03352223624453     -1.27404994811904
  H   -0.85535138732770     -0.14477286470472      1.29620739995874
  H   0.53880396791207      1.72273158576324      0.58460580041675
  C   1.85966275466069      0.01270558614014      0.59283877665420
  H   1.73405055158363     -0.26090367131936      1.64307861348036
  H   2.74170959329493      0.64873777904134      0.50548507324772
  H   2.03377754767339     -0.89024771812115      0.00683141823163
  C   -0.69742563805834     -1.33010353235794     -0.51730973371438
  H   -1.69624818203587     -1.76334287852110     -0.47476242072853
  H   -0.43035964457531     -1.18621784770568     -1.56285307383911
  H   -0.00020051298018     -2.03424737655237     -0.06028571965935
  N   -1.75224238654868      0.91109946578124     -0.23880617900386
  O   -2.37745848848931      0.61674208887543     -1.25224637560938
  O   -1.92470534930445      1.92051739394244      0.44086951042662
