16
Coordinates from ORCA-job run
  C   0.87647560732863     -0.15043977452566      0.37055767606886
  C   -0.63050831549862     -0.10777431499581      0.12607609808209
  F   1.04340150090866     -0.75958571790741      1.61530813203913
  H   -1.09707178564039      0.51601797067280      0.89039929652298
  H   1.34527721885705     -0.80241009054737     -0.37198579994221
  C   1.53071469841373      1.20990371968185      0.40011356946346
  H   1.49515269042864      1.68296638941281     -0.58291960027345
  H   2.57697979404093      1.10251467999005      0.68999806122295
  H   1.03191438523633      1.85890145059705      1.12273056289220
  C   -1.26168902901562     -1.48387436719812      0.05795378832610
  H   -2.33680777504567     -1.40891076650121     -0.11698465223382
  H   -0.81254392269700     -2.06705356656635     -0.74662706380522
  H   -1.09742446692674     -1.99705251469349      1.00551836277388
  N   -0.84505322877331      0.61832401542352     -1.16251875454532
  O   -1.40302243068283      1.71286704500973     -1.11891694656536
  O   -0.41479494093377      0.07360584214762     -2.17870273002625
