16
Coordinates from ORCA-job run
  C   0.58779151968303      0.24613022806301      0.90290125579481
  C   -0.78192256152256     -0.09797451075403      0.32659848753043
  F   0.44531747130450      1.41428588399261      1.64854652216743
  H   -1.49909574335988     -0.06928172919983      1.14860614307074
  H   0.83459208965163     -0.55308415028944      1.61167293449284
  C   1.71685190758547      0.44246842867759     -0.08125310110597
  H   1.50337555006932      1.26651141254845     -0.76064549477665
  H   2.62644084125150      0.67310211377144      0.47557912782335
  H   1.89248975511550     -0.45920237615540     -0.66987538136036
  C   -0.81756851753232     -1.42536329915183     -0.40496331810148
  H   -0.49646870728470     -2.22548885006314      0.26594882350766
  H   -0.16901586870999     -1.40873815840125     -1.27904866399121
  H   -1.83316322156608     -1.64811069763946     -0.73671127060321
  N   -1.22893919061468      1.00376277894897     -0.58826997645127
  O   -2.02462465465396      1.82243817775021     -0.13508958681689
  O   -0.75406066941678      1.02054474790209     -1.72399650118023
