16
Coordinates from ORCA-job run
  C   0.60180727429953      0.20180674208007      0.90029217718385
  C   -0.77891344027450     -0.10657413864979      0.32514878961129
  F   0.47643403878009      1.27060454286426      1.78285301004940
  H   -1.50081029291410     -0.00581704955165      1.13760116658585
  H   0.89503597266883     -0.66795389506593      1.49911666032006
  C   1.67496137010661      0.54387400909769     -0.10732984090078
  H   2.62372442067317      0.67196636846014      0.41559843442365
  H   1.43478921143386      1.47748105080542     -0.61686281764804
  H   1.79071180787196     -0.24105001127306     -0.85565998203705
  C   -0.86372232709685     -1.46731328210588     -0.33660856132457
  H   -0.69381465130674     -2.24443396559372      0.41193619769464
  H   -1.85318665811320     -1.62136861269131     -0.76934177886258
  H   -0.12882167525321     -1.57124935155197     -1.13313978484829
  N   -1.14783125497211      0.97556641223648     -0.64581265153125
  O   -0.81342955954959      0.81914798383915     -1.81986063492739
  O   -1.71593423635376      1.96431319710011     -0.18893038378878
