16

C	-0.089274	-0.090249	-1.54557
C	0.0	0.0	0.0
Br	-0.057255	1.871862	-2.321497
H	1.09735	0.0	0.0
N	1.002943	-0.841575	-1.95652
H	1.857052	-0.574743	-1.400554
H	1.128778	-0.890517	-2.956585
C	-1.362015	-0.576921	-2.07469
N	-2.383265	-1.012538	-2.463273
C	-0.484547	-1.300651	0.645138
H	0.048827	-2.13723	0.191834
H	-0.245643	-1.278668	1.71045
H	-1.56293	-1.449164	0.52991
C	-0.631	1.149821	0.606423
N	-1.157417	2.014659	1.204787
F	2.645789	0.0	0.0
