16

C	-0.080431	0.067494	-1.534594
C	0.0	0.0	0.0
Br	-1.885234	0.711503	-2.202439
H	1.099942	0.0	0.0
N	0.948573	0.949752	-1.965884
H	1.137061	0.84958	-2.955256
H	1.791386	0.730847	-1.382987
C	0.001618	-1.285686	-2.11549
N	0.133577	-2.346224	-2.610657
C	-0.628034	-1.220572	0.647938
H	-0.509333	-1.156367	1.731845
H	-1.696441	-1.299516	0.419774
H	-0.120929	-2.125404	0.307366
C	-0.463902	1.240669	0.592018
N	-0.839803	2.20604	1.148345
F	2.620365	0.0	0.0
