16

C	-0.084986	0.046475	-1.530102
C	0.0	0.0	0.0
Br	-1.912683	0.590372	-2.203219
H	1.099937	0.0	0.0
N	0.900099	0.978617	-1.972054
H	1.747949	0.78017	-1.397559
H	1.1002	0.866563	-2.957019
C	0.077626	-1.305559	-2.092129
N	0.264912	-2.366561	-2.564713
C	-0.60268	-1.217407	0.677543
H	-0.397641	-1.16463	1.748523
H	-0.13641	-2.1263	0.294226
H	-1.685586	-1.277776	0.531777
C	-0.474487	1.242546	0.578097
N	-0.858985	2.207553	1.128984
F	2.603721	0.0	0.0
