16

C	-0.039321	0.020232	-1.53698
C	0.0	0.0	0.0
Br	-1.860672	0.417483	-2.262025
H	1.09937	0.0	0.0
N	0.910335	0.964729	-2.088396
H	0.600462	1.895913	-1.822982
H	1.769494	0.764501	-1.537192
C	0.288685	-1.318234	-2.047375
N	0.547298	-2.395846	-2.439513
C	-0.617565	-1.193947	0.703212
H	-0.154121	-2.113759	0.341081
H	-1.700632	-1.251405	0.548478
H	-0.42042	-1.122943	1.776189
C	-0.467367	1.268361	0.520911
N	-0.840759	2.289784	0.970115
F	2.586438	0.0	0.0
