16

C	-0.084794	-0.086013	-1.545279
C	0.0	0.0	0.0
Br	-0.044899	1.882859	-2.314899
H	1.097351	0.0	0.0
N	1.007574	-0.834455	-1.956943
H	1.861301	-0.56829	-1.397921
H	1.131216	-0.888137	-2.957606
C	-1.356462	-0.566366	-2.084222
N	-2.366454	-1.011897	-2.490776
C	-0.485506	-1.301925	0.640638
H	0.053644	-2.135873	0.191832
H	-0.255463	-1.280618	1.708023
H	-1.561914	-1.453087	0.51668
C	-0.631098	1.148672	0.608303
N	-1.16857	2.011076	1.200301
F	2.644677	0.0	0.0
