16

C	-0.077251	0.060389	-1.534205
C	0.0	0.0	0.0
Br	-1.886459	0.685122	-2.207971
H	1.099966	0.0	0.0
N	0.945573	0.94657	-1.970278
H	1.790639	0.730687	-1.389191
H	1.13421	0.843618	-2.95943
C	0.018247	-1.294376	-2.107436
N	0.164432	-2.353294	-2.600096
C	-0.6284	-1.217219	0.653871
H	-0.125949	-2.124504	0.314358
H	-1.697401	-1.293657	0.429841
H	-0.505913	-1.150871	1.737013
C	-0.463704	1.243973	0.58506
N	-0.8374	2.214493	1.133779
F	2.619468	0.0	0.0
