16

C	-0.076092	0.055781	-1.53437
C	0.0	0.0	0.0
Br	-1.883921	0.670239	-2.214729
H	1.099986	0.0	0.0
N	0.943724	0.9474	-1.970022
H	1.130714	0.845406	-2.959778
H	1.789124	0.732478	-1.389837
C	0.028744	-1.299948	-2.103617
N	0.178114	-2.362282	-2.58856
C	-0.623838	-1.217	0.659076
H	-0.122349	-2.123806	0.317819
H	-1.694417	-1.294352	0.44358
H	-0.49229	-1.148319	1.740832
C	-0.466925	1.244219	0.581649
N	-0.847387	2.213084	1.128745
F	2.618699	0.0	0.0
