15
Coordinates from ORCA-job run
  C   0.53675107712139      0.17324105583473     -0.27807496152679
  C   -0.87311575677521     -0.07632327448157     -0.80873896451308
  Cl  1.53044249351340      0.34136022554982     -1.84717582817560
  H   -0.93077617626869     -1.03620280453126     -1.31905392236608
  H   -1.18737754005317      0.73103353874186     -1.46795856883850
  N   0.54548340611838      1.34054307705592      0.51213921909705
  H   0.17846434677587      2.15187626861126      0.03165473559637
  H   1.46268490787873      1.54504552561726      0.88541544932289
  C   1.13501309697874     -0.99550871660596      0.47859066332367
  H   2.17175600259560     -0.77123864855689      0.73833886783722
  H   0.56384385184933     -1.16900768456889      1.39042195259840
  H   1.12453128292732     -1.89803200400705     -0.13175456656042
  N   -1.84672736039182     -0.10560722798611      0.32042037831892
  O   -2.50906375121942      0.91030204728318      0.51480710161132
  O   -1.90190988105046     -1.14048137795632      0.98196844427464
