15
Coordinates from ORCA-job run
  C   0.46268841198481      0.03678175861256     -0.10644445615508
  C   -0.97170431346139     -0.38017578988582      0.19363254918606
  Cl  0.67613228736063     -0.18577730433037     -1.93835550922442
  H   -1.12087646649591     -1.43527864347211     -0.02158693405273
  H   -1.19474933580905     -0.15394878751095      1.23899625980722
  N   0.73098216112490      1.35267436920633      0.33256815750599
  H   1.68177797755397      1.62374188805466      0.11821367737953
  H   0.08030901163718      2.02131645166190     -0.05838759396644
  C   1.41851437962333     -0.94333831809149      0.55125175125952
  H   2.44834182710027     -0.66672118703184      0.31690397502182
  H   1.28495336767015     -0.90289069441854      1.63473188300617
  H   1.25084394260374     -1.95906145220354      0.19325981944366
  N   -1.98922432954570      0.34740769589342     -0.62076973470073
  O   -2.82112107596054     -0.33029843565712     -1.21392151052793
  O   -1.93886784538638      1.57656844917289     -0.62009233398265
