15
Coordinates from ORCA-job run
  C   0.61150206107106      0.19117503078301     -0.36645156727401
  C   -0.84270099618584     -0.04404709739456     -0.82146590984572
  Cl  1.54079701662449      0.18022630012343     -1.91072815670543
  H   -1.21478054053426      0.82276111976955     -1.36796255628725
  H   -0.93442970509560     -0.95172911616459     -1.41385168696036
  N   0.87212226430016      1.45342546050956      0.27255361548178
  H   0.58373983073969      2.22139050075618     -0.32305901903276
  H   0.34324491324513      1.51184477289934      1.13573908672369
  C   1.10489099882163     -0.93904009246690      0.51642072373061
  H   0.57805959242716     -0.92508873560592      1.47491077431168
  H   2.16858788347627     -0.79920157835786      0.70465765164013
  H   0.94075352614774     -1.90920200577389      0.04622545049035
  N   -1.71154867036135     -0.22572602001535      0.37300919273295
  O   -2.09553323948564     -1.36534101742540      0.62913073408208
  O   -1.94670493519062      0.77655247836343      1.04987166691226
