15
Coordinates from ORCA-job run
  C   0.53627513447335      0.23244511178329     -0.44077149968517
  C   -0.90852252212816     -0.09307490713579     -0.82275192827073
  Cl  1.45443592931622      0.11212832093768     -1.99929585676109
  H   -1.34504922701320      0.75201986030369     -1.35554484001762
  H   -0.96424461690210     -1.00761269710325     -1.40664796785573
  N   0.62012725071255      1.59520521695755      0.00702682608968
  H   1.53238865842690      1.78468581051777      0.40407440171420
  H   -0.09589037061588      1.77199191817631      0.70235068805727
  C   1.11961583981538     -0.80833767115413      0.50569358747238
  H   0.61778685111532     -0.74575108893582      1.47510891324071
  H   1.01161866218806     -1.82140478289996      0.11356887494290
  H   2.18220078163633     -0.60871205097599      0.65650394492643
  N   -1.72411770210303     -0.32885691166691      0.40400517113118
  O   -1.92512875657611      0.63986521856288      1.13884520449786
  O   -2.11149591234565     -1.47459134736728      0.61783448051769
