15
Coordinates from ORCA-job run
  C   0.48489227659619      0.19493657033303     -0.16539944458499
  C   -1.02758034948826      0.28963329978303     -0.35968124650672
  Cl  1.12982941393429     -0.87243411515727     -1.52140591591544
  H   -1.45173449972447      0.84124741437031      0.47998377208804
  H   -1.25818171645950      0.77950898100858     -1.30441672006708
  N   0.97352965731859      1.53040778254936     -0.25078331019278
  H   1.96338920002060      1.56679251379212     -0.04116245400405
  H   0.82579262537130      1.92372044249898     -1.17261306215368
  C   0.91787637850156     -0.43243337078866      1.14459855702016
  H   0.51105831681985      0.15086919748359      1.97340374210124
  H   2.00849022134109     -0.42436616493133      1.20377902332801
  H   0.57370505391977     -1.45957785862305      1.22811750811768
  N   -1.70861054897500     -1.03280141382642     -0.39910031953745
  O   -2.17979760950268     -1.39581512641544     -1.47338190446236
  O   -1.76165841967336     -1.65968815207681      0.65806177476944
