15
Coordinates from ORCA-job run
  C   0.53563474396028      0.23814697055176     -0.43745177761440
  C   -0.91160535518018     -0.07403209357172     -0.82131949501355
  Cl  1.45110536505528      0.13948693365813     -1.99703272102093
  H   -0.97313217353977     -0.97569975650290     -1.42445016360277
  H   -1.34603303476557      0.78317350921068     -1.33638601413268
  N   0.62806253520403      1.59512745180941      0.02977493904007
  H   1.55196058782270      1.77906768819745      0.40235399563966
  H   -0.06525389478775      1.75277216309432      0.75244692478451
  C   1.11370444593668     -0.82029905013921      0.49287546614010
  H   0.61416241900445     -0.76770039977418      1.46402926556386
  H   0.99760454406476     -1.82689148806003      0.08637022551926
  H   2.17799522940301     -0.63059901323366      0.64421201825866
  N   -1.72612586394236     -0.33235534238831      0.40157688555425
  O   -2.14594578948422     -1.47347789969835      0.57467028391399
  O   -1.90213375875134      0.61528032684659      1.16933016696993
