15
Coordinates from ORCA-job run
  C   0.61151595399965      0.18654216267307     -0.36648260388883
  C   -0.84187797233545     -0.04277343780470     -0.82709665798003
  Cl  1.54208492723348      0.18217747432537     -1.91246389529669
  H   -1.20074926305268      0.81870885047951     -1.39025580734397
  H   -0.93741421632402     -0.95818211777591     -1.40706440952654
  N   0.87033456943699      1.44286696325628      0.28003235140626
  H   0.39385056411110      1.47502577702940      1.17395408907981
  H   0.53636838053911      2.21612943071642     -0.28347837817078
  C   1.10569603325362     -0.94943092220772      0.50839617173561
  H   2.16737295725161     -0.80466658272255      0.70492233772534
  H   0.57092930730031     -0.95319959251734      1.46241724616281
  H   0.95250395125496     -1.91451166991393      0.02475485027281
  N   -1.71910617437920     -0.19415388366424      0.36426324366356
  O   -2.06758871526928     -1.33270560837153      0.67257319568381
  O   -1.98392030302020      0.83017315649786      0.99552826647681
