15
Coordinates from ORCA-job run
  C   0.60908997419997      0.19114760653034     -0.36802490669050
  C   -0.84252252231716     -0.05490816883736     -0.82514718025753
  Cl  1.53703367866200      0.19020253685477     -1.91561574646013
  H   -1.21208900256262      0.80095150928465     -1.38990355070409
  H   -0.92980846507991     -0.97362325929519     -1.40115964940759
  N   0.85621798405567      1.45302405214870      0.27262803210456
  H   0.37801403350567      1.48549755557641      1.16562329460109
  H   0.51664180174945      2.22042347677296     -0.29549500035671
  C   1.11656819264985     -0.93575117911638      0.51078640104007
  H   0.58187374513054     -0.94230601876442      1.46483020853049
  H   0.97489587348132     -1.90430673105857      0.03056979865682
  H   2.17643329336197     -0.77757475851367      0.70669581060549
  N   -1.71608656653633     -0.21175788525619      0.36866883909755
  O   -1.99024523617936      0.81157964192000      0.99749578244612
  O   -2.05501678412111     -1.35259837824605      0.67904786679439
