17

C	-0.60227	0.022951	-1.399258
C	0.0	0.0	0.0
F	-0.098	-1.022309	-2.108421
H	1.088497	0.0	0.0
N	-2.012897	-0.080349	-1.409767
H	-2.399881	0.781081	-1.045199
H	-2.315445	-0.192392	-2.370375
N	-0.11207	1.2505	-2.209754
O	0.880177	1.848282	-1.821923
O	-0.759715	1.489492	-3.229571
N	-0.430405	-1.174528	0.668965
H	0.120534	-1.326463	1.502061
H	-1.423488	-1.181898	0.855683
N	-0.423204	1.268047	0.745925
O	-1.147047	2.097651	0.180697
O	-0.038113	1.359658	1.903691
Cl	3.317051	0.0	0.0
