17

C	-0.385322	-0.016006	-1.47391
C	0.0	0.0	0.0
F	0.277056	0.958987	-2.158784
H	1.094761	0.0	0.0
N	-0.162773	-1.30379	-2.022387
H	0.756579	-1.62385	-1.727315
H	-0.170802	-1.225091	-3.033671
N	-1.873408	0.269948	-1.702711
O	-2.64089	-0.083249	-0.814294
O	-2.193077	0.745108	-2.784245
N	-0.440296	-1.093277	0.786133
H	-1.235882	-1.576398	0.4037
H	0.322703	-1.711941	1.009936
N	-0.438664	1.312733	0.633999
O	-0.896539	2.191384	-0.099686
O	-0.272892	1.414683	1.840124
Cl	3.242936	0.0	0.0
