17

C	-0.405891	0.244401	-1.461638
C	0.0	0.0	0.0
F	-1.620373	0.892402	-1.553349
H	1.089002	0.0	0.0
N	0.585099	0.923634	-2.150059
H	0.555771	0.781495	-3.149239
H	1.513293	0.746019	-1.772762
N	-0.721623	-1.158097	-2.080294
O	0.227882	-1.733881	-2.599947
O	-1.866161	-1.584719	-1.991545
N	-0.497705	-1.204612	0.544901
H	-1.469686	-1.11839	0.811377
H	0.056335	-1.462003	1.350138
N	-0.433104	1.248012	0.773497
O	0.102548	2.307279	0.479142
O	-1.289998	1.099924	1.644945
Cl	3.263685	0.0	0.0
