17

C	-0.368617	0.155963	-1.484125
C	0.0	0.0	0.0
F	-1.701836	0.455552	-1.662517
H	1.088506	0.0	0.0
N	0.449845	1.089828	-2.097431
H	1.395678	1.064732	-1.721255
H	0.463145	0.997339	-3.103602
N	-0.276845	-1.261799	-2.154079
O	-1.179853	-2.056173	-1.914666
O	0.691644	-1.473629	-2.876682
N	-0.500677	-1.116657	0.713569
H	-1.394752	-1.439807	0.377482
H	0.181692	-1.860435	0.709436
N	-0.49685	1.276795	0.650952
O	0.232759	2.261864	0.601809
O	-1.614005	1.235807	1.161469
Cl	3.270906	0.0	0.0
