17

C	-0.548927	0.013926	-1.422034
C	0.0	0.0	0.0
F	0.101671	-0.95711	-2.131193
H	1.088134	0.0	0.0
N	-1.932042	-0.243673	-1.513614
H	-2.423545	0.484562	-1.010665
H	-2.202559	-0.224445	-2.489671
N	-0.150211	1.309156	-2.168985
O	0.748352	1.993684	-1.70542
O	-0.760827	1.515731	-3.217382
N	-0.45129	-1.155886	0.715797
H	-1.182282	-1.64259	0.216317
H	0.334149	-1.76188	0.903922
N	-0.472826	1.225522	0.75256
O	0.094239	1.476624	1.802517
O	-1.434941	1.863552	0.300754
Cl	3.31223	0.0	0.0
