17

C	-0.380569	0.113661	-1.482699
C	0.0	0.0	0.0
F	-1.730403	0.326566	-1.652194
H	1.088522	0.0	0.0
N	0.372927	1.08729	-2.118071
H	0.382649	0.981687	-3.122702
H	1.32225	1.11891	-1.755053
N	-0.209719	-1.30766	-2.134718
O	0.753667	-1.467411	-2.876455
O	-1.056025	-2.155009	-1.866501
N	-0.503709	-1.097452	0.739736
H	-1.394931	-1.429452	0.401826
H	0.178425	-1.841875	0.756162
N	-0.493984	1.292342	0.619169
O	-1.618189	1.271609	1.115334
O	0.245599	2.269907	0.561971
Cl	3.263491	0.0	0.0
