14

C	-0.339977	0.02839	-1.448412
C	0.0	0.0	0.0
Br	-2.209246	0.424423	-1.867323
H	1.092233	0.0	0.0
H	-0.298433	0.962505	0.422664
N	0.514448	1.135233	-2.088945
O	0.321375	2.255654	-1.643601
O	1.310238	0.810433	-2.955482
N	0.030002	-1.266665	-2.175713
O	0.727868	-2.053114	-1.549646
O	-0.364327	-1.390893	-3.327781
C	-0.630161	-1.081689	0.71505
N	-1.130034	-1.945877	1.336466
F	2.466708	0.0	0.0
