14

C	-0.445196	0.037502	-1.42526
C	0.0	0.0	0.0
Br	0.334237	-1.359122	-2.468612
H	1.090983	0.0	0.0
H	-0.341754	0.910237	0.498557
N	-1.983751	-0.001778	-1.529949
O	-2.541322	-1.032992	-1.863839
O	-2.525768	1.037232	-1.165233
N	-0.106431	1.380507	-2.08157
O	0.458674	2.219878	-1.397395
O	-0.474886	1.505745	-3.244873
C	-0.522232	-1.168875	0.674507
N	-0.924229	-2.109475	1.254839
F	2.479051	0.0	0.0
