14

C	-0.454485	0.041328	-1.417546
C	0.0	0.0	0.0
Br	-2.363985	0.382653	-1.677308
H	1.092678	0.0	0.0
H	-0.294976	0.930529	0.488857
N	0.23554	1.173914	-2.177426
O	0.520728	2.164483	-1.523216
O	0.370085	1.023462	-3.384711
N	-0.061505	-1.262184	-2.117194
O	-0.933356	-2.089267	-2.345756
O	1.139132	-1.371019	-2.318533
C	-0.556995	-1.135634	0.698107
N	-0.977836	-2.06378	1.285322
F	2.464771	0.0	0.0
