14

C	-0.411906	0.031506	-1.436104
C	0.0	0.0	0.0
Br	0.381762	-1.380084	-2.448621
H	1.090914	0.0	0.0
H	-0.344186	0.915043	0.487134
N	-1.946637	0.009263	-1.582933
O	-2.507304	-1.026087	-1.903557
O	-2.486382	1.065654	-1.263841
N	-0.043386	1.369312	-2.090368
O	0.461729	2.226954	-1.383395
O	-0.336835	1.475571	-3.275426
C	-0.53541	-1.1646	0.66928
N	-0.95642	-2.101117	1.242759
F	2.479213	0.0	0.0
