12

C	0.0	0.0	0.0
C	-0.46583	0.042217	-1.479342
Br	1.934272	0.0	0.0
H	0.424734	0.085516	-2.111687
H	-0.345363	-0.882841	0.530721
H	-0.340027	0.900954	0.502364
N	-1.21584	1.260897	-1.738231
H	-2.107895	1.155846	-1.242376
H	-1.429563	1.299532	-2.729832
C	-1.121914	-1.227651	-1.882864
N	-1.490613	-2.241727	-2.349775
Cl	-3.441919	0.0	0.0
