12

C	0.0	0.0	0.0
C	-0.461599	0.440055	-1.410247
Br	1.941124	0.0	0.0
H	0.173652	1.287562	-1.68978
H	-0.333536	0.724988	0.740516
H	-0.353411	-0.995707	0.263079
N	-1.829928	0.856641	-1.566763
H	-2.528834	0.210169	-1.191678
H	-1.986609	1.722619	-1.064501
C	-0.146889	-0.632603	-2.374027
N	0.109951	-1.483441	-3.140859
Cl	-4.442356	0.0	0.0
