12

C	0.0	0.0	0.0
C	-0.419367	-0.017464	-1.493312
Br	1.944024	0.0	0.0
H	0.491373	-0.118469	-2.089425
H	-0.346476	-0.864489	0.556905
H	-0.342354	0.91696	0.466791
N	-1.008774	1.260716	-1.863698
H	-1.140111	1.275125	-2.870155
H	-1.931593	1.279837	-1.426454
C	-1.191646	-1.229588	-1.859475
N	-1.621617	-2.211693	-2.342544
Cl	-3.204613	0.0	0.0
