12

C	0.0	0.0	0.0
C	-0.46541	0.246236	-1.455203
Br	1.941138	0.0	0.0
H	0.173019	1.04452	-1.852821
H	-0.35392	-0.950637	0.39507
H	-0.33139	0.818874	0.636736
N	-1.835516	0.636749	-1.662642
H	-2.528817	0.030632	-1.216992
H	-2.003922	1.551383	-1.262372
C	-0.157481	-0.951737	-2.25906
N	0.104536	-1.915951	-2.875905
Cl	-4.444862	0.0	0.0
