12

C	0.0	0.0	0.0
C	-0.485891	0.302405	-1.422383
Br	1.9396	0.0	0.0
H	-1.57704	0.377997	-1.319185
H	-0.344757	0.757257	0.701429
H	-0.360806	-0.977934	0.310218
N	-0.181137	-0.712578	-2.422839
H	0.770786	-1.040421	-2.303496
H	-0.812995	-1.49034	-2.278204
C	0.02479	1.603707	-1.877245
N	0.423271	2.652047	-2.224132
Cl	-3.376013	0.0	0.0
