12

C	0.0	0.0	0.0
C	-0.485139	-0.136243	-1.43319
Br	1.942083	0.0	0.0
H	-1.582487	-0.125631	-1.343998
H	-0.344613	-0.858037	0.570224
H	-0.341129	0.927583	0.452454
N	-0.059415	-1.413215	-1.998059
H	-0.572586	-1.588456	-2.852769
H	0.928436	-1.37846	-2.223812
C	-0.058274	1.017865	-2.252475
N	0.29707	1.886647	-2.960173
Cl	-3.429241	0.0	0.0
