14

C	0.0	0.0	0.0
C	-0.532289	-0.087649	-1.407822
Cl	1.790285	0.0	0.0
H	-1.631705	-0.126674	-1.338062
H	-0.308188	-0.888735	0.54809
H	-0.199731	0.742442	-2.030394
C	-0.501479	1.262203	0.673909
H	-0.142158	2.145881	0.139175
H	-1.594642	1.240489	0.671982
H	-0.137592	1.312603	1.702145
N	-0.084823	-1.327166	-2.099572
O	-0.083545	-2.374021	-1.456098
O	0.227007	-1.229897	-3.286189
Br	-3.856112	0.0	0.0
