14

C	0.0	0.0	0.0
C	-0.536814	-0.137578	-1.415956
Cl	1.79041	0.0	0.0
H	-0.230224	-1.0818	-1.860826
H	-0.303059	-0.913175	0.515874
H	-1.6297	-0.049244	-1.359165
C	-0.500749	1.206843	0.769224
H	-1.593325	1.186702	0.758367
H	-0.143322	1.156918	1.799362
H	-0.147555	2.131095	0.314175
N	-0.025904	0.918357	-2.330111
O	-0.371162	2.079376	-2.114454
O	0.71268	0.56455	-3.252038
Br	-3.907948	0.0	0.0
