15

C	-0.447011	0.037093	-1.44708
C	0.0	0.0	0.0
Br	-2.423867	0.215585	-1.525038
H	1.09375	0.0	0.0
H	-0.351688	0.891549	0.517703
C	0.188595	1.265591	-2.096885
H	1.275137	1.163852	-2.009824
H	-0.13024	2.168456	-1.571587
H	-0.100039	1.337914	-3.145712
C	-0.109545	-1.148032	-2.234014
N	0.150137	-2.011264	-2.988777
N	-0.500678	-1.153713	0.779851
O	-0.604357	-2.238241	0.211306
O	-0.754088	-0.945475	1.966238
Br	3.4125	0.0	0.0
