15

C	-0.562871	-0.018668	-1.425468
C	0.0	0.0	0.0
Br	0.136983	-1.545733	-2.443211
H	1.088176	0.0	0.0
H	-0.376068	0.899083	0.492161
C	-2.089232	-0.062234	-1.480747
H	-2.42579	-0.00041	-2.516328
H	-2.460247	-0.987303	-1.040122
H	-2.495641	0.781738	-0.916468
C	-0.094736	1.193012	-2.098639
N	0.218801	2.196944	-2.623858
N	-0.536983	-1.140021	0.784428
O	0.065666	-2.208372	0.743423
O	-1.583876	-0.937509	1.41279
Br	3.467709	0.0	0.0
