15

C	-0.450844	0.047101	-1.445433
C	0.0	0.0	0.0
Br	-2.42747	0.242811	-1.515754
H	1.093783	0.0	0.0
H	-0.348368	0.889364	0.523504
C	0.193334	1.272791	-2.091496
H	-0.102664	1.353394	-3.138307
H	1.279784	1.160061	-2.010886
H	-0.111445	2.176049	-1.560074
C	-0.129625	-1.136239	-2.239988
N	0.123071	-1.998343	-2.997725
N	-0.499811	-1.156393	0.776418
O	-0.725085	-0.958246	1.968507
O	-0.626694	-2.233712	0.200599
Br	3.414382	0.0	0.0
