15

C	-0.41979	0.086432	-1.468178
C	0.0	0.0	0.0
Br	-2.365305	0.465681	-1.602121
H	1.092333	0.0	0.0
H	-0.405863	-0.884996	0.483566
C	0.369718	1.105526	-2.281172
H	1.433284	0.898508	-2.123092
H	0.117459	1.019144	-3.339236
H	0.155118	2.111325	-1.928617
C	-0.248807	-1.250353	-2.036264
N	-0.108238	-2.326065	-2.489035
N	-0.464101	1.158233	0.797543
O	-1.124486	0.914406	1.808156
O	-0.153669	2.284376	0.415616
Br	3.438101	0.0	0.0
