15

C	-0.464468	-0.046037	-1.4531
C	0.0	0.0	0.0
Br	-0.124157	1.697646	-2.297757
H	1.08859	0.0	0.0
H	-0.365088	-0.896696	0.511468
C	0.37849	-1.098226	-2.174886
H	1.436378	-0.86089	-2.037143
H	0.177402	-2.07928	-1.732991
H	0.125633	-1.127223	-3.235373
C	-1.888436	-0.334877	-1.619611
N	-3.002687	-0.659058	-1.808055
N	-0.56041	1.151697	0.753867
O	-1.775355	1.334903	0.652451
O	0.203329	1.817434	1.443784
Br	3.521506	0.0	0.0
