15
Coordinates from ORCA-job run
  C   -0.69880345126381     -0.31441434053470     -0.52429288807609
  C   0.79831470590572     -0.54641983370677     -0.50633074437456
  Br  -1.59741215043470     -1.55126622693420     -1.68213205836753
  H   0.93699388597066     -1.62021914146733     -0.35529785013014
  H   1.16721886840687     -0.30390769780976     -1.50472630541317
  N   -1.09503551402789      1.08762996742532     -0.98470932085617
  O   -2.28049918931810      1.36698879772409     -0.89569232222382
  O   -0.19662638621697      1.79787100380912     -1.42065518143155
  N   -1.20919397230598     -0.44701649945368      0.91016931826077
  O   -1.37208793519248     -1.58246271392784      1.32810915235989
  O   -1.28128398001790      0.59758368527218      1.54515862174988
  C   1.55161939581849      0.23699446455265      0.56623324250444
  H   2.62230871537892      0.07432004653693      0.42900793139566
  H   1.36040222538203      1.30663219739771      0.49915429568905
  H   1.29308478191514     -0.10431370888372      1.57000410891333
