15
Coordinates from ORCA-job run
  C   -0.75193330609637     -0.31358210556568     -0.43046344201559
  C   0.72539508683227     -0.64128691941588     -0.50415251193413
  Br  -1.77226951609985     -1.33571812204483     -1.69217228511700
  H   0.99183051945033     -0.60432725288786     -1.56377024916675
  H   0.83606732462057     -1.67547208148324     -0.17258080986348
  N   -0.91228575707972      1.18392645716560     -0.69083352132115
  O   -0.93281506669290      1.89521693279651      0.30577429989591
  O   -0.87547865403171      1.54152681843677     -1.85756217665136
  N   -1.36742798011517     -0.57016974573497      0.94433689450414
  O   -0.65908019188249     -1.13854323642914      1.76708452274863
  O   -2.52246198783535     -0.20227093350147      1.09259035417489
  C   1.62699208609424      0.29466446788581      0.29758180888529
  H   1.33208670675480      0.34625346630863      1.34426539244942
  H   1.63028703196561      1.30400925554053     -0.11720797063250
  H   2.65009370411575     -0.08322700107078      0.25110969404366
