15
Coordinates from ORCA-job run
  C   -0.73603305679570     -0.21316186124809     -0.52396344761702
  C   0.73237596124873     -0.58339535256125     -0.56887424737822
  Br  -1.77485303148829     -1.27003485580060     -1.74118087826582
  H   1.09863758014088     -0.30175772754548     -1.55794521347104
  H   0.77254782798378     -1.67373628496736     -0.50042099065253
  N   -1.00853663468879      1.25033773584391     -0.86846376344304
  O   -2.15968617711731      1.63096778820720     -0.72215041740855
  O   -0.05775225256197      1.90530810480018     -1.27923906804048
  N   -1.22308234548346     -0.40554533461445      0.91193956228988
  O   -1.17969266316957      0.59016821214074      1.62345347152360
  O   -1.48522343247635     -1.54893278078263      1.25021933687932
  C   1.58230851341973      0.04423175442750      0.53356035879939
  H   1.49558671550801      1.12935354136507      0.54645560987429
  H   2.62848791663686     -0.21087753459310      0.35432285851053
  H   1.31391507884346     -0.34192540467163      1.51828682839970
