15
Coordinates from ORCA-job run
  C   -0.86239029555729      0.13555220650287     -0.57507930635411
  C   0.50356855203369      0.72754651032112     -0.19896413272558
  Br  -2.18734043086876      1.57501245170294     -0.63017956989262
  H   0.68813182792512      1.58383512321725     -0.85631024243409
  H   -0.79905046374140     -0.21986321659677     -1.60654138771647
  C   -1.34595760703966     -0.96674373511055      0.34814983698685
  H   -0.64334181198520     -1.80424085973214      0.34003004363581
  H   -1.44578646728208     -0.59978277244920      1.37136889859669
  H   -2.31747784955508     -1.33770792624681      0.01972486206490
  C   1.63737166027571     -0.29044733256660     -0.38476593071155
  H   1.55272514526272     -1.11764666422309      0.32050753138512
  H   2.60288007091550      0.19204153745997     -0.22317533611443
  H   1.61918156612654     -0.68909417337221     -1.40204047968519
  C   0.49264151802072      1.22604603318069      1.17877364610776
  N   0.50684458546947      1.58549281791253      2.29650156685690
