15
Coordinates from ORCA-job run
  C   -0.96067988528580      0.24915117672061      0.14300168995074
  C   0.48850282952130      0.59978207544850     -0.23125417126670
  Br  -1.16846099669075      0.13478084269937      2.08459378540415
  H   0.49217124817238      0.69135115060921     -1.32669842624801
  H   -1.60219225347535      1.08402340336159     -0.14707587689744
  C   -1.44887693059866     -1.03636043866797     -0.50142581861380
  H   -2.51185839013630     -1.17815595621189     -0.30286702068152
  H   -1.30460701392392     -0.98485769458949     -1.58559368712451
  H   -0.91679300932144     -1.90626338809008     -0.11575643703639
  C   1.53362144328196     -0.44379024352700      0.17144243722848
  H   1.32098089691476     -1.40372036170814     -0.30085059740719
  H   2.52457306012513     -0.11953871718131     -0.15058760075586
  H   1.54889347955084     -0.57658387708145      1.25323999800452
  C   0.85015749015615      1.91790561633252      0.29757520975183
  N   1.15456803170971      2.97327641188553      0.71225651569171
