15
Coordinates from ORCA-job run
  C   -0.67110257894667     -0.41768787417790     -0.38907510692819
  C   0.50514936228969      0.46357336791758      0.06291002339742
  Br  -1.24212605813649      0.15144681439640     -2.17414925332813
  H   0.15883860215984      1.50436799930937      0.07782777972657
  H   -0.31981230233708     -1.44455283596644     -0.51958286429219
  C   -1.86346445080220     -0.36744968844142      0.54945085550593
  H   -1.58045092571864     -0.74607625105933      1.53474395816377
  H   -2.22479125140220      0.65780873551649      0.65712148614785
  H   -2.67985657777644     -0.97986551722968      0.16523315027095
  C   1.75058152539173      0.35022816197773     -0.82166703579750
  H   2.08249507523164     -0.68904393651151     -0.87887962672771
  H   1.53412226797994      0.70583717242886     -1.82827237687019
  H   2.56473270907974      0.94756179186635     -0.40782125365763
  C   0.85175995531427      0.09373151329971      1.44021345687091
  N   1.13592464767287     -0.22987945332619      2.53294680751814
