14

C	-0.413044	-0.032659	-1.475109
C	0.0	0.0	0.0
Cl	0.043691	1.466748	-2.326664
H	1.095573	0.0	0.0
H	0.149916	-0.840578	-1.950398
C	-1.846227	-0.271786	-1.65523
N	-2.994333	-0.490668	-1.779825
C	-0.438737	-1.284391	0.710705
H	-1.526123	-1.380829	0.765308
H	-0.027654	-1.285763	1.721293
H	-0.02226	-2.148262	0.186207
C	-0.535768	1.175533	0.675489
N	-0.985815	2.089869	1.259986
Cl	3.27477	0.0	0.0
