14

C	-0.523338	0.007443	-1.444615
C	0.0	0.0	0.0
Cl	0.071843	-1.41026	-2.358276
H	1.095652	0.0	0.0
H	-1.615099	-0.075875	-1.43818
C	-0.175433	1.227844	-2.171472
N	0.033831	2.213515	-2.774523
C	-0.466871	-1.235747	0.772689
H	-1.557998	-1.328246	0.774008
H	-0.024904	-2.129995	0.334213
H	-0.117434	-1.162355	1.803531
C	-0.49942	1.209201	0.651763
N	-0.951542	2.150457	1.191261
Cl	3.2831	0.0	0.0
