14

C	-0.417374	-0.040587	-1.473077
C	0.0	0.0	0.0
Cl	0.058145	1.44516	-2.338486
H	1.095528	0.0	0.0
H	0.132243	-0.859699	-1.943829
C	-1.853727	-0.259777	-1.646887
N	-3.005434	-0.458612	-1.766154
C	-0.440763	-1.279188	0.718704
H	-0.032676	-1.273652	1.730493
H	-0.02328	-2.146881	0.201347
H	-1.528371	-1.374602	0.771532
C	-0.532592	1.180944	0.668452
N	-0.979329	2.101376	1.245692
Cl	3.278461	0.0	0.0
