15

C	-0.501634	0.058145	-1.426938
C	0.0	0.0	0.0
F	-0.164792	-1.140828	-2.072329
H	1.094285	0.0	0.0
H	0.021587	0.853988	-1.969776
H	-0.343257	-0.943626	0.439349
C	-2.002921	0.221898	-1.571126
H	-2.286968	0.117414	-2.620962
H	-2.331519	1.202059	-1.219706
H	-2.520166	-0.549978	-0.99409
C	-0.473995	1.186798	0.837582
H	0.035945	1.18288	1.802798
H	-1.552643	1.175733	1.021211
H	-0.220735	2.132186	0.347428
Cl	3.672235	0.0	0.0
