13
Coordinates from ORCA-job run
  C   -0.90615311578722      0.44363096038752      0.03586909235082
  C   0.60351320629681      0.48540149185422      0.28590900365205
  Br  -1.19416398113375      1.45127068119622     -1.69837245724250
  H   0.94347859355707      1.52084609295479      0.32868303270685
  H   -1.37785515924477      1.10187240247687      0.76553361580688
  N   -1.45493134032375     -0.83883692471497      0.10868838738172
  H   -2.46382597127732     -0.83615228873216      0.06720867362943
  H   -1.05869868964459     -1.48442475524171     -0.56005606818708
  N   1.38224726925526     -0.13793129505366     -0.85277961045107
  O   1.04649739696167     -1.26744536996232     -1.19476476288328
  O   2.28942879083489      0.53217495936682     -1.32590802732450
  C   0.95120394391856     -0.21995755977760      1.51703680739384
  N   1.24025905658715     -0.75044839475402      2.52395231316685
