13
Coordinates from ORCA-job run
  C   -0.86573220594919      0.10121340383917      0.29927661765811
  C   0.60378918647000      0.44164815368782      0.05013011213409
  Br  -1.70983171294380      1.70522453259575      1.00467202240249
  H   0.67605643906933      1.23592021564025     -0.69430873469591
  H   -0.93567841564886     -0.65221868215710      1.08555857115062
  N   -1.45155735196096     -0.30045400970121     -0.96022356480830
  H   -1.58110124837171     -1.30343614427975     -0.97259793820914
  H   -2.34272838309921      0.14605524360667     -1.11811558903924
  N   1.26597019954190     -0.76939219183811     -0.58100206953527
  O   0.87807456330161     -1.86853797930382     -0.19801296439484
  O   2.14615752104930     -0.54407358466124     -1.39897015078509
  C   1.35190582686774      0.77179619833886      1.25808467514023
  N   1.96367558167386      1.03525484423270      2.22550901298224
