13
Coordinates from ORCA-job run
  C   -0.89674243562556      0.46078537306833      0.04968376920413
  C   0.61767452798072      0.47519946203425      0.27299771878185
  Br  -1.19662731496446      1.46571887093814     -1.68359632720810
  H   0.97782852272742      1.50413275275392      0.30368099746895
  H   -1.34315264647430      1.13020443860099      0.78529120586751
  N   -1.46813726906474     -0.81106562248178      0.13799182170831
  H   -2.47741283690579     -0.78898950312855      0.11535054075391
  H   -1.09708574178655     -1.46638693382976     -0.53574222434226
  N   1.36418026056576     -0.16820289942319     -0.87657203828973
  O   1.00066740854237     -1.29220031201272     -1.20794313719510
  O   2.27579309924333      0.48228557577771     -1.36817754055845
  C   0.97374440016283     -0.23077416124183      1.50127237607406
  N   1.27027002559898     -0.76170704105552      2.50576283773491
