13
Coordinates from ORCA-job run
  C   -0.92602115372697      0.25198488329484      0.25587550047904
  C   0.59437353648228      0.42642311532323      0.03756126893536
  Br  -1.62490192505282      2.05712289153359      0.56170068017062
  H   0.78725644308928      1.08692426130111     -0.80983327666786
  H   -1.08397561213072     -0.30053495107665      1.18229015458584
  N   -1.61718014111760     -0.38891953540799     -0.80215239128663
  H   -1.56574662940971     -1.39633767187747     -0.74977093577619
  H   -1.37243076257061     -0.05010255280909     -1.72219914693929
  N   1.11634254487006     -0.93346849391606     -0.35834381958089
  O   1.49287505103898     -1.06261472496409     -1.51815473368497
  O   1.04566539375720     -1.81051939108251      0.49603318931986
  C   1.29619644081702      0.87943275876916      1.22987443277271
  N   1.85654681395361      1.23960941091192      2.19711907767238
