13
Coordinates from ORCA-job run
  C   -0.89979291261123      0.43078296982865      0.15595058077553
  C   0.62556043625649      0.45880870440125      0.28235535045912
  Br  -1.33099556443113      1.60629436992949     -1.43728074373118
  H   0.96866306238246      1.48723334486408      0.40070808618607
  H   -1.30839874505003      1.00866328854590      0.98496957342612
  N   -1.44133987254507     -0.85652159793500      0.14378018325591
  H   -1.10260939764493     -1.42877946236123     -0.61675774482447
  H   -2.45008173815930     -0.85858322109913      0.18807847031123
  N   1.30582698492991     -0.04098724082409     -0.97477459767151
  O   2.16989888355376      0.68086146664697     -1.45248900767079
  O   0.94197618327316     -1.13297806840621     -1.39952802394863
  C   1.07471605400491     -0.36422811796321      1.40253843193436
  N   1.44657662604101     -0.99056643562743      2.32344944149820
