13
Coordinates from ORCA-job run
  C   -0.86750220771859     -0.02300645720029      0.26969013636504
  C   0.57275190129389      0.45291955986426      0.07327406419192
  Br  -1.87483931268406      1.55306349636109      0.98421721635661
  H   0.61978398470133      1.25250231706364     -0.66902432750723
  H   -0.90364250372177     -0.75961412196397      1.07085653261892
  N   -1.35961150429758     -0.57092272154641     -0.92880927394374
  H   -2.23217419822383     -1.06361867684074     -0.79901701945255
  H   -1.45837633106736      0.11366091553848     -1.66783665725650
  N   1.34063201477616     -0.71595817280590     -0.51176552116239
  O   1.74281953079272     -0.58507602065544     -1.66012900811106
  O   1.45709903108287     -1.69645694425724      0.21135529502789
  C   1.21405007980614      0.86051369514857      1.31616577108273
  N   1.74900951526012      1.18099313129384      2.31102279179038
