13
Coordinates from ORCA-job run
  C   -0.90103835477796      0.43046782906802      0.13890382236147
  C   0.62463500115931      0.47836118606348      0.25682541766431
  Br  -1.34696882159630      1.52428233013418     -1.50885447015209
  H   0.95825490905853      1.51464333401850      0.32222461978189
  H   -1.31176045790553      1.04425008318801      0.94066730865227
  N   -1.43249175702988     -0.85993654780978      0.19050456028284
  H   -2.44092938484320     -0.86632372036761      0.24142549508548
  H   -1.09522678963598     -1.46413630297817     -0.54577986098929
  N   1.30501034704591     -0.07659005575957     -0.97694838490878
  O   2.16646756508988      0.62508651731488     -1.48814621806441
  O   0.94546757585199     -1.18903283266659     -1.34924987384840
  C   1.08477184730230     -0.28460980100234      1.41444291845594
  N   1.44380832028094     -0.87646201920305      2.36298466567876
