13
Coordinates from ORCA-job run
  C   -0.85763145112777     -0.08019334624036      0.28763252337605
  C   0.56423923392063      0.45663943726701      0.11324230768456
  Br  -1.88098577072612      1.36762852541245      1.21813328189767
  H   0.56912713392430      1.34350770252678     -0.52386483165057
  H   -0.85129117689674     -0.91048467843272      0.99209095721363
  N   -1.37238039048473     -0.49004094439222     -0.95578542014278
  H   -2.22811378822416     -1.01950541499839     -0.86397851101327
  H   -1.51118875924281      0.27754328099686     -1.60084262282498
  N   1.34237506208435     -0.60826206358313     -0.63361624827394
  O   1.70588056911995     -0.32466714559471     -1.76724270517872
  O   1.50504906450230     -1.66724644580978     -0.04199014944371
  C   1.23158401678474      0.72382177316250      1.38031293672808
  N   1.78533625636604      0.93025931968573      2.39490848162801
