13
Coordinates from ORCA-job run
  C   -0.94944978840002      0.12802443928172      0.26671031660188
  C   0.54552080065053      0.47787704861217      0.08839764930704
  Br  -1.83235195968098      1.81214908678638      0.73880023512385
  H   0.67326124150115      1.23375140629864     -0.68866921933789
  H   -1.05286411086717     -0.52786745917318      1.13142043182108
  N   -1.56705172663720     -0.47158101069995     -0.85939222317726
  H   -1.35634350183458     -0.01692228937878     -1.73705126240391
  H   -1.40685959910424     -1.46778407125087     -0.90849136880117
  N   1.20738889944139     -0.77633544657461     -0.42884884539717
  O   1.60004742962084     -0.75309505044600     -1.59029361144159
  O   1.22388952050509     -1.73488873827232      0.33613511902222
  C   1.19283959790993      0.88294326924226      1.32791327807934
  N   1.72097319689521      1.21372881557443      2.32336950060361
