13
Coordinates from ORCA-job run
  C   -0.92392594577894      0.42122166330939      0.02220941537450
  C   0.60048041575714      0.56261131235482      0.15815196045765
  Br  -1.57402967870677      1.52744942783947     -1.45653944072451
  H   0.88905981243908      1.61101028371580      0.07302746082853
  H   -1.35959824621323      0.90103551267948      0.90674069663037
  N   -1.28396244280458     -0.94081121784034     -0.21092449254042
  H   -2.28343344507244     -1.07301525037452     -0.13549877015532
  H   -0.80227037516012     -1.57598935344830      0.41494303277023
  N   1.30274307442877     -0.16956399709829     -0.96310751933107
  O   1.53895781081218     -1.35877243381204     -0.78615209428382
  O   1.54790533523976      0.49527972238607     -1.96143621081247
  C   1.02965584621529      0.00895875992012      1.43932833959767
  N   1.31841783884383     -0.40941442963166      2.49825762218862
