13
Coordinates from ORCA-job run
  C   -0.87859088921017      0.01316410255192      0.23059058086168
  C   0.59191627789468      0.41885949447610      0.11728787032205
  Br  -1.83443711085928      1.61316403943939      0.96388291467496
  H   0.71395703657030      1.24487958535530     -0.58648476553511
  H   -0.98993077413458     -0.75004048179641      0.99929006608582
  N   -1.34317032629773     -0.46163559725317     -1.00907877922304
  H   -2.24521933397443     -0.91123515991550     -0.93778982698482
  H   -1.37083986891298      0.25381080696055     -1.72452760509150
  N   1.32366467645870     -0.76442296721750     -0.48410291983189
  O   1.77629209178615     -0.61103022977095     -1.61074170940158
  O   1.36243151166904     -1.77637960519612      0.20317444075399
  C   1.19550487042556      0.74035835213921      1.40355870581350
  N   1.69742183858471      0.99150766022718      2.43494102755593
