13
Coordinates from ORCA-job run
  C   -0.76297749400376      0.38811378258450     -0.28552906132174
  C   0.63769522843481      0.12810994376361      0.26951997156333
  Br  -1.08682266176013     -0.89825433631190     -1.77833049216620
  H   0.85202674319984      0.92595699825796      0.98765465203898
  H   -0.76540870050090      1.36464130467923     -0.76668002208857
  N   -1.69927680376374      0.34310654719698      0.77010854759047
  H   -1.80798049762458     -0.58994870273902      1.15038103671980
  H   -2.60376284575584      0.69164873518705      0.48230967052509
  N   1.67159707882186      0.28312798858899     -0.82255784154569
  O   1.63853782829930      1.36514777778941     -1.39713341873613
  O   2.43753011456100     -0.64513866043361     -1.03842790431217
  C   0.73965069824416     -1.16970923903168      0.92094174382605
  N   0.74919131184797     -2.18680213953143      1.50774311790673
