13
Coordinates from ORCA-job run
  C   -0.91021950923667      0.13307368197015      0.37573101448219
  C   0.52686403499418      0.50488421602634     -0.05466481658997
  Br  -1.81183905372639      1.83576886176191      0.73173867859567
  H   0.50985198748949      1.14726919273434     -0.93701380706190
  H   -0.86283911907266     -0.39655265867427      1.32744269190567
  N   -1.63845601255535     -0.64123344576015     -0.56183285451636
  H   -1.43093066237109     -1.62770642217156     -0.49778652597575
  H   -1.57064180453476     -0.30803126061814     -1.51340432514085
  N   1.17877459512422     -0.78675810830623     -0.48524072350255
  O   1.34527191248890     -1.62811948467451      0.39145423920582
  O   1.41571589929170     -0.91168751180582     -1.68168380293545
  C   1.31040330771919      1.10160986460978      1.01765282832766
  N   1.93904442438925      1.57648307490819      1.88860740320582
