13
Coordinates from ORCA-job run
  C   -0.87593352744566     -0.01880439436601      0.23932207591427
  C   0.57673940618079      0.44286614430706      0.10862138101877
  Br  -1.88695694486793      1.54674627158687      0.96920299762590
  H   0.66004639351521      1.26798871234086     -0.60189331055576
  H   -0.94899949387029     -0.78051505114531      1.01393654988506
  N   -1.33317696838193     -0.52109132367255     -0.99275663329079
  H   -1.39925273353500      0.18885048839286     -1.71123795090235
  H   -2.21590459067493     -1.00549958383655     -0.90809131428602
  N   1.34818767013956     -0.71509373987964     -0.49229697744456
  O   1.42722541875172     -1.72253261935535      0.19831182312103
  O   1.78926965922617     -0.54955855785492     -1.62176868563675
  C   1.17890347786534      0.79575036399065      1.38738244163979
  N   1.68085223309698      1.07189328949203      2.41226760291141
