13
Coordinates from ORCA-job run
  C   -0.91270584331408      0.40797748611776      0.13036761661548
  C   0.61083631900304      0.49939786586872      0.24746024388119
  Br  -1.38800208414664      1.45806527444521     -1.53688307245706
  H   0.91641501988946      1.54537327042541      0.29214185453822
  H   -1.33991836123005      1.02536989555474      0.92068566111445
  N   -1.40857179402811     -0.89544359910754      0.20637727376162
  H   -2.41657751978948     -0.92888688149794      0.25491072792928
  H   -1.05213068842983     -1.50414107047796     -0.51708003772242
  N   1.30710556674444     -0.06116635530741     -0.97463226710283
  O   2.14991994413018      0.65352107884090     -1.49882512877651
  O   0.97719901828286     -1.18916592986932     -1.32696186379892
  C   1.09078439622221     -0.22711874571388      1.42043200731927
  N   1.46564602666599     -0.78378228927868      2.38400698469831
