13
Coordinates from ORCA-job run
  C   -0.75266385322293      0.47073007133175     -0.16725944480028
  C   0.66004920067769      0.05019271999477      0.23830992551195
  Br  -1.25865740322336     -0.55624792898328     -1.80477377151504
  H   0.97486144190686      0.71791786503462      1.04668583861106
  H   -0.72007092278304      1.50651021351564     -0.50052259055353
  N   -1.61984606044233      0.32141537051455      0.93617893982095
  H   -1.76062415605128     -0.65006081800931      1.18805562028706
  H   -2.51810335236489      0.75383277843096      0.76724187398555
  N   1.62994928550021      0.30727326193826     -0.89311079292292
  O   2.32585384406220     -0.61731780874260     -1.28752232017796
  O   1.63233076601906      1.46272719553920     -1.30128661980682
  C   0.71519767738325     -1.33441848658412      0.68404265592821
  N   0.69172353253856     -2.43455443398036      1.09396068563177
