13
Coordinates from ORCA-job run
  C   -0.78226617387552      0.37179066997940     -0.25740718094579
  C   0.64952129597079      0.14334198414116      0.22705615682461
  Br  -1.17809067258374     -0.97799291709249     -1.67677532640435
  H   0.89824686016271      0.97123276522012      0.89874539918044
  H   -0.82006941756550      1.32679515463186     -0.77850392756958
  N   -1.65738343431788      0.36466364661579      0.84948358002750
  H   -2.58197298980786      0.68771705433877      0.59840659517493
  H   -1.72946545655286     -0.54992059251022      1.27990400976717
  N   1.61950430489479      0.25976529818863     -0.92714416455200
  O   1.54454785849496      1.31618591900523     -1.54360928009982
  O   2.38973367886233     -0.66603769912255     -1.13813844867108
  C   0.79879518078896     -1.12617622070382      0.92356741704683
  N   0.84689896552884     -2.12236506269188      1.54341517022113
