13
Coordinates from ORCA-job run
  C   -0.94060462288910      0.49526989346408      0.04031098242321
  C   0.60184323885263      0.50323738466713      0.21890435391704
  Br  -1.32117113512864      1.57684089937400     -1.55575273495015
  H   0.97079624696818      1.52461933604654      0.32336495518840
  H   -1.34374455693251      1.07132075357157      0.87561284663614
  N   -1.59361514119372     -0.75842456922640     -0.02215301949155
  H   -1.11626151837082     -1.42015029584397     -0.61781596180540
  H   -1.75896629055735     -1.14799188615380      0.89529121426063
  N   1.29708564296698     -0.05943334754653     -0.99486547396250
  O   1.02030642252933     -1.21780395727218     -1.29482149072268
  O   2.06456118049777      0.68748867769008     -1.58729070004553
  C   0.95167836124061     -0.30680753767782      1.38003706250306
  N   1.16909217201666     -0.94916535109269      2.33917796604933
