16

C	0.0	0.0	0.0
C	-0.693944	-0.01143	-1.329318
Br	1.958786	0.0	0.0
H	-1.824945	0.01681	-0.940428
H	-0.254317	-0.978873	0.410085
C	-0.454128	1.07206	0.977441
H	-1.550471	1.063054	0.954816
H	-0.078957	2.055076	0.700839
H	-0.103515	0.819728	1.982427
N	-0.447239	-1.206375	-2.067849
H	0.436421	-1.131883	-2.560886
H	-1.174325	-1.309275	-2.763366
N	-0.462835	1.225168	-2.128885
O	-0.674572	2.316565	-1.591421
O	-0.13905	1.10631	-3.32123
H	-3.04162	0.0	0.0
