16

C	0.0	0.0	0.0
C	-0.614099	0.093686	-1.390412
Br	1.955001	0.0	0.0
H	-1.708306	0.182756	-1.149275
H	-0.292508	-0.986278	0.366856
C	-0.497666	1.06193	0.958669
H	-1.595693	1.007443	0.911927
H	-0.155452	2.054551	0.666911
H	-0.154122	0.846492	1.973574
N	-0.392325	-1.012128	-2.270917
H	0.557695	-1.355922	-2.198308
H	-1.047067	-1.741087	-2.015589
N	-0.170328	1.35404	-2.064471
O	-0.698826	2.406017	-1.698191
O	0.710242	1.277289	-2.921927
H	-3.15645	0.0	0.0
