16

C	0.0	0.0	0.0
C	-0.441408	-0.045424	-1.464641
Br	1.952031	0.0	0.0
H	0.286771	0.448059	-2.115288
H	-0.293818	-0.925503	0.491422
C	-0.53441	1.205604	0.743027
H	-0.130875	1.229583	1.758786
H	-1.624957	1.111621	0.780647
H	-0.272357	2.132951	0.23015
N	-1.72968	0.459582	-1.654747
H	-2.03112	0.387269	-2.618833
H	-2.509207	0.165323	-0.961997
N	-0.273088	-1.529185	-1.962
O	-0.074813	-1.649984	-3.174537
O	-0.430157	-2.470834	-1.188092
H	-3.592218	0.0	0.0
