16

C	0.0	0.0	0.0
C	-0.406368	0.083651	-1.478793
Br	1.953648	0.0	0.0
H	0.157727	0.890121	-1.955948
H	-0.299455	-0.964393	0.406847
C	-0.566852	1.149719	0.79993
H	-1.658456	1.036005	0.802236
H	-0.296194	2.109537	0.348251
H	-0.195145	1.129544	1.827085
N	-1.785025	0.148528	-1.762065
H	-2.48891	-0.045803	-0.969157
H	-2.031266	1.047629	-2.14995
N	0.153506	-1.164076	-2.187708
O	-0.033191	-2.25544	-1.656398
O	0.681222	-0.995901	-3.287633
H	-3.586112	0.0	0.0
