16

C	0.0	0.0	0.0
C	-0.399673	-0.074024	-1.482982
Br	1.953275	0.0	0.0
H	0.195886	0.651433	-2.044373
H	-0.302731	-0.913534	0.509908
C	-0.560374	1.233356	0.669289
H	-0.288225	2.136059	0.114563
H	-1.651845	1.124039	0.687979
H	-0.183148	1.325175	1.690464
N	-1.772367	0.008851	-1.790393
H	-2.485202	-0.092709	-0.988004
H	-1.979789	0.869127	-2.278235
N	0.116306	-1.414086	-2.043707
O	0.581753	-1.398139	-3.183446
O	-0.048896	-2.425894	-1.366961
H	-3.553587	0.0	0.0
