16

C	0.0	0.0	0.0
C	-0.645506	-0.003595	-1.363067
Br	1.958695	0.0	0.0
H	-1.752601	0.025233	-1.073954
H	-0.268894	-0.976109	0.405718
C	-0.496374	1.085109	0.932512
H	-0.154812	0.878674	1.949486
H	-0.150002	2.071693	0.63282
H	-1.594029	1.032851	0.887938
N	-0.325212	-1.173025	-2.109337
H	0.616338	-1.097561	-2.477065
H	-0.964827	-1.259851	-2.88881
N	-0.344038	1.269056	-2.116968
O	0.317384	1.188976	-3.161724
O	-0.798516	2.32416	-1.671145
H	-3.140632	0.0	0.0
