16

C	0.0	0.0	0.0
C	-0.61978	0.095858	-1.387477
Br	1.955108	0.0	0.0
H	-1.713758	0.180366	-1.141382
H	-0.290639	-0.987314	0.3659
C	-0.500421	1.059263	0.960113
H	-1.598504	0.996828	0.917526
H	-0.150662	0.848509	1.973823
H	-0.168034	2.05447	0.665203
N	-0.398505	-1.005291	-2.274098
H	-1.048671	-1.737874	-2.017451
H	0.553317	-1.345366	-2.209481
N	-0.18419	1.360171	-2.059209
O	0.707305	1.290915	-2.906169
O	-0.729945	2.406873	-1.702775
H	-3.160668	0.0	0.0
