16

C	-0.556145	0.013833	-1.425357
C	0.0	0.0	0.0
Br	0.218946	-1.507497	-2.411595
H	1.093295	0.0	0.0
H	-0.320001	-0.945076	0.454254
C	-2.076116	-0.138231	-1.479917
H	-2.425039	-0.201829	-2.512264
H	-2.550588	0.721342	-1.001064
H	-2.365661	-1.048307	-0.951137
C	-0.170544	1.229839	-2.138604
N	0.092014	2.244673	-2.669286
C	-0.481349	1.186602	0.833164
H	-1.560413	1.183077	1.012716
H	0.02479	1.153721	1.800098
H	-0.205741	2.132499	0.360148
Br	3.647113	0.0	0.0
