16

C	-0.356153	0.086044	-1.482596
C	0.0	0.0	0.0
Br	-2.327904	0.326	-1.740075
H	1.096996	0.0	0.0
H	-0.357804	-0.949544	0.406334
C	0.365713	1.225665	-2.190307
H	0.03938	2.18483	-1.784966
H	0.165079	1.208976	-3.262431
H	1.43814	1.102044	-2.003178
C	-0.063655	-1.184953	-2.145855
N	0.145679	-2.204213	-2.691369
C	-0.470106	1.168025	0.855927
H	-0.065772	2.115745	0.494918
H	-1.559163	1.242573	0.900368
H	-0.089086	1.028106	1.870458
Br	3.598322	0.0	0.0
