16

C	-0.376832	0.038243	-1.477227
C	0.0	0.0	0.0
Br	-2.316228	0.494323	-1.678041
H	1.097217	0.0	0.0
H	-0.313566	0.956007	0.433362
C	0.443207	1.08408	-2.220783
H	1.501489	0.837349	-2.084038
H	0.18849	1.111795	-3.281615
H	0.258851	2.065545	-1.779297
C	-0.23585	-1.27291	-2.108805
N	-0.1195	-2.328545	-2.613412
C	-0.554785	-1.17028	0.792151
H	-0.221863	-1.094556	1.829717
H	-0.181467	-2.117913	0.397823
H	-1.648334	-1.191372	0.779382
Br	3.620267	0.0	0.0
