16

C	-0.369648	-0.040783	-1.459364
C	0.0	0.0	0.0
Br	0.440444	1.690159	-2.323661
H	1.088378	0.0	0.0
N	0.213748	-1.192772	-2.008517
H	0.136626	-1.20676	-3.017693
H	1.189997	-1.249874	-1.709728
C	-1.790217	0.057246	-1.781593
N	-2.923666	0.041558	-2.09483
N	-0.401241	-1.252707	0.689092
O	0.363807	-2.208746	0.577161
O	-1.465335	-1.250651	1.316317
N	-0.534198	1.116683	0.766348
O	-1.291785	1.927374	0.224311
O	-0.109697	1.190813	1.924179
H	2.437667	0.0	0.0
