16

C	-0.330541	0.048825	-1.468657
C	0.0	0.0	0.0
Br	-2.302314	0.184651	-1.844658
H	1.093205	0.0	0.0
N	0.317654	1.212402	-1.994396
H	1.265286	1.241165	-1.600653
H	0.369957	1.146379	-3.003866
C	0.095177	-1.18391	-2.153297
N	0.491634	-2.045093	-2.850663
N	-0.444699	-1.17634	0.723509
O	-0.183248	-1.182469	1.930964
O	-0.922206	-2.125376	0.088121
N	-0.442735	1.218424	0.7119
O	0.298716	2.195466	0.626881
O	-1.510391	1.177437	1.324326
H	2.427363	0.0	0.0
