16

C	-0.5456	-0.015492	-1.420283
C	0.0	0.0	0.0
Br	0.365636	-1.391276	-2.512971
H	1.088345	0.0	0.0
N	-1.952838	-0.326603	-1.438847
H	-2.295911	-0.310095	-2.393648
H	-2.427736	0.391794	-0.899444
C	-0.188562	1.245216	-2.099671
N	0.00627	2.246844	-2.685901
N	-0.420699	-1.198538	0.751985
O	-1.273519	-1.082671	1.63507
O	0.136501	-2.246537	0.430157
N	-0.432886	1.169744	0.744776
O	0.127511	1.336544	1.831967
O	-1.261871	1.955894	0.242172
H	2.396773	0.0	0.0
