16

C	-0.312796	0.07508	-1.472991
C	0.0	0.0	0.0
Br	-2.275612	0.362563	-1.864712
H	1.0932	0.0	0.0
N	0.43337	1.176317	-1.993162
H	1.364411	1.14978	-1.556934
H	0.523133	1.09114	-2.997359
C	0.013754	-1.191037	-2.15006
N	0.365708	-2.08694	-2.827585
N	-0.474699	-1.178755	0.706997
O	-0.159402	-1.233219	1.899734
O	-1.054109	-2.07145	0.075661
N	-0.431289	1.212569	0.726991
O	0.295751	2.198013	0.613671
O	-1.474271	1.157853	1.3807
H	2.433861	0.0	0.0
