16

C	-0.406939	-0.03858	-1.450902
C	0.0	0.0	0.0
Br	0.35352	1.68449	-2.338857
H	1.088386	0.0	0.0
N	0.165995	-1.191916	-2.014938
H	1.151716	-1.241154	-1.753143
H	0.051923	-1.20966	-3.019526
C	-1.842357	0.034097	-1.717933
N	-2.987108	0.028007	-1.98723
N	-0.398733	-1.258135	0.686525
O	-1.458543	-1.258352	1.318947
O	0.363575	-2.214443	0.565001
N	-0.524799	1.109882	0.784373
O	-0.0888	1.171504	1.937382
O	-1.287652	1.927346	0.260076
H	2.451493	0.0	0.0
