16

C	-0.485122	-0.132764	-1.446061
C	0.0	0.0	0.0
Br	-0.044815	-1.980452	-2.022536
H	1.116916	0.0	0.0
N	-1.885047	0.092856	-1.717829
H	-2.047255	1.076341	-1.513075
H	-2.409652	-0.454368	-1.042762
C	0.319144	0.738102	-2.317808
N	0.902465	1.408259	-3.087586
N	-0.427516	-1.13854	0.859389
O	-1.636829	-1.391118	0.872277
O	0.424137	-1.752024	1.488441
N	-0.416784	1.195831	0.603049
O	-0.636367	2.181401	-0.156235
O	-0.336277	1.269198	1.853302
H	2.305101	0.0	0.0
