16

C	-0.464309	-0.039722	-1.459946
C	0.0	0.0	0.0
Br	-0.037075	-1.857118	-2.136544
H	1.116294	0.0	0.0
N	-1.855219	0.221056	-1.737054
H	-2.00558	1.199604	-1.508032
H	-2.399607	-0.340496	-1.090484
C	0.359969	0.868331	-2.270014
N	0.959468	1.575024	-2.992755
N	-0.450269	-1.181546	0.782199
O	0.386625	-1.832469	1.393621
O	-1.660697	-1.429111	0.755023
N	-0.422323	1.161755	0.665094
O	-0.571329	2.199238	-0.038753
O	-0.414718	1.154348	1.919682
H	2.306926	0.0	0.0
