14

C	0.0	0.0	0.0
C	-0.510542	0.205472	-1.425988
F	1.379138	0.0	0.0
H	-1.583651	0.428626	-1.324778
H	-0.373403	-0.948458	0.389915
C	-0.396317	1.100345	0.899445
N	-0.540749	2.018572	1.616102
C	-0.345516	-1.072144	-2.249319
H	-0.635554	-0.897963	-3.286745
H	-1.007658	-1.835068	-1.834174
H	0.688463	-1.425125	-2.228521
C	0.180347	1.334184	-2.046908
N	0.746125	2.215972	-2.578224
Br	-3.542415	0.0	0.0
