14

C	0.0	0.0	0.0
C	-0.515632	0.037331	-1.436127
F	1.378912	0.0	0.0
H	-1.600772	0.208615	-1.349325
H	-0.367104	-0.901482	0.494593
C	-0.402915	1.188848	0.773631
N	-0.55447	2.172009	1.396623
C	-0.268825	-1.2981	-2.137091
H	0.79092	-1.564591	-2.120642
H	-0.602138	-1.249463	-3.175053
H	-0.850592	-2.071666	-1.629758
C	0.104708	1.142065	-2.165414
N	0.61571	2.000351	-2.783502
Br	-3.567309	0.0	0.0
