14

C	0.0	0.0	0.0
C	-0.512733	0.000493	-1.438943
F	1.378894	0.0	0.0
H	-1.594421	0.195388	-1.362846
H	-0.367278	-0.887864	0.518591
C	-0.400561	1.210906	0.740276
N	-0.551451	2.211885	1.334265
C	-0.293008	-1.364058	-2.092497
H	-0.91194	-2.100322	-1.573777
H	0.757286	-1.661999	-2.042264
H	-0.600557	-1.338306	-3.139236
C	0.135991	1.065652	-2.201458
N	0.668302	1.891706	-2.845213
Br	-3.557401	0.0	0.0
