14
Coordinates from ORCA-job run
  C   0.94668380632062     -0.49571009909479     -0.74306670574509
  C   -0.47656934944492     -0.05801836239723     -0.40208997668181
  H   1.31547695194453      0.13276110936231     -1.55896591223015
  H   -1.10330484846729     -0.19449561595136     -1.29010730163841
  H   0.95731963166855     -1.53149359620164     -1.08269659272753
  C   1.84151906152843     -0.35760448561170      0.40494159614608
  N   2.54418630484732     -0.22456088002159      1.33508415592686
  C   -0.57247196055056      1.36518958522615      0.10946062831743
  H   -0.13978806008551      2.04285717749537     -0.63007862657506
  H   -0.02425765217574      1.47604348985491      1.04651340511512
  H   -1.60903320680037      1.64787534017701      0.27973366809964
  N   -1.06772272983275     -1.02396881152866      0.60765891639613
  O   -0.64667421105061     -2.17770811858914      0.59660023412190
  O   -1.96536373790169     -0.60016673271964      1.32801251147491
