17

C	-0.314586	0.048614	-1.511712
C	0.0	0.0	0.0
Br	-0.069394	-1.733385	-2.487544
H	1.095685	0.0	0.0
N	-1.684544	0.388976	-1.73959
H	-1.886979	1.132741	-1.075842
H	-1.818967	0.715616	-2.690008
N	0.679931	0.961839	-1.981727
H	1.586755	0.696386	-1.566928
H	0.735081	0.966459	-2.991569
N	-0.570975	-1.13436	0.755802
O	-1.344228	-0.88316	1.688292
O	-0.196826	-2.265071	0.464384
N	-0.519405	1.258003	0.552933
H	0.187322	1.947328	0.307498
H	-0.52944	1.167234	1.563567
F	2.618558	0.0	0.0
