17

C	-0.141546	-0.028878	-1.537268
C	0.0	0.0	0.0
Br	0.218686	2.002778	-2.135967
H	1.089608	0.0	0.0
N	0.896811	-0.834727	-1.984342
H	1.027306	-0.82699	-2.985957
H	1.768753	-0.628101	-1.441257
N	-1.459682	-0.222924	-2.060484
H	-1.442644	-0.220777	-3.074001
H	-1.811325	-1.110139	-1.717061
N	-0.465438	-1.353607	0.48285
O	0.365824	-2.150058	0.906956
O	-1.683891	-1.577559	0.442247
N	-0.685383	0.991903	0.7548
H	-0.069865	1.788566	0.839029
H	-1.526914	1.278375	0.268319
F	2.658423	0.0	0.0
