17

C	0.01136	0.062293	-1.539561
C	0.0	0.0	0.0
Br	-1.777265	0.318153	-2.382029
H	1.094202	0.0	0.0
N	0.792208	1.253253	-1.821664
H	0.945938	1.311987	-2.822681
H	1.692544	1.0602	-1.349793
N	0.542363	-1.195966	-2.018262
H	0.743967	-1.11015	-3.009608
H	1.434062	-1.292435	-1.519603
N	-0.590176	-1.274204	0.474125
O	-1.809501	-1.281037	0.661883
O	0.14855	-2.239668	0.650624
N	-0.582219	1.091131	0.71306
H	-1.48345	1.324966	0.308126
H	0.03709	1.881539	0.59387
F	2.659814	0.0	0.0
