17

C	-0.310136	-0.057802	-1.49995
C	0.0	0.0	0.0
Br	-0.08126	1.853985	-2.233769
H	1.091332	0.0	0.0
N	0.64784	-0.925519	-2.053715
H	0.693438	-0.866739	-3.062583
H	1.562369	-0.749045	-1.609176
N	-1.699419	-0.33877	-1.800227
H	-1.875018	-0.181488	-2.785068
H	-1.861925	-1.321045	-1.598008
N	-0.434452	-1.369621	0.545039
O	-1.561317	-1.447667	1.057068
O	0.345802	-2.313429	0.467202
N	-0.611581	1.056074	0.71112
H	-0.133087	1.181396	1.59319
H	-1.593076	0.866856	0.867169
F	2.624875	0.0	0.0
