13

C	-0.533547	0.030915	-1.425336
C	0.0	0.0	0.0
Cl	0.175389	-1.265538	-2.39737
H	1.091175	0.0	0.0
H	-0.334937	0.899245	0.52347
C	-1.993816	-0.061843	-1.480062
N	-3.166684	-0.144248	-1.485681
N	-0.168235	1.369955	-2.092827
O	-0.715681	1.582559	-3.168286
O	0.626497	2.084222	-1.503411
C	-0.505124	-1.180774	0.688503
N	-0.934897	-2.12018	1.246165
Cl	3.281945	0.0	0.0
