13

C	-0.479748	-0.057588	-1.448695
C	0.0	0.0	0.0
Cl	0.129422	-1.477715	-2.275206
H	1.094264	0.0	0.0
H	-0.345588	0.941381	0.436122
C	-1.937051	-0.006033	-1.567127
N	-3.109457	0.022313	-1.647502
N	0.052461	1.238068	-2.124907
O	0.89697	1.149924	-2.995687
O	-0.456648	2.25814	-1.672353
C	-0.531145	-1.118097	0.761066
N	-0.996094	-2.0056	1.373418
Cl	3.217591	0.0	0.0
