13

C	-0.528275	0.014597	-1.425063
C	0.0	0.0	0.0
Cl	0.230069	-1.288329	-2.351429
H	1.09136	0.0	0.0
H	-0.30298	-0.956558	0.439254
C	-1.982137	-0.126055	-1.49573
N	-3.148436	-0.272337	-1.498208
N	-0.185554	1.340627	-2.139989
O	-0.718106	1.497	-3.23218
O	0.579862	2.098845	-1.568137
C	-0.573889	1.079254	0.791973
N	-1.075024	1.920714	1.439698
Cl	3.251233	0.0	0.0
