13

C	-0.479082	-0.018567	-1.447939
C	0.0	0.0	0.0
Cl	0.116158	1.36362	-2.345616
H	1.092791	0.0	0.0
H	-0.341418	-0.917691	0.48685
C	-0.098881	-1.258565	-2.119151
N	0.175822	-2.256323	-2.675363
N	-2.035689	-0.009569	-1.423864
O	-2.630836	0.991909	-1.782091
O	-2.525077	-1.039317	-0.974983
C	-0.532563	1.155943	0.706687
N	-0.98004	2.076283	1.282646
Cl	3.220635	0.0	0.0
