15

C	0.0	0.0	0.0
C	-0.504585	-0.025048	-1.453302
F	1.377194	0.0	0.0
H	-0.080207	0.870339	-1.925045
C	-0.434928	1.238508	0.671495
N	-0.687687	2.262866	1.187549
C	-0.445465	-1.185661	0.750761
N	-0.729987	-2.159394	1.342824
C	-2.031918	-0.009903	-1.529776
H	-2.350994	-0.076078	-2.570679
H	-2.452038	0.895453	-1.093948
H	-2.488036	-0.836532	-0.986703
C	0.080637	-1.191761	-2.121176
N	0.537907	-2.121409	-2.674191
Cl	-4.942377	0.0	0.0
