15

C	0.0	0.0	0.0
C	-0.468522	0.196008	-1.454182
F	1.365293	0.0	0.0
H	-1.558799	0.32877	-1.393682
C	-0.427894	1.096742	0.889363
N	-0.546186	1.99334	1.639134
C	-0.428789	-1.307426	0.534315
N	-0.52314	-2.406131	0.940687
C	-0.126987	-1.023829	-2.312839
H	0.935264	-1.270207	-2.247412
H	-0.719793	-1.877273	-1.979989
H	-0.374974	-0.819442	-3.355857
C	0.152559	1.404838	-1.992441
N	0.632954	2.356601	-2.487045
Cl	-3.23114	0.0	0.0
