15

C	0.0	0.0	0.0
C	-0.202733	-0.290405	-1.550373
F	1.376602	0.0	0.0
H	0.627062	0.307852	-1.945005
C	-0.450008	1.351798	0.352384
N	-0.531688	2.500985	0.587311
C	-0.460704	-1.032827	0.928235
N	-0.57718	-1.884283	1.730732
C	-1.420862	0.087363	-2.388494
H	-1.762437	1.087748	-2.131427
H	-1.089767	0.067467	-3.434269
H	-2.252891	-0.587808	-2.237124
C	0.178307	-1.68721	-1.785392
N	0.486627	-2.794803	-2.026993
Cl	-3.147928	0.0	0.0
