15

C	0.0	0.0	0.0
C	-0.485707	0.153024	-1.453354
F	1.377019	0.0	0.0
H	-1.565817	0.351394	-1.373296
C	-0.410173	1.142638	0.839029
N	-0.52084	2.103772	1.505434
C	-0.423021	-1.278708	0.599549
N	-0.532396	-2.346586	1.077763
C	-0.253627	-1.122367	-2.26296
H	0.788285	-1.446745	-2.205628
H	-0.507406	-0.942738	-3.309237
H	-0.905842	-1.909921	-1.882053
C	0.199267	1.295532	-2.054515
N	0.74525	2.191029	-2.583861
Cl	-3.256354	0.0	0.0
