15

C	0.0	0.0	0.0
C	-0.480143	0.169896	-1.455798
F	1.377104	0.0	0.0
H	-1.554283	0.396462	-1.383676
C	-0.414454	1.131514	0.850863
N	-0.539742	2.073098	1.542161
C	-0.424782	-1.283752	0.584376
N	-0.51684	-2.358414	1.05016
C	-0.28247	-1.11103	-2.265877
H	-0.513019	-0.92128	-3.315781
H	-0.969991	-1.873355	-1.895521
H	0.745324	-1.474795	-2.192986
C	0.238945	1.293752	-2.052787
N	0.811494	2.174117	-2.579676
Cl	-3.243997	0.0	0.0
