14
Coordinates from ORCA-job run
  C   -0.83264086222331      0.43687845047101      0.51834285919675
  C   0.64326959941666      0.17012928325064      0.23033208788632
  Br  -1.10067837965668      1.97663164706969      1.64015786210429
  H   1.06588319755116      1.08766416137394     -0.19179734353053
  H   -1.32955877172035     -0.41310099970488      0.98325299434888
  N   -1.52751030566069      0.65680597585501     -0.79845123029301
  O   -2.45183799269919     -0.10874241253283     -1.05703394005059
  O   -1.08655301513971      1.54455823939771     -1.51827110551653
  C   0.81424943408662     -0.98943695498135     -0.76034329603816
  H   1.87501989095375     -1.20306340422481     -0.89614765799766
  H   0.39408294855194     -0.72803175444104     -1.73227611844378
  H   0.32599555095056     -1.89365120934033     -0.39108876106315
  C   1.32670444401041     -0.12733982439859      1.48894842714597
  N   1.88357426157881     -0.40930119779415      2.48337522225121
