14
Coordinates from ORCA-job run
  C   -0.89211078926282      0.34693163433347      0.48588375429403
  C   0.61410683657788      0.18612663268831      0.29092498780067
  Br  -1.33220069628167      1.77427294671660      1.69875339616903
  H   1.00860928898155      1.15703708048977     -0.02574107654745
  H   -1.36819607459784     -0.56386826932326      0.84560221088797
  N   -1.50392150441847      0.63405586568366     -0.85885843039633
  O   -2.36035859967708     -0.15707648009133     -1.24367360068408
  O   -1.06728123019112      1.59950720840209     -1.47350981640800
  C   0.92470796707884     -0.87759771785696     -0.77084318437623
  H   2.00318580076945     -1.02456298520846     -0.83988779156157
  H   0.56263238901005     -0.55920628086998     -1.74923227862373
  H   0.46359180393627     -1.83305665474558     -0.51200848468406
  C   1.22290179978669     -0.17531082012457      1.57082554884049
  N   1.72333300828827     -0.50725216009376      2.57976476528925
