14
Coordinates from ORCA-job run
  C   -0.72074712012728      0.85946033481013      0.31409662377573
  C   0.64461250126938      0.16508449765997      0.43206481213596
  Br  -0.60950251741623      2.48333376504186     -0.70946151842141
  H   1.32050944579985      0.91747494788837      0.85459832756866
  H   -1.11974780689353      1.11395272879152      1.29388559133133
  N   -1.72648722290230     -0.08954898893336     -0.29276601740951
  O   -1.72726519282268     -0.23953116013864     -1.50764011062360
  O   -2.42697633248984     -0.68226623332204      0.52482586626368
  C   1.22737534761287     -0.35380418167491     -0.88556474874295
  H   0.63004336010410     -1.17101460429798     -1.28759659410091
  H   1.26984593809428      0.44572763161847     -1.62452466727475
  H   2.23900112905479     -0.72132060212450     -0.70673538318979
  C   0.53443503658569     -0.92166182442038      1.41142165620462
  N   0.46390343413092     -1.80388631089850      2.18339616248294
