14
Coordinates from ORCA-job run
  C   -0.90793962726332      0.31312307863380      0.48028130013591
  C   0.60450758366560      0.20272422303418      0.29893973811616
  Br  -1.40563614475848      1.71293027427081      1.70248169974052
  H   0.97127970626568      1.18895950483197     -0.00352114206578
  H   -1.35780733652559     -0.61619029488329      0.82599204831294
  N   -1.51519149848788      0.59390087038777     -0.86814788003632
  O   -2.34017120130457     -0.22176280110548     -1.27015821821392
  O   -1.10493551253488      1.57997955247577     -1.46802630444863
  C   0.96077296117822     -0.83908159236189     -0.77002512410047
  H   0.53188019173881     -1.81285871074481     -0.52438640153572
  H   0.59583112495915     -0.52432720048542     -1.74858681189160
  H   2.04443334569654     -0.94650455638146     -0.83097477044924
  C   1.21158780335304     -0.15200351152597      1.58177711256253
  N   1.71138860401768     -0.47688883614598      2.59335475387362
