15

C	-0.226893	-0.037744	-1.495204
C	0.0	0.0	0.0
Br	-2.178146	-0.170548	-2.023526
H	1.09824	0.0	0.0
C	0.271304	1.173201	-2.146228
N	0.645309	2.14737	-2.686817
C	0.412309	-1.21296	-2.089867
N	0.903569	-2.152143	-2.597614
C	-0.433719	-1.263692	0.727745
H	-0.158437	-1.165385	1.779665
H	-1.509358	-1.454571	0.655686
H	0.120158	-2.115193	0.325482
C	-0.550703	1.202553	0.579685
N	-1.002277	2.162054	1.090534
F	2.465174	0.0	0.0
