15

C	-0.37339	-0.008068	-1.492365
C	0.0	0.0	0.0
Br	0.51187	-1.52022	-2.403604
H	1.096007	0.0	0.0
C	-1.811745	-0.17461	-1.716281
N	-2.972576	-0.323568	-1.835835
C	0.0872	1.211407	-2.158763
N	0.432394	2.184438	-2.721036
C	-0.486316	-1.227999	0.760111
H	-0.016929	-2.120546	0.344265
H	-0.149765	-1.134789	1.794734
H	-1.575805	-1.345576	0.751608
C	-0.521428	1.220572	0.585689
N	-0.95771	2.196871	1.07851
F	2.495874	0.0	0.0
