15

C	-0.225248	-0.035298	-1.495706
C	0.0	0.0	0.0
Br	-2.174875	-0.169868	-2.025372
H	1.098269	0.0	0.0
C	0.271243	1.178272	-2.14391
N	0.638174	2.162075	-2.671884
C	0.415896	-1.210114	-2.090422
N	0.87887	-2.16893	-2.588513
C	-0.433328	-1.265569	0.724721
H	-1.509467	-1.453124	0.658645
H	-0.151983	-1.172696	1.775423
H	0.114974	-2.116628	0.316364
C	-0.549604	1.202465	0.580763
N	-0.975638	2.177141	1.084674
F	2.465695	0.0	0.0
