15

C	-0.3689	-0.014238	-1.493961
C	0.0	0.0	0.0
Br	0.533297	-1.519852	-2.400062
H	1.096	0.0	0.0
C	-1.804782	-0.195782	-1.722317
N	-2.964096	-0.354565	-1.84443
C	0.079986	1.208284	-2.162618
N	0.405559	2.186731	-2.72705
C	-0.479389	-1.231659	0.758984
H	-0.166171	-1.12689	1.799797
H	0.015067	-2.11715	0.357935
H	-1.565893	-1.369194	0.729281
C	-0.530423	1.217897	0.582248
N	-0.975218	2.193196	1.069405
F	2.495942	0.0	0.0
