15

C	-0.353889	-0.022013	-1.494264
C	0.0	0.0	0.0
Br	0.31415	1.60862	-2.374659
H	1.09593	0.0	0.0
C	0.282034	-1.165122	-2.154154
N	0.737803	-2.095707	-2.709165
C	-1.797716	-0.083162	-1.740427
N	-2.963222	-0.151918	-1.883962
C	-0.426107	-1.29795	0.687834
H	-1.501866	-1.497371	0.627665
H	0.131587	-2.129799	0.253105
H	-0.138179	-1.231765	1.738914
C	-0.593851	1.15611	0.637051
N	-1.07809	2.065464	1.205621
F	2.494175	0.0	0.0
