17

C	0.0	0.0	0.0
C	-0.375696	0.245038	-1.480418
F	1.389887	0.0	0.0
H	0.101798	-0.56852	-2.039461
C	-0.56258	1.021136	0.958185
H	-0.162839	0.842222	1.958332
H	-0.280964	2.024792	0.633558
H	-1.652178	0.928597	0.981357
C	-0.399783	-1.369112	0.382247
N	-0.625693	-2.478337	0.693951
C	0.273703	1.486785	-1.914961
N	0.770056	2.48612	-2.280825
C	-1.873132	0.273706	-1.772616
H	-2.388396	-0.588147	-1.349366
H	-2.029013	0.284219	-2.854137
H	-2.362083	1.144223	-1.340873
Cl	-4.620416	0.0	0.0
