17

C	0.0	0.0	0.0
C	-0.388657	0.202238	-1.482158
F	1.389723	0.0	0.0
H	0.064827	-0.63882	-2.020743
C	-0.551153	1.055406	0.929399
H	-0.158743	0.895988	1.935589
H	-0.247342	2.043986	0.578254
H	-1.643057	0.986968	0.952516
C	-0.407609	-1.353159	0.424182
N	-0.656678	-2.447996	0.767704
C	0.274619	1.416616	-1.970693
N	0.782861	2.391975	-2.381958
C	-1.89204	0.247385	-1.749459
H	-2.427649	-0.544518	-1.226428
H	-2.343963	1.177115	-1.411657
H	-2.0679	0.137045	-2.821331
Cl	-4.667793	0.0	0.0
