16

C	-0.539999	0.024316	-1.426584
C	0.0	0.0	0.0
Cl	-0.057537	-1.469517	-2.318674
H	1.100125	0.0	0.0
H	-0.032359	0.840503	-1.93998
C	-2.045155	0.180072	-1.507057
H	-2.323554	1.122295	-1.032484
H	-2.538965	-0.641747	-0.988324
H	-2.378027	0.197586	-2.54698
N	-0.550778	-1.142182	0.744891
H	-0.322068	-1.988648	0.231688
H	-0.015662	-1.199541	1.606868
N	-0.405653	1.255692	0.630173
H	-1.223533	1.07255	1.202595
H	0.348121	1.572643	1.228042
Br	3.659144	0.0	0.0
