16

C	-0.351579	0.061186	-1.480275
C	0.0	0.0	0.0
Cl	-2.164936	0.022522	-1.701292
H	1.097953	0.0	0.0
H	-0.002826	-0.860146	-1.952188
C	0.224123	1.275167	-2.17008
H	1.306282	1.264248	-2.007744
H	0.015025	1.259351	-3.24249
H	-0.18461	2.180199	-1.723097
N	-0.419789	-1.237103	0.661427
H	0.31135	-1.930195	0.552771
H	-1.26982	-1.594336	0.23968
N	-0.466897	1.199796	0.674056
H	-1.434082	1.053473	0.945176
H	0.067867	1.277534	1.531676
Br	3.609359	0.0	0.0
