16

C	-0.480139	0.001506	-1.457498
C	0.0	0.0	0.0
Cl	0.125319	-1.47475	-2.305361
H	1.101363	0.0	0.0
H	0.010536	0.835397	-1.966369
C	-1.988026	0.056843	-1.63053
H	-2.387341	0.989313	-1.219225
H	-2.254477	0.016845	-2.688626
H	-2.448465	-0.781896	-1.10804
N	-0.589758	-1.132324	0.713234
H	-0.277426	-1.033286	1.673299
H	-0.161941	-1.980371	0.356243
N	-0.389312	1.200862	0.721985
H	0.175031	1.985738	0.417404
H	-1.373297	1.409246	0.59534
Br	3.714648	0.0	0.0
