16

C	-0.513397	-0.075754	-1.436702
C	0.0	0.0	0.0
Cl	-0.298117	1.502253	-2.302337
H	1.101417	0.0	0.0
H	-1.595576	-0.23996	-1.413277
C	0.211163	-1.153918	-2.215836
H	1.283045	-0.946854	-2.213637
H	-0.150658	-1.205726	-3.245336
H	0.038669	-2.10926	-1.719649
N	-0.425632	-1.239175	0.648686
H	-1.261892	-1.030636	1.18449
H	0.304206	-1.543816	1.281324
N	-0.570053	1.147122	0.717013
H	-0.042433	1.233164	1.581733
H	-0.367219	1.990023	0.190558
Br	3.670157	0.0	0.0
