15

C	-0.501212	-0.009767	-1.432103
C	0.0	0.0	0.0
F	-1.850204	-0.442975	-1.440115
H	1.088264	0.0	0.0
H	0.066964	-0.787203	-1.944026
N	-0.309873	1.226707	-2.071327
H	-0.416182	1.143609	-3.070923
H	-0.930877	1.927928	-1.694872
N	-0.45823	-1.265293	0.660795
O	-0.071335	-2.291984	0.11597
O	-1.177497	-1.197027	1.65155
N	-0.483883	1.136987	0.828169
O	-1.436721	1.804004	0.414293
O	0.101829	1.31763	1.88898
Br	3.36776	0.0	0.0
