15

C	-0.48172	-0.089061	-1.437461
C	0.0	0.0	0.0
F	-1.805011	-0.583229	-1.458838
H	1.089577	0.0	0.0
H	0.135321	-0.849783	-1.916032
N	-0.340841	1.140768	-2.109022
H	-0.403325	1.018397	-3.10778
H	-1.033467	1.800824	-1.786623
N	-0.445879	-1.225135	0.736292
O	-0.093031	-2.282225	0.229038
O	-1.110547	-1.097574	1.75904
N	-0.51103	1.178235	0.746604
O	0.130513	1.523827	1.729443
O	-1.552794	1.708689	0.351145
Br	3.371047	0.0	0.0
