15

C	-0.515605	0.019143	-1.433237
C	0.0	0.0	0.0
F	-0.151827	-1.211642	-1.994057
H	1.087959	0.0	0.0
H	0.055369	0.782448	-1.963068
N	-1.901311	0.291744	-1.532207
H	-2.170067	0.404402	-2.49949
H	-2.426549	-0.461092	-1.108502
N	-0.496118	-1.155082	0.801534
O	0.191823	-1.482661	1.760348
O	-1.562627	-1.681964	0.473202
N	-0.457161	1.250705	0.678558
O	-0.074817	2.286586	0.150183
O	-1.16698	1.160392	1.674363
Br	3.368376	0.0	0.0
