15

C	-0.393675	0.039465	-1.463657
C	0.0	0.0	0.0
F	-1.769429	0.162851	-1.615589
H	1.090474	0.0	0.0
H	-0.136438	-0.92872	-1.901505
N	0.246511	1.173284	-2.052867
H	0.311869	1.050636	-3.054879
H	1.186627	1.280244	-1.681904
N	-0.467187	-1.219893	0.714342
O	-0.766086	-2.200183	0.035229
O	-0.443777	-1.17634	1.939012
N	-0.533647	1.197114	0.70357
O	-1.701585	1.146659	1.08254
O	0.219561	2.160511	0.79695
Br	3.354891	0.0	0.0
