15

C	-0.523337	0.013914	-1.428887
C	0.0	0.0	0.0
F	-0.160221	-1.218239	-1.989612
H	1.08798	0.0	0.0
H	0.040887	0.778739	-1.963439
N	-1.910684	0.282379	-1.517607
H	-2.188225	0.394636	-2.482516
H	-2.432006	-0.468735	-1.086204
N	-0.494713	-1.149931	0.808349
O	0.189018	-1.469305	1.774446
O	-1.56012	-1.681274	0.480767
N	-0.454948	1.251563	0.676627
O	-0.074119	2.287451	0.14543
O	-1.160072	1.164095	1.678408
Br	3.383401	0.0	0.0
