15

C	-0.510702	0.019652	-1.434965
C	0.0	0.0	0.0
F	-0.132654	-1.205554	-2.000112
H	1.087956	0.0	0.0
H	0.054188	0.790436	-1.959792
N	-1.897551	0.280018	-1.537515
H	-2.420648	-0.48033	-1.124889
H	-2.165182	0.407143	-2.50346
N	-0.492558	-1.157862	0.797045
O	0.18845	-1.479973	1.763287
O	-1.55027	-1.695489	0.458032
N	-0.465504	1.246143	0.676195
O	-1.176806	1.149015	1.67132
O	-0.085848	2.286319	0.155573
Br	3.379397	0.0	0.0
