15

C	-0.440042	-0.062184	-1.451367
C	0.0	0.0	0.0
F	-0.008172	1.132865	-2.044092
H	1.087793	0.0	0.0
H	-1.525939	-0.077527	-1.556521
N	0.157845	-1.212066	-2.006867
H	-0.049946	-1.291135	-2.993051
H	1.16554	-1.192285	-1.861151
N	-0.527704	-1.201702	0.71321
O	-1.734192	-1.187547	0.965719
O	0.250255	-2.110838	0.959344
N	-0.542023	1.177304	0.731256
O	-0.046035	1.385007	1.835491
O	-1.456867	1.819863	0.219481
Br	3.400386	0.0	0.0
