15

C	-0.452587	-0.054168	-1.446604
C	0.0	0.0	0.0
F	-0.028319	1.145215	-2.036728
H	1.087795	0.0	0.0
H	-1.539149	-0.071245	-1.538851
N	0.138889	-1.200685	-2.015087
H	1.147563	-1.180266	-1.881995
H	-0.081414	-1.276493	-2.998561
N	-0.522797	-1.207529	0.708517
O	-1.730373	-1.20224	0.958114
O	0.261025	-2.112963	0.953367
N	-0.540679	1.172458	0.739615
O	-1.479804	1.794483	0.249826
O	-0.017888	1.399163	1.826498
Br	3.401961	0.0	0.0
