15

C	0.0	0.0	0.0
C	-0.382721	0.365126	-1.459928
F	1.39409	0.0	0.0
H	-0.233092	1.45378	-1.557355
H	-0.294726	0.790618	0.696655
N	-0.497521	-1.278481	0.364712
H	-0.915957	-1.260838	1.283521
H	-1.222408	-1.548258	-0.296944
N	-1.713619	-0.10447	-1.737197
H	-2.023334	0.22388	-2.641273
H	-2.426158	0.145575	-1.047065
N	0.479592	-0.256593	-2.461618
H	1.448203	-0.091644	-2.206999
H	0.315643	-1.257546	-2.397852
Br	-4.582098	0.0	0.0
