15

C	0.0	0.0	0.0
C	-0.370876	0.056221	-1.500814
F	1.379568	0.0	0.0
H	0.346512	0.783102	-1.90611
H	-0.293933	0.949614	0.471382
N	-0.530301	-1.158928	0.658049
H	-0.338738	-1.098848	1.651665
H	-1.545339	-1.11763	0.554791
N	-1.685864	0.54097	-1.86356
H	-2.441776	0.055416	-1.382459
H	-1.792301	1.516195	-1.60737
N	-0.098208	-1.246835	-2.095594
H	-0.369503	-1.966811	-1.436394
H	-0.695794	-1.316045	-2.910812
Br	-4.402292	0.0	0.0
