15

C	0.0	0.0	0.0
C	-0.50438	0.065032	-1.461744
F	1.420854	0.0	0.0
H	0.401172	0.143781	-2.076203
H	-0.261462	0.918269	0.532219
N	-0.505986	-1.109314	0.694388
H	-0.121875	-1.19134	1.624164
H	-0.392011	-1.953432	0.152226
N	-1.353087	1.214461	-1.761992
H	-2.236015	1.09225	-1.259953
H	-0.922195	2.067288	-1.422369
N	-1.172695	-1.178959	-1.799836
H	-1.428222	-1.117877	-2.778555
H	-2.052301	-1.191532	-1.277272
Br	-4.254685	0.0	0.0
