15

C	0.0	0.0	0.0
C	-0.391466	-0.192433	-1.456683
F	1.416743	0.0	0.0
H	-1.482459	-0.140208	-1.478962
H	-0.314857	0.99089	0.330238
N	-0.492251	-0.98928	0.888179
H	-0.544976	-1.861333	0.371855
H	-1.450397	-0.72544	1.114513
N	0.003708	-1.546902	-1.854336
H	1.013144	-1.583155	-1.945634
H	-0.405146	-1.777033	-2.749857
N	0.152582	0.910775	-2.242536
H	1.164285	0.863355	-2.209481
H	-0.141395	0.820282	-3.206976
Br	-3.821261	0.0	0.0
