14
Coordinates from ORCA-job run
  C   0.44160350665646     -0.11362666598489     -0.48917692562398
  C   -1.01773266707209      0.21204095299967     -0.07303677418784
  F   0.41993661601580     -0.22536978701630     -1.86791743848941
  H   -1.63434343201505     -0.62240379404624     -0.43009577696060
  C   0.92586271470703     -1.42080529309704      0.10358524705774
  H   0.24690088660418     -2.22422751421181     -0.19030312831073
  H   1.92001552428493     -1.63864802151151     -0.28832008187006
  H   0.97773810731225     -1.36405352073964      1.19150934283343
  C   1.32674809416990      1.00370949944742     -0.12440147736509
  N   2.04845766617121      1.87708065873074      0.18529973618238
  C   -1.48418623984006      1.44396335207248     -0.71600349639291
  N   -1.85573771596512      2.42551842298871     -1.24187286927827
  C   -1.12858938695196      0.30046789978932      1.38452614758841
  N   -1.18667367407748      0.34535381057908      2.55620749481693
