14
Coordinates from ORCA-job run
  C   0.58643429521519      0.14672973135292     -0.42670112804016
  C   -0.75836394613605      0.79315888970129      0.01109492163322
  F   0.70499908125384      0.41143668190854     -1.77946154393495
  H   -0.70290567321355      1.86004748859921     -0.23743832420569
  C   0.63660593683377     -1.34903288372925     -0.20411633527795
  H   0.54464293562749     -1.58733315362922      0.85681292912642
  H   -0.17344740895851     -1.82489945843322     -0.75953025380123
  H   1.58983325374397     -1.72986864704251     -0.57254899303797
  C   1.68022663631148      0.83780356620768      0.27622646611581
  N   2.55077077178823      1.38386511517211      0.84502720386805
  C   -0.95554083798269      0.64454322101543      1.45447316024183
  N   -1.08664394425326      0.51158832025514      2.61371821156117
  C   -1.86920712600259      0.19559276415709     -0.73568863745071
  N   -2.74740397422732     -0.29363163553520     -1.34186767679785
