19

C	0.0	0.0	0.0
C	-0.558639	0.08405	-1.42574
Cl	1.800881	0.0	0.0
H	-1.653041	0.164987	-1.248201
N	-0.485127	1.153008	0.710882
H	-1.515826	1.087142	0.616328
H	-0.268861	1.028919	1.695785
C	-0.442148	-1.318362	0.625783
H	-0.127796	-1.32805	1.673736
H	-1.539602	-1.3262	0.573414
H	-0.008999	-2.189543	0.130005
C	-0.226381	-1.081726	-2.332582
H	-0.776896	-1.961746	-1.997442
H	0.843264	-1.2938	-2.346957
H	-0.545189	-0.857756	-3.352794
N	-0.13593	1.359716	-2.078468
O	-0.852507	2.347578	-1.931939
O	0.901658	1.345065	-2.749176
H	-3.132596	0.0	0.0
