19

C	0.0	0.0	0.0
C	-0.508535	0.00992	-1.465983
Cl	1.803819	0.0	0.0
H	-1.593685	0.198641	-1.324263
N	-0.492153	1.09244	0.78985
H	-0.331123	1.959489	0.287089
H	-1.51936	0.945023	0.778943
C	-0.45577	-1.284089	0.67553
H	-1.549947	-1.313237	0.588733
H	0.004639	-2.168665	0.234777
H	-0.174431	-1.215718	1.727584
C	-0.279637	-1.254224	-2.26434
H	-0.917256	-2.039276	-1.856957
H	-0.564854	-1.095302	-3.30595
H	0.764383	-1.570888	-2.240037
N	0.062087	1.182361	-2.187876
O	-0.312924	2.305244	-1.840621
O	0.887725	0.989368	-3.081877
H	-3.115562	0.0	0.0
