19

C	0.0	0.0	0.0
C	-0.224691	-0.097396	-1.548003
Cl	1.8451	0.0	0.0
H	0.301306	0.765636	-1.951851
N	-0.555988	1.264982	0.385484
H	-1.586491	1.093095	0.328878
H	-0.352596	1.412494	1.372768
C	-0.470808	-1.165711	0.841169
H	-0.027741	-2.112501	0.53616
H	-0.209421	-0.961415	1.884826
H	-1.566196	-1.185517	0.748661
C	-1.625755	-0.158758	-2.125546
H	-2.17434	-1.026868	-1.77774
H	-2.211977	0.698694	-1.807186
H	-1.528969	-0.170783	-3.217753
N	0.506875	-1.265558	-2.151408
O	0.200195	-2.399765	-1.78639
O	1.32747	-1.021209	-3.037106
H	-3.324874	0.0	0.0
