19

C	0.0	0.0	0.0
C	-0.219073	-0.07792	-1.552423
Cl	1.845049	0.0	0.0
H	0.320554	0.786495	-1.935231
N	-0.546636	1.278728	0.369599
H	-1.572297	1.106094	0.426468
H	-0.222233	1.520201	1.301342
C	-0.489771	-1.163965	0.828354
H	-0.049001	-2.110429	0.518598
H	-1.584465	-1.177999	0.715213
H	-0.247271	-0.972079	1.87835
C	-1.619468	-0.103175	-2.128983
H	-2.183949	-0.972309	-1.806538
H	-2.19168	0.754186	-1.785436
H	-1.521403	-0.083398	-3.222114
N	0.499438	-1.238455	-2.179873
O	1.309888	-0.982265	-3.071758
O	0.193076	-2.37685	-1.829027
H	-3.386778	0.0	0.0
