19

C	0.0	0.0	0.0
C	-0.234185	-0.143619	-1.539648
Cl	1.844943	0.0	0.0
H	0.295099	0.703673	-1.974455
N	-0.539264	1.287073	0.35114
H	-0.293649	1.476804	1.319867
H	-1.567793	1.134377	0.33071
C	-0.488917	-1.128199	0.877723
H	-1.585373	-1.124144	0.788195
H	-0.077756	-2.0956	0.59919
H	-0.220302	-0.902461	1.91443
C	-1.64335	-0.215024	-2.093789
H	-2.220321	0.659085	-1.806013
H	-2.198798	-1.060537	-1.699116
H	-1.562064	-0.273866	-3.186475
N	0.484174	-1.333208	-2.111542
O	1.306261	-1.121295	-3.003434
O	0.163055	-2.452931	-1.717356
H	-3.39284	0.0	0.0
