19

C	0.0	0.0	0.0
C	-0.248157	-0.012767	-1.549804
Cl	1.797131	0.0	0.0
H	0.366652	0.801908	-1.929784
N	-0.550428	1.253433	0.454438
H	-1.577514	1.094158	0.4194
H	-0.31278	1.358464	1.437569
C	-0.500337	-1.196744	0.784035
H	-1.593953	-1.196338	0.68507
H	-0.239498	-1.045268	1.836836
H	-0.07612	-2.138791	0.441906
C	-1.649191	0.111332	-2.11489
H	-1.562328	0.085281	-3.208873
H	-2.323799	-0.654604	-1.745559
H	-2.090505	1.05673	-1.808675
N	0.354873	-1.229015	-2.19371
O	-0.119716	-2.32984	-1.915496
O	1.248706	-1.049243	-3.023543
H	-3.391346	0.0	0.0
