10
Coordinates from ORCA-job run
  C   -0.62690146960519     -0.59116366366594      0.16235569104816
  C   0.56585792131902     -0.17564880562518     -0.70721383717774
  Br  -0.02176295771666     -1.51298890518501      1.76790109140085
  H   1.14351459201142     -1.06601548187904     -0.96786513005977
  H   -1.23489235698874     -1.31440140878922     -0.38489375322066
  H   0.18498972914768      0.26579480957480     -1.63434643049329
  C   -1.45376752362400      0.55148708561373      0.52716710745810
  N   -2.12356911503113      1.48095910938083      0.78728460962418
  C   1.43484710209229      0.78981590126548     -0.03939738865282
  N   2.13168407839532      1.57116135930954      0.49000804007298
