10
Coordinates from ORCA-job run
  C   -0.70256470877629     -0.44192494838341     -0.05111836396954
  C   0.81861643840246     -0.30643682469717     -0.20759017004479
  Br  -1.13783558231358     -2.27935829331997      0.43520065660226
  H   1.17133855202786     -1.04564124819246     -0.93071330401899
  H   -1.20184868667881     -0.25537232352106     -1.00350871652786
  H   1.30690279299389     -0.50994575071213      0.74846198530889
  C   -1.22383869817918      0.46946501524508      0.95874256448665
  N   -1.62329452575338      1.21695201800317      1.77228490748274
  C   1.16729700300924      1.03658342555634     -0.66932183437260
  N   1.42422741526778      2.11567893002163     -1.05243772494675
