10
Coordinates from ORCA-job run
  C   -0.64538077457586     -0.52315660487009      0.04145893542435
  C   0.86432087618322     -0.24653689600397      0.01002739438364
  Br  -0.98691001743031     -2.10642111483824      1.12680877966568
  H   1.22060693755287     -0.03074176569927      1.02013913365111
  H   -1.01032081686827     -0.75924848791914     -0.95969428383840
  H   1.38427145496508     -1.13847139070795     -0.34765429128041
  C   -1.39067501276103      0.60857106894647      0.57586303744886
  N   -1.97274257173075      1.53563141782261      1.00229963328387
  C   1.15975956865200      0.88036013654856     -0.87387226093543
  N   1.37807035601304      1.77901363672101     -1.59637607780328
