10
Coordinates from ORCA-job run
  C   -0.63045566853212     -0.38876930802367      0.09555572029346
  C   0.60990136535801      0.48401718379806     -0.14206462095760
  Br  -0.22624447067929     -1.84672929357940      1.32215125457196
  H   0.32563045116929      1.33894220701134     -0.76448389996514
  H   -0.95210604033582     -0.86010021757781     -0.83513857948389
  H   0.97522865373358      0.87079857531837      0.81243994026019
  C   -1.71710104010533      0.41888564375465      0.63384040945086
  N   -2.57372595512209      1.10493072338870      1.05281607637575
  C   1.67213194446572     -0.26212987667940     -0.81109094587707
  N   2.51674076004805     -0.85984563741083     -1.36402535466851
