10
Coordinates from ORCA-job run
  C   -0.70342249477051     -0.44443325287932      0.00500049169120
  C   0.80208362826796     -0.30809325109871     -0.26229413843995
  Br  -1.09688502853351     -2.27499077214640      0.54895321617362
  H   1.10393418917120     -1.05467912737258     -1.00082530792902
  H   -1.27030554796725     -0.27372941807737     -0.91186190359391
  H   1.35869658349386     -0.50004593191238      0.65819028005877
  C   -1.15434473768392      0.48105576768354      1.03547215956921
  N   -1.49609427328138      1.23963766128814      1.86485842418067
  C   1.11381553697737      1.03007426634061     -0.76290700342604
  N   1.34152214432618      2.10520405817446     -1.17458621828455
