10
Coordinates from ORCA-job run
  C   -0.48693223080622     -0.23489639690326      0.51431790843260
  C   0.46434994926603      0.19314056090246     -0.61193479618798
  Br  -0.27445060757311      0.91217505409735      2.07375311908490
  H   0.25922440858875     -0.41684828593137     -1.49783294183656
  H   -0.25162488240754     -1.24637656718486      0.85122159310200
  H   0.27768146116890      1.23758764677423     -0.87328259780725
  C   -1.86800251182944     -0.18550226612748      0.05224909691608
  N   -2.96789775471207     -0.14981756641806     -0.35870351733644
  C   1.86291431200415      0.02296322228064     -0.22781620695404
  N   2.98473785630053     -0.13342540148966      0.07802834258669
