10
Coordinates from ORCA-job run
  C   -0.63995567048220     -0.58271026124817      0.14427145859121
  C   0.59772789587963     -0.19584906727936     -0.67415330618942
  Br  -0.12233708945431     -1.47352431022476      1.79753452278652
  H   0.26687756102182      0.22833239060980     -1.62812702403735
  H   -1.22680887169836     -1.31324332577148     -0.41625550044953
  H   1.17977984928631     -1.09598421856452     -0.88692540171921
  C   -1.47296489528778      0.57454445837987      0.44311405920382
  N   -2.14363023394030      1.51678543882805      0.64925763309438
  C   1.44174098047426      0.77739592890972      0.01406548297374
  N   2.12057047420094      1.56525296636084      0.55721807574584
