10
Coordinates from ORCA-job run
  C   -0.71302906066019     -0.42991592723023     -0.01040421031884
  C   0.79366080312736     -0.31349296076425     -0.28123960433595
  Br  -1.14076249653209     -2.27241669024166      0.46185430069905
  H   1.07587127072500     -1.03485422318677     -1.05182890002419
  H   -1.28113988472053     -0.21075189448060     -0.91618040811066
  H   1.35071051896629     -0.55515806721854      0.62726590994936
  C   -1.13894970702240      0.46215251782666      1.05949114908732
  N   -1.45956528613383      1.19046104697230      1.92371931365956
  C   1.13163369170094      1.03797523460972     -0.72577169881235
  N   1.38157015054945      2.12600096371339     -1.08790585179330
