19
Coordinates from ORCA-job run
  C   -0.79382556685543     -0.47635255848805     -0.16216866073862
  C   0.57040976446175      0.11893926460959     -0.54699910638133
  H   -0.93383650367595     -1.40367293979911     -0.72316628354628
  H   0.45350397181031      0.38965344686646     -1.60544531776012
  C   -1.97797175168022      0.44933729744968     -0.36298344975842
  H   -1.89875195709478      1.34134344578137      0.25518620934971
  H   -2.02783032625191      0.74466553800380     -1.41380020348207
  H   -2.91001281509344     -0.05892651692295     -0.10635208194481
  N   -0.74528187681809     -0.93075680441325      1.26785271028989
  O   -0.43446894035405     -2.10323102007528      1.47511501020811
  O   -0.98264274467719     -0.09778655527266      2.14185609861406
  C   1.68431160042125     -0.92220261102696     -0.44746893932384
  H   2.61178239446463     -0.51929919153881     -0.86200095131859
  H   1.43367893254112     -1.83416033541844     -0.99515644482751
  H   1.87664589841362     -1.20143773110486      0.59107094843509
  C   0.93785016031900      1.38294934517566      0.22773387629158
  H   1.08382035830297      1.16969954619533      1.28861336354463
  H   1.87322514582061      1.78936613879466     -0.16539725885935
  H   0.17839425594580      2.16187224118381      0.14251048120788
