19
Coordinates from ORCA-job run
  C   -0.73508314891096     -0.35556679667688     -0.12984654378722
  C   0.62461367023432      0.27354436636856      0.18258126197311
  H   -0.69529975356610     -0.87150978128820     -1.09298420610977
  H   0.54120340403147      0.73627083124841      1.17335383767847
  C   -1.91257390519274      0.60235375848370     -0.06705533404842
  H   -1.86216047428774      1.31622335109694     -0.88976794526909
  H   -1.91195927931719      1.14511559145366      0.87926883562500
  H   -2.85544786863976      0.05757973203666     -0.15488851899017
  N   -0.96956889275072     -1.45271019157558      0.86477039010736
  O   -1.11400973241963     -1.11459445927923      2.03824502868736
  O   -0.97601960520293     -2.61094057566829      0.45075286741431
  C   0.95549836108190      1.35138900949357     -0.84794771895137
  H   0.24820913232860      2.18213671535536     -0.82289036982646
  H   0.95934685294267      0.93295680146297     -1.85967049631433
  H   1.94992303390066      1.76124138124133     -0.65575852567312
  C   1.72289637503725     -0.78748118070474      0.22665774870261
  H   1.55258453653854     -1.52240713466506      1.01611123320945
  H   1.78570784433249     -1.32267721693291     -0.72590176680573
  H   2.69213944985986     -0.31992420145026      0.41597022237802
