15

C	0.0	0.0	0.0
C	-0.508434	0.046985	-1.427991
F	1.369018	0.0	0.0
H	-0.007993	0.843062	-1.968721
H	-1.597202	0.149235	-1.430342
N	-0.281579	1.40192	0.643843
O	-0.328388	1.422109	1.869112
O	-0.340509	2.378689	-0.0949
N	-0.51608	-1.054061	0.730339
H	-1.533518	-1.066134	0.596631
H	-0.311826	-0.919042	1.713445
N	-0.148768	-1.232921	-2.095546
O	-0.941188	-2.166269	-2.012709
O	0.928412	-1.262251	-2.694767
Br	-3.707451	0.0	0.0
