15

C	0.0	0.0	0.0
C	-0.514906	0.049918	-1.42359
F	1.358098	0.0	0.0
H	-1.605528	-0.030633	-1.415095
H	-0.16645	0.955089	-1.908516
N	-0.277031	1.408776	0.658565
O	-0.351382	1.410093	1.882396
O	-0.296833	2.400169	-0.062234
N	-0.511336	-1.049527	0.741648
H	-1.529399	-1.071659	0.619523
H	-0.295479	-0.916451	1.722381
N	0.065063	-1.093146	-2.179056
O	-0.489469	-2.184597	-2.08602
O	1.070095	-0.86121	-2.855098
Br	-3.695766	0.0	0.0
