15

C	0.0	0.0	0.0
C	-0.566573	-0.083767	-1.410678
F	1.345425	0.0	0.0
H	-0.368885	-1.095787	-1.764841
H	-1.640535	0.115418	-1.383326
N	-0.279292	1.422371	0.59235
O	-0.2565	1.503336	1.81662
O	-0.404913	2.355138	-0.191041
N	-0.532423	-1.017657	0.789338
H	-1.555233	-0.996773	0.685897
H	-0.30583	-0.832974	1.760984
N	0.06	0.824675	-2.412055
O	-0.694326	1.528773	-3.077689
O	1.280133	0.759941	-2.560481
Br	-3.729565	0.0	0.0
