15

C	0.0	0.0	0.0
C	-0.522068	0.053006	-1.419959
F	1.355632	0.0	0.0
H	-0.190649	0.966697	-1.900728
H	-1.611668	-0.043943	-1.404767
N	-0.270876	1.409932	0.665882
O	-0.29675	2.404081	-0.049678
O	-0.326096	1.407034	1.891846
N	-0.508548	-1.050026	0.742498
H	-1.52657	-1.074401	0.625496
H	-0.283806	-0.92275	1.722212
N	0.069857	-1.07507	-2.18816
O	1.044058	-0.814651	-2.897628
O	-0.446966	-2.183473	-2.073277
Br	-3.697056	0.0	0.0
