15

C	0.0	0.0	0.0
C	-0.517146	0.188207	-1.411969
F	1.355477	0.0	0.0
H	-0.153485	1.128931	-1.811179
H	-1.609355	0.122296	-1.405745
N	-0.274253	1.344672	0.789867
O	-0.241704	2.401535	0.167838
O	-0.389769	1.229856	2.004777
N	-0.516268	-1.11371	0.637159
H	-1.535063	-1.115261	0.518408
H	-0.295122	-1.080598	1.625574
N	0.048729	-0.890332	-2.266625
O	-0.552276	-1.959848	-2.315356
O	1.094082	-0.631994	-2.868068
Br	-3.698241	0.0	0.0
