16

C	0.0	0.0	0.0
C	-0.497731	-0.109426	-1.445311
F	1.366874	0.0	0.0
H	-1.591585	-0.01764	-1.433908
C	-0.384367	1.282643	0.648845
N	-0.613296	2.250013	1.274013
N	-0.475687	-1.152982	0.706845
H	-0.203901	-1.06922	1.681038
H	-1.50254	-1.116288	0.666064
N	0.016288	-1.315956	-2.04541
H	-0.673244	-1.685475	-2.685167
H	0.157436	-1.990185	-1.301598
N	-0.023852	1.043379	-2.300161
O	0.630905	1.957145	-1.8053
O	-0.359814	0.969209	-3.478792
Br	-3.661074	0.0	0.0
