16

C	0.0	0.0	0.0
C	-0.494134	0.160414	-1.485096
F	1.392369	0.0	0.0
H	-1.377857	0.796056	-1.462763
C	-0.365286	1.207581	0.77661
N	-0.495241	2.183923	1.414923
N	-0.471178	-1.1505	0.683593
H	-0.379361	-1.956654	0.074817
H	-1.4724	-1.008981	0.84919
N	-0.817906	-1.022962	-2.203682
H	-0.117089	-1.746956	-2.119695
H	-1.733333	-1.334532	-1.897035
N	0.579261	0.915705	-2.218564
O	1.381518	0.268017	-2.883496
O	0.603668	2.133648	-2.053378
Br	-3.570618	0.0	0.0
