16

C	0.0	0.0	0.0
C	-0.439854	0.172395	-1.466869
F	1.414016	0.0	0.0
H	-1.512937	0.39346	-1.437187
C	-0.366465	1.150401	0.852803
N	-0.537905	2.043014	1.595147
N	-0.479398	-1.197577	0.581764
H	-1.462714	-1.043507	0.818092
H	-0.46192	-1.906039	-0.146157
N	-0.162861	-1.015368	-2.201176
H	0.79534	-1.005925	-2.526253
H	-0.785003	-1.090135	-2.993025
N	0.256873	1.392663	-2.054674
O	1.138433	1.206718	-2.895296
O	-0.100875	2.489253	-1.634396
Br	-3.633763	0.0	0.0
