16

C	0.0	0.0	0.0
C	-0.45589	-0.005414	-1.472631
F	1.405987	0.0	0.0
H	-1.531067	0.206247	-1.451178
C	-0.368302	1.2439	0.709984
N	-0.5052	2.227755	1.335202
N	-0.479074	-1.122083	0.720461
H	-0.471306	-1.907072	0.076456
H	-1.458398	-0.938772	0.949245
N	-0.17757	-1.26856	-2.065663
H	-0.809104	-1.439756	-2.835332
H	0.776379	-1.293211	-2.401608
N	0.216104	1.143414	-2.211816
O	1.093248	0.868084	-3.032066
O	-0.156551	2.27743	-1.928342
Br	-3.644887	0.0	0.0
