16

C	-0.621193	0.029521	-1.378165
C	0.0	0.0	0.0
F	-0.082073	-0.901963	-2.215953
H	1.095859	0.0	0.0
C	-2.079124	-0.181417	-1.304896
N	-3.224547	-0.410163	-1.182031
N	-0.394797	1.362922	-2.08711
O	-1.172863	1.626965	-3.002911
O	0.581595	2.021434	-1.757006
N	-0.374121	-1.263856	0.590561
H	0.391226	-1.577744	1.175919
H	-1.234434	-1.208706	1.122606
N	-0.508419	1.194102	0.698416
H	0.27037	1.846063	0.755406
H	-0.730105	0.924485	1.648878
H	2.772027	0.0	0.0
