16

C	-0.593495	-0.042973	-1.39774
C	0.0	0.0	0.0
F	-0.253567	-1.204646	-2.035406
H	1.098397	0.0	0.0
C	-2.059205	0.075535	-1.393592
N	-3.231239	0.137957	-1.352877
N	-0.031355	1.099139	-2.239056
O	1.013795	0.865609	-2.827511
O	-0.66202	2.151948	-2.229965
N	-0.497111	-1.200922	0.695628
H	0.01414	-1.206241	1.575363
H	-0.134538	-2.008371	0.191755
N	-0.426312	1.212539	0.645111
H	-1.224462	1.037638	1.242545
H	0.349071	1.579262	1.183709
H	2.791002	0.0	0.0
