16

C	-0.470998	0.105764	-1.454857
C	0.0	0.0	0.0
F	-0.140164	-1.012929	-2.14443
H	1.096637	0.0	0.0
C	-1.921963	0.32895	-1.561682
N	-3.079919	0.52712	-1.593534
N	0.207347	1.280872	-2.16458
O	-0.139911	2.395188	-1.783045
O	1.025916	1.024799	-3.031058
N	-0.557665	-1.26544	0.480288
H	0.191164	-1.95226	0.442879
H	-0.767121	-1.104399	1.457867
N	-0.412641	1.098782	0.837791
H	0.34354	1.772488	0.869258
H	-1.253443	1.561414	0.517467
H	2.786755	0.0	0.0
