16

C	-0.539725	0.018141	-1.416253
C	0.0	0.0	0.0
F	-0.048187	-1.018749	-2.162962
H	1.096919	0.0	0.0
C	-2.013754	-0.057777	-1.440932
N	-3.177178	-0.213764	-1.383393
N	-0.152623	1.279056	-2.191149
O	-0.669585	1.381644	-3.302841
O	0.659667	2.044939	-1.69321
N	-0.386055	-1.214578	0.685579
H	-1.301923	-1.557518	0.421592
H	0.315349	-1.921741	0.507617
N	-0.569995	1.173312	0.663111
H	-0.794243	0.871632	1.604101
H	0.175405	1.860204	0.734424
H	2.795217	0.0	0.0
