16

C	-0.497968	-0.001238	-1.428542
C	0.0	0.0	0.0
F	0.054431	1.022528	-2.135445
H	1.100945	0.0	0.0
C	-0.265908	-1.268358	-2.126571
N	-0.057278	-2.243552	-2.745461
N	-2.013988	0.252695	-1.438683
O	-2.718597	-0.690614	-1.093609
O	-2.393781	1.381493	-1.721671
N	-0.415498	-1.199175	0.671761
H	0.33577	-1.497331	1.28167
H	-1.267511	-1.043083	1.19654
N	-0.514778	1.219152	0.648358
H	0.030506	1.293405	1.507651
H	-0.211813	2.013569	0.08644
H	2.759645	0.0	0.0
