16

C	-0.597795	-0.02583	-1.395769
C	0.0	0.0	0.0
F	-0.087097	-1.033306	-2.148384
H	1.09349	0.0	0.0
C	-2.064853	-0.163	-1.346253
N	-3.222987	-0.3132	-1.214559
N	-0.279582	1.273871	-2.123927
O	-1.155231	2.132902	-2.156952
O	0.843496	1.348278	-2.598813
N	-0.371501	-1.256733	0.631042
H	-1.161547	-1.144184	1.255787
H	0.433631	-1.579434	1.159806
N	-0.380637	1.243524	0.63566
H	0.380527	1.523994	1.245219
H	-1.235446	1.161436	1.172568
H	2.723214	0.0	0.0
