16

C	-0.501553	-0.006301	-1.425946
C	0.0	0.0	0.0
F	0.031873	1.025895	-2.136773
H	1.100156	0.0	0.0
C	-0.254769	-1.269823	-2.126485
N	-0.043033	-2.229803	-2.76864
N	-2.020931	0.227295	-1.431195
O	-2.408696	1.367991	-1.646021
O	-2.720193	-0.739317	-1.145007
N	-0.414475	-1.205982	0.666356
H	0.333185	-1.494828	1.287092
H	-1.264771	-1.042938	1.191223
N	-0.502383	1.216861	0.662221
H	0.160288	1.376737	1.420485
H	-0.356653	2.003199	0.032274
H	2.747405	0.0	0.0
