13

C	-0.440448	0.153224	-1.444169
C	0.0	0.0	0.0
F	-1.82437	0.136671	-1.537069
H	1.105717	0.0	0.0
H	-0.094172	1.138687	-1.771404
C	0.106749	-0.844582	-2.373703
N	0.488299	-1.552972	-3.227852
N	-0.442337	-1.298235	0.604627
O	-0.560264	-2.253396	-0.15556
O	-0.59879	-1.319909	1.820214
C	-0.506694	1.107454	0.79595
N	-0.911275	2.042729	1.379588
Br	3.261062	0.0	0.0
