13

C	-0.408291	0.043435	-1.475128
C	0.0	0.0	0.0
F	-0.117274	1.301563	-1.954733
H	1.105606	0.0	0.0
H	0.187137	-0.68665	-2.024167
C	-1.844288	-0.215026	-1.677152
N	-2.989062	-0.405566	-1.854547
N	-0.393193	-1.314168	0.593425
O	-0.591896	-1.36578	1.800387
O	-0.420766	-2.26601	-0.186381
C	-0.558498	1.099159	0.763603
N	-1.012531	2.012297	1.34636
Br	3.269362	0.0	0.0
