13

C	-0.416637	-0.29201	-1.44423
C	0.0	0.0	0.0
F	-0.108742	0.816899	-2.201717
H	1.103999	0.0	0.0
H	0.16353	-1.138007	-1.812175
C	-1.858776	-0.560513	-1.576321
N	-3.011231	-0.743816	-1.701862
N	-0.395075	-1.140468	0.881778
O	-0.546035	-0.916906	2.075965
O	-0.472177	-2.240788	0.335681
C	-0.553122	1.24643	0.49422
N	-1.007488	2.268409	0.852777
Br	3.268064	0.0	0.0
