13

C	-0.445921	0.247073	-1.429481
C	0.0	0.0	0.0
F	-1.830381	0.252303	-1.513227
H	1.103054	0.0	0.0
H	-0.089735	1.24709	-1.697348
C	0.082867	-0.697056	-2.422759
N	0.455952	-1.356324	-3.318635
N	-0.450987	-1.330542	0.524009
O	-0.636442	-1.419618	1.732406
O	-0.549657	-2.241883	-0.290598
C	-0.498528	1.059443	0.864571
N	-0.894139	1.959842	1.506027
Br	3.259174	0.0	0.0
