16

C	-0.049694	0.008666	-0.032192
C	-0.37302	-0.002042	-1.568438
F	1.360922	0.192596	0.058631
H	0.58639	-0.299422	-2.010449
C	-0.628213	1.109115	0.750003
N	-0.726699	2.105333	1.370496
C	-0.319937	-1.301165	0.57425
N	-0.332487	-2.394508	1.00454
C	-0.742125	1.40105	-2.021092
H	-0.832603	1.41008	-3.109141
H	6.8e-05	2.141108	-1.70924
H	-1.706129	1.650103	-1.574419
N	-1.394006	-0.934531	-2.000704
H	-2.149295	-0.775061	-1.314713
H	-1.056196	-1.879222	-1.846041
F	-2.415512	-0.058907	0.212739
