16

C	-0.06023	0.022011	-0.019881
C	-0.389962	0.412948	-1.504079
F	1.348755	0.189348	0.114046
H	0.570266	0.252366	-2.010458
C	-0.645735	0.871315	1.025925
N	-0.749401	1.664644	1.89025
C	-0.316738	-1.403802	0.22075
N	-0.315861	-2.57207	0.346833
C	-0.774051	1.88198	-1.570206
H	-0.037126	2.521192	-1.076018
H	-0.869707	2.17663	-2.617179
H	-1.738217	1.99471	-1.071702
N	-1.404417	-0.382836	-2.164871
H	-2.15683	-0.419074	-1.458271
H	-1.056438	-1.330904	-2.267645
F	-2.42496	-0.13035	0.202208
