16

C	-0.042087	0.017042	-0.026032
C	-0.360383	0.298469	-1.537281
F	1.368465	0.175296	0.102371
H	0.600612	0.090593	-2.024653
C	-0.620233	0.951204	0.949222
N	-0.718476	1.810614	1.748507
C	-0.319007	-1.382694	0.32152
N	-0.336409	-2.537703	0.536852
C	-0.729071	1.762064	-1.716654
H	-1.693523	1.921737	-1.231786
H	0.012863	2.429839	-1.270004
H	-0.818233	1.976445	-2.783498
N	-1.380381	-0.534293	-2.141714
H	-2.136849	-0.506596	-1.438968
H	-1.043649	-1.491575	-2.168548
F	-2.409974	-0.088026	0.192331
