15

C	0.0	0.0	0.0
C	-0.205043	0.214597	-1.522434
Cl	1.798569	0.0	0.0
H	0.303659	-0.60582	-2.027082
H	0.243815	1.16581	-1.802937
C	-0.423621	1.170941	0.768036
N	-0.706004	2.128718	1.386779
C	-0.601126	-1.282902	0.523609
H	-0.27168	-2.124018	-0.08932
H	-0.303534	-1.443782	1.561416
H	-1.694114	-1.181083	0.464695
N	-1.578463	0.225908	-2.102457
O	-2.087181	1.325399	-2.289694
O	-2.03435	-0.866308	-2.429988
Br	-4.097233	0.0	0.0
