15

C	0.0	0.0	0.0
C	-0.540895	0.002215	-1.41837
Cl	1.794027	0.0	0.0
H	-1.634212	0.129009	-1.353184
H	-0.284143	-0.931095	-1.916838
C	-0.385915	1.186068	0.776324
N	-0.574476	2.088879	1.503791
C	-0.491865	-1.257802	0.706646
H	-0.12153	-2.139424	0.177854
H	-1.585828	-1.239721	0.705408
H	-0.119304	-1.273448	1.732149
N	0.014738	1.086381	-2.267315
O	0.046904	2.219156	-1.799951
O	0.385321	0.775311	-3.399939
Br	-3.800651	0.0	0.0
