15

C	0.0	0.0	0.0
C	-0.556181	-0.01225	-1.410417
Cl	1.793743	0.0	0.0
H	-1.650662	0.107939	-1.329745
H	-0.308198	-0.948699	-1.906968
C	-0.391293	1.186182	0.772483
N	-0.61109	2.087149	1.493325
C	-0.484343	-1.256142	0.720162
H	-0.098866	-1.266981	1.740507
H	-1.578115	-1.239198	0.731401
H	-0.120796	-2.139956	0.190583
N	-0.026361	1.067535	-2.282359
O	0.116747	2.184952	-1.795653
O	0.202272	0.767671	-3.454778
Br	-3.799208	0.0	0.0
