15

C	0.0	0.0	0.0
C	-0.540765	-0.001371	-1.418605
Cl	1.793846	0.0	0.0
H	-1.633797	0.130578	-1.351661
H	-0.290506	-0.937825	-1.914693
C	-0.382923	1.18794	0.775504
N	-0.574542	2.089369	1.503406
C	-0.492743	-1.256459	0.710156
H	-1.586729	-1.235259	0.709628
H	-0.118887	-1.270719	1.734759
H	-0.124651	-2.139057	0.181689
N	0.019439	1.078811	-2.271542
O	0.069865	2.21197	-1.800892
O	0.372375	0.762849	-3.408913
Br	-3.794405	0.0	0.0
