15

C	0.0	0.0	0.0
C	-0.545413	0.003505	-1.429202
Cl	1.794221	0.0	0.0
H	-0.265772	0.917845	-1.947979
H	-1.638421	-0.107994	-1.353135
C	-0.390361	1.282695	0.599557
N	-0.608774	2.32551	1.0943
C	-0.490789	-1.154179	0.864197
H	-0.112868	-1.027485	1.879923
H	-1.583843	-1.130093	0.860961
H	-0.135926	-2.098448	0.456237
N	0.002361	-1.111648	-2.243247
O	0.698755	-0.811356	-3.213965
O	-0.2827	-2.260951	-1.911031
Br	-3.806107	0.0	0.0
