15

C	-0.597849	0.026651	-1.544432
C	0.063715	0.070718	-0.139594
Cl	0.008894	-1.395827	-2.436535
H	1.146221	0.184936	-0.25251
N	-2.033397	-0.083285	-1.43213
H	-2.457411	-0.025014	-2.351164
H	-2.378073	0.685438	-0.865374
C	-0.182872	1.210753	-2.327856
N	0.080003	2.180013	-2.940388
N	-0.11687	-1.130495	0.609583
H	0.8448	-1.238331	1.088146
H	-0.860029	-1.03579	1.290406
C	-0.45126	1.290714	0.513183
N	-0.942223	2.22644	1.031463
H	2.273756	-0.911083	1.315798
