15

C	-0.590907	0.043529	-1.546653
C	0.067905	0.073831	-0.140346
Cl	0.010615	-1.375159	-2.448272
H	1.151395	0.182996	-0.249831
N	-2.027238	-0.060087	-1.438071
H	-2.369225	0.705924	-0.866046
H	-2.448992	0.007482	-2.357513
C	-0.168798	1.231218	-2.32092
N	0.098286	2.200772	-2.931147
N	-0.120786	-1.131849	0.599753
H	-0.865088	-1.038185	1.279464
H	0.838731	-1.248147	1.079811
C	-0.442099	1.291816	0.520238
N	-0.930186	2.226028	1.043941
H	2.269881	-0.929032	1.312894
