15

C	-0.592203	0.082595	-1.481694
C	0.066207	0.05152	-0.092875
Cl	-2.426778	-0.162015	-1.250401
H	1.15095	0.134839	-0.223435
N	-0.299398	1.281794	-2.179977
H	-0.56979	2.086991	-1.626867
H	-0.765742	1.312369	-3.077387
C	-0.161671	-1.07044	-2.2768
N	0.167841	-1.93359	-3.001568
N	-0.121632	-1.197909	0.579905
H	-0.842555	-1.133958	1.288111
H	0.840012	-1.34822	1.020482
C	-0.369517	1.256745	0.633283
N	-0.735554	2.22696	1.188523
H	2.327288	-0.948727	1.157588
