15

C	-0.194493	0.022035	-1.454717
C	0.039249	-0.064684	0.062743
Cl	-2.008868	0.224817	-1.74107
H	1.141174	-0.12253	0.101575
N	0.539032	1.059295	-2.086655
H	0.236278	1.944629	-1.685115
H	1.547332	0.900982	-1.722752
C	0.155407	-1.274411	-2.058005
N	0.414711	-2.29843	-2.570601
N	-0.579448	-1.229762	0.66389
H	-0.147688	-1.422636	1.558577
H	-1.569269	-1.070092	0.807214
C	-0.343672	1.208779	0.692787
N	-0.679397	2.182198	1.260787
H	2.716833	0.49314	-0.810058
