15

C	0.0	0.0	0.0
C	-0.50029	0.231182	-1.428559
F	1.377617	0.0	0.0
H	-1.49674	0.675047	-1.291564
H	-0.371168	-0.960675	0.34581
C	-0.424884	1.034831	0.959005
N	-0.576123	1.858805	1.780899
C	-0.624941	-1.068465	-2.187529
H	0.303835	-1.646928	-2.166192
H	-1.431775	-1.602944	-1.684915
H	-0.90166	-0.896814	-3.227456
N	0.409562	1.203951	-2.11064
O	0.855998	0.927774	-3.226624
O	0.629673	2.263124	-1.525304
F	-2.494428	0.0	0.0
