15

C	0.0	0.0	0.0
C	-0.196109	-0.023161	-1.54115
F	1.380371	0.0	0.0
H	0.429922	0.792948	-1.916839
H	-0.398698	-0.879877	0.487623
C	-0.495158	1.223853	0.628773
N	-0.644243	2.199118	1.266897
C	-1.513827	-0.028661	-2.280804
H	-2.131317	-0.854697	-1.946627
H	-2.069909	0.87213	-2.035938
H	-1.290012	-0.075558	-3.354475
N	0.550234	-1.249633	-2.013094
O	1.31336	-1.118207	-2.969401
O	0.305299	-2.318634	-1.458607
F	-2.386813	0.0	0.0
