15

C	0.0	0.0	0.0
C	-0.195518	0.042674	-1.543501
F	1.380351	0.0	0.0
H	0.421436	0.881366	-1.876264
H	-0.39129	-0.906876	0.442358
C	-0.513566	1.184959	0.681596
N	-0.629132	2.190952	1.282755
C	-1.519555	0.053647	-2.275142
H	-1.30481	0.112202	-3.351121
H	-2.110627	0.896448	-1.934749
H	-2.095454	-0.827965	-2.020307
N	0.562988	-1.153223	-2.07039
O	0.349373	-2.247275	-1.553174
O	1.305058	-0.972957	-3.037864
F	-2.392481	0.0	0.0
