15

C	0.0	0.0	0.0
C	-0.415482	0.067121	-1.47716
F	1.383875	0.0	0.0
H	0.493725	-0.185067	-2.044685
H	-0.348365	-0.924026	0.44643
C	-0.446372	1.14426	0.80339
N	-0.532304	2.092737	1.490968
C	-0.969499	1.395596	-1.935827
H	-1.160087	1.383823	-3.009068
H	-1.88972	1.55243	-1.37726
H	-0.234926	2.178392	-1.713883
N	-1.328146	-1.076734	-1.826622
O	-2.149671	-0.899146	-2.71753
O	-1.063581	-2.168742	-1.332877
F	-2.368836	0.0	0.0
