15

C	0.0	0.0	0.0
C	-0.410831	0.081518	-1.483261
F	1.374877	0.0	0.0
H	0.510434	-0.132343	-2.045426
H	-0.357847	-0.924537	0.434086
C	-0.459094	1.139582	0.801782
N	-0.535873	2.092978	1.486725
C	-1.003397	1.394889	-1.936387
H	-1.177968	1.384541	-3.013052
H	-0.300774	2.19997	-1.704678
H	-1.934995	1.519526	-1.389135
N	-1.282042	-1.08658	-1.850874
O	-2.131872	-0.929481	-2.719515
O	-0.961808	-2.177913	-1.383824
F	-2.350856	0.0	0.0
