15

C	0.0	0.0	0.0
C	-0.403215	0.181698	-1.473972
F	1.388059	0.0	0.0
H	0.520318	0.008911	-2.044843
H	-0.357156	-0.948982	0.376842
C	-0.437731	1.097001	0.870284
N	-0.557576	2.038961	1.563046
C	-1.005525	1.516836	-1.841181
H	-1.945575	1.586045	-1.298222
H	-1.167405	1.582222	-2.917392
H	-0.321747	2.314659	-1.53707
N	-1.268043	-0.963195	-1.924558
O	-0.949866	-2.080719	-1.526249
O	-2.112577	-0.750381	-2.786209
F	-2.346788	0.0	0.0
