15

C	0.0	0.0	0.0
C	-0.409652	0.170715	-1.472993
F	1.382129	0.0	0.0
H	0.50707	-0.021454	-2.049207
H	-0.355855	-0.948994	0.379419
C	-0.44659	1.091328	0.872607
N	-0.531252	2.001514	1.611466
C	-0.996575	1.511814	-1.844083
H	-1.161005	1.576111	-2.920334
H	-0.304271	2.30393	-1.543022
H	-1.935361	1.593582	-1.299511
N	-1.295926	-0.964432	-1.909005
O	-1.007369	-2.083625	-1.494289
O	-2.125923	-0.745236	-2.783372
F	-2.354175	0.0	0.0
