15

C	0.0	0.0	0.0
C	-0.476332	0.221536	-1.443443
F	1.377559	0.0	0.0
H	-1.426462	0.751312	-1.365249
H	-0.370648	-0.956723	0.354642
C	-0.43384	1.051052	0.933786
N	-0.54673	1.888442	1.749755
C	-0.669519	-1.08865	-2.167579
H	-1.526928	-1.541217	-1.669694
H	-0.898465	-0.933498	-3.222753
H	0.214395	-1.727774	-2.097297
N	0.522556	1.107871	-2.127898
O	1.162793	0.673182	-3.087545
O	0.6333	2.249747	-1.68337
F	-2.449783	0.0	0.0
