13
Coordinates from ORCA-job run
  C   -0.73891518088096      0.09595389593819      0.37323589188311
  C   0.75619327254478     -0.14731327323956      0.08996160663494
  Br  -1.11429179972230     -0.39223572283513      2.27486278194851
  H   0.95220622333945     -1.21477095336063      0.25314854517563
  H   -0.96016912791617      1.16265927705844      0.31548211094337
  N   -1.52599602096404     -0.61746138690542     -0.56859858349898
  H   -2.49760288350900     -0.33875855944882     -0.53178896566458
  H   -1.47207324799984     -1.61675610023292     -0.40859307878129
  C   1.59320489189659      0.60871897602325      1.02727023059275
  N   2.26700857762245      1.26030752688249      1.73316855446182
  N   1.14442272902815      0.19367675185925     -1.27046441872199
  H   0.45247604249704     -0.19561175827597     -1.90066242329281
  H   1.14253652406383      1.20059132653685     -1.38902225168047
