13
Coordinates from ORCA-job run
  C   -0.77206184014101      0.10755715348388      0.43829604176834
  C   0.70173187628095     -0.06318908819194      0.05414970567363
  Br  -1.03174750020322     -0.57051234297892      2.29565941162000
  H   0.93074218419979     -1.14168951910470      0.08893517090459
  H   -1.00721288824403      1.17016778799777      0.48561336337776
  N   -1.58952265000943     -0.53730939529486     -0.52813904878970
  H   -1.53446820145433     -1.54542426031966     -0.44090761462186
  H   -2.55789615644224     -0.25843268943034     -0.44326074085043
  C   1.58820210637732      0.60028044359581      1.01672009113597
  N   2.33667758823286      1.10999861042869      1.76306330240237
  N   0.87387299268021      0.56156781874403     -1.25125673295453
  H   1.82573154844530      0.44621633924183     -1.57667968574151
  H   0.23595094027783      0.12076914182841     -1.90219326392463
