13
Coordinates from ORCA-job run
  C   -0.75943211653672     -0.25731821277530      0.58779451975583
  C   0.75690966664604     -0.23752847820704      0.34757171545935
  Br  -1.37497551225581     -2.08960568066117      0.76662054713585
  H   1.24979737487302     -0.74202799190180      1.18433562493507
  H   -0.97213884807775      0.20538421273569      1.55802076333406
  N   -1.42190099597374      0.36488992783889     -0.54356835851469
  H   -1.34673956444729      1.37412497115458     -0.45914368371899
  H   -2.40415817272758      0.12265791781060     -0.55749818627152
  C   1.15684496831138      1.19091400103427      0.37830901494868
  N   1.45001509772173      2.32912489766315      0.36116005340259
  N   1.08144051021980     -0.91840543560464     -0.88493636507405
  H   0.52129330034988     -0.52353227688771     -1.63112437785130
  H   2.06304429189703     -0.81767785219951     -1.10754126754088
