13
Coordinates from ORCA-job run
  C   -0.75549825943384     -0.08938867600485      0.66397217156385
  C   0.72450950779124     -0.07756142928945      0.26707530021302
  Br  -1.21218652058141     -2.08294771266961      0.92760417218567
  H   1.28556504305541     -0.64720179947188      1.01919774459716
  H   -0.90663004730892      0.29685902176109      1.67050048541657
  N   -1.52425691124996      0.57626240150876     -0.27998197600393
  H   -2.51284078065766      0.59771538057957     -0.08060562511068
  H   -1.31963524130929      0.26684813769073     -1.22112415912987
  C   1.20571674464428      1.30995596573801      0.30884033135496
  N   1.62710566722461      2.40408479518313      0.36278177445399
  N   0.85437389108404     -0.59488091575379     -1.09322139038174
  H   1.75833118335732     -0.35383401371661     -1.47957801366484
  H   0.77544572338417     -1.60491115555510     -1.06546081549417
