13
Coordinates from ORCA-job run
  C   -0.77903304902644     -0.25301650161097      0.56438665140354
  C   0.74464195195462     -0.23491104454121      0.37492279853995
  Br  -1.40107650437425     -2.08383878318140      0.73720719153613
  H   1.20888125746260     -0.73056561620466      1.23309370037573
  H   -1.02418383004562      0.21669787253935      1.52370170016364
  N   -1.40346367301226      0.35919515518160     -0.59348929717093
  H   -2.38768189455607      0.12764040612181     -0.62968390472719
  H   -1.31935887918533      1.36900675350240     -0.52151649053170
  C   1.14349297303203      1.19368358883527      0.40491123764629
  N   1.43839125301746      2.33139445416824      0.38617455940627
  N   1.11085422129866     -0.92840660938475     -0.83914613966343
  H   0.57151515406658     -0.54525214426719     -1.60656847309858
  H   2.09802101936802     -0.82262753115848     -1.03299353387972
