13
Coordinates from ORCA-job run
  C   -0.79140902830562      0.25022532833332      0.33260705006161
  C   0.67449918258852     -0.15472372707994      0.14524283550684
  Br  -1.34825371817290     -0.20597915509856      2.19225673392339
  H   0.73808037730950     -1.24626592074205      0.29147138628354
  H   -0.87285891789059      1.33453380219909      0.26676645547695
  N   -1.58346161247003     -0.36723926200148     -0.67232289308862
  H   -1.68389482829380     -1.36088664767971     -0.50032576218174
  H   -2.50520932945873      0.04536866833626     -0.72627904547453
  C   1.53715309117816      0.47201883499016      1.15331907081469
  N   2.26629211280420      0.97479426782233      1.92332306852456
  N   1.07889765296428      0.31472712513284     -1.17397246785023
  H   2.03306290888514      0.03884041607136     -1.37084095145247
  H   0.45810210886187     -0.09441373028361     -1.86124548054399
