13
Coordinates from ORCA-job run
  C   -0.75194681691746      0.19479978666303      0.30303916819470
  C   0.73851657390178     -0.16909694058631      0.16055284563272
  Br  -1.26597348045767      0.04131464709009      2.22845365415166
  H   0.85672672313719     -1.20627456730754      0.49926184416100
  H   -0.90347682428118      1.24805752459900      0.06237061774344
  N   -1.52603842464728     -0.62027760995093     -0.56449921004472
  H   -2.47947043519018     -0.29032412005954     -0.63625461504300
  H   -1.54210669470336     -1.58190620421784     -0.24448697182227
  C   1.56896607672526      0.67827406181453      1.02209642764348
  N   2.24339165274022      1.38549231561564      1.67161940895427
  N   1.22361517720634     -0.06961698260846     -1.20806294753419
  H   1.29296750022625      0.90430866136969     -1.48057507709145
  H   0.54482897226009     -0.51575057242136     -1.81451514494556
