13
Coordinates from ORCA-job run
  C   -0.82872532632980     -0.45509428709447      0.26359694758723
  C   0.61087328515494      0.06224482757541      0.05906514196714
  Br  -1.40109576324495     -1.45979754493880     -1.30008284646732
  H   0.83395497918151      0.61950546546224      0.98694141747922
  H   -0.81122428030049     -1.17164810593783      1.09038462450049
  N   -1.80674750482611      0.55462536388070      0.55250598168498
  H   -1.60380283294530      1.01509183436941      1.43178568334995
  H   -1.85519359023037      1.24218523301014     -0.19022081452706
  C   0.63452699038131      1.04831866473886     -1.02773991585811
  N   0.64308528479104      1.87033177736507     -1.86556623320258
  N   1.54778534191501     -1.01109400306841     -0.22120779936704
  H   1.55118026150311     -1.67160318044744      0.54743996626594
  H   2.48538315495006     -0.64306604491485     -0.32590215341284
