13
Coordinates from ORCA-job run
  C   -0.71957811578159     -0.24612028966858      0.51996288474958
  C   0.81136589101299     -0.12384749185427      0.34983256726637
  Br  -1.19554538853660     -2.13571377154176      0.57074898015581
  H   1.29415211859354     -0.62389282042272      1.19514316556727
  H   -1.01717422089265      0.13896549473791      1.50268756801947
  N   -1.37063870412902      0.37005226211662     -0.61482353674251
  H   -2.35819223133369      0.14794777833433     -0.62466216398933
  H   -1.27549245717606      1.37914094345692     -0.54375922083094
  C   1.11507067108625      1.31515750325072      0.45030164292939
  N   1.27355438040034      2.47355885533438      0.55853239751776
  N   1.35265462723130     -0.65282433232714     -0.88381410159467
  H   0.73703422338593     -0.37842011549154     -1.64241657219712
  H   1.35378920613926     -1.66400401592490     -0.83673361085108
