13
Coordinates from ORCA-job run
  C   -0.75333422204315     -0.07492497258237      0.66736920693589
  C   0.72490318672352     -0.08326043597899      0.26294581638244
  Br  -1.23018696691066     -2.06056734767551      0.95288009878365
  H   1.28344878119802     -0.65245522357495      1.01734314990783
  H   -0.89429305826625      0.32411990833310      1.67044481078553
  N   -1.51920442434148      0.59006301018462     -0.27891374181730
  H   -1.32223262605897      0.27122237550553     -1.21844198922749
  H   -2.50614546533062      0.62778036649548     -0.07448978880624
  C   1.22221559290091      1.29881889991946      0.29106306444363
  N   1.65761772392912      2.38736806181922      0.34463102794471
  N   0.84186890561964     -0.61426267954711     -1.09310619691769
  H   1.74832927536032     -0.39125830824141     -1.48437944223872
  H   0.74701329721956     -1.62264365465713     -1.05634601617622
