13
Coordinates from ORCA-job run
  C   -0.81947559306364     -0.34944421186931      0.25021168408346
  C   0.63988663368566      0.09177393986152      0.15672745388063
  Br  -1.33462282620982     -1.29842385520244     -1.37708779420310
  H   0.84586825589035      0.63678454614919      1.08797375073570
  H   -0.87874151254606     -1.10944449299569      1.03693765270862
  N   -1.67131733973736      0.80368774878761      0.39409321928668
  H   -2.64675772513277      0.53342745422969      0.37537553965634
  H   -1.48247180233272      1.25389403128724      1.28394507733478
  C   0.83458381162431      1.04326027221606     -0.95531591742696
  N   1.08733849018472      1.76914591680314     -1.84319930183431
  N   1.52081104041065     -1.06311689828097      0.13182637978967
  H   2.48504856775582     -0.76296874156537      0.20940092703890
  H   1.41884999947084     -1.54757570942069     -0.75288867105039
