13
Coordinates from ORCA-job run
  C   -0.79941330139215     -0.39120395187933      0.20202818629648
  C   0.68065815475252     -0.00210887619415      0.10601725601510
  Br  -1.50248876447479     -0.81451888827359     -1.61419233383857
  H   0.97285842617119      0.19735587594097      1.14915883621532
  H   -0.87603658593416     -1.33957479825720      0.73774521310836
  N   -1.52493155352993      0.60800372789059      0.89710621115563
  H   -2.47148003238026      0.30917233413919      1.09068444948546
  H   -1.56254184050185      1.47307240547416      0.36965594282281
  C   0.81035115046341      1.26988491387361     -0.61562090284272
  N   0.90338479330286      2.31226215086797     -1.14704675698363
  N   1.47321787965021     -1.02826992473235     -0.55107141354561
  H   2.43511741437401     -0.72265872079360     -0.63376213661562
  H   1.46130425949898     -1.87341624805629      0.00829744872696
