13
Coordinates from ORCA-job run
  C   -0.81815821970727      0.08044803112898      0.44433304749466
  C   0.69929090327171     -0.12144458727704      0.20238080654517
  Br  -1.20718073492454     -0.44086307831398      2.29397202704143
  H   0.93052637459989     -1.16964201139410      0.42640540330442
  H   -1.05546948580101      1.14513406194145      0.37489869081718
  N   -1.68131661972285     -0.64337155566822     -0.43575269223686
  H   -1.73819211501234     -0.21910216535320     -1.35074303936998
  H   -1.43978918879556     -1.62368266571213     -0.50119380784088
  C   1.48209463014590      0.72167458562452      1.11391634744298
  N   2.09489385491702      1.44239081019279      1.80867682111997
  N   1.12950318691937      0.15479938884038     -1.15923723299839
  H   0.64627068657862     -0.44833769899164     -1.81167046438341
  H   0.95752672753100      1.12199688498220     -1.40698590693632
