13
Coordinates from ORCA-job run
  C   -0.82766471048384     -0.41890049624159      0.32180326597682
  C   0.61579454637091      0.03161437017025      0.01246213438032
  Br  -1.56935505144997     -1.36583714437551     -1.20569916495465
  H   0.93803099791557      0.56088060273873      0.92758528590854
  H   -0.78214870002953     -1.14997992920200      1.13468542615878
  N   -1.72895203912743      0.63258910615106      0.70028467580143
  H   -1.42926584107373      1.07259548672263      1.56239721205800
  H   -1.80433284585844      1.33078945447647     -0.03029272013541
  C   0.60475574405828      1.03352623557492     -1.05937669077172
  N   0.58798642813671      1.86462711201112     -1.88807924696828
  N   1.47354968954584     -1.08175150921633     -0.35399526835265
  H   2.41729040855027     -0.75746944775499     -0.52684907479488
  H   1.50431137344536     -1.75268384105477      0.40507416569369
