13
Coordinates from ORCA-job run
  C   -0.76253031702813      0.26117729651545      0.21243744787244
  C   0.71157789477738     -0.18622978624730      0.24504360364690
  Br  -1.44670288839353      0.33999866234547      2.08926608165309
  H   0.74097781631863     -1.18511829893719      0.69863418077896
  H   -0.83287091172397      1.28864358179194     -0.14754936403434
  N   -1.50475555764371     -0.60458597377375     -0.63301852329815
  H   -2.42811271376354     -0.23956131940949     -0.82561709347215
  H   -1.60230886672184     -1.52486630074300     -0.21972617780840
  C   1.51127762137237      0.71051628621707      1.08547251214403
  N   2.16336081367229      1.46297733628156      1.70643147635452
  N   1.31786962640650     -0.25872987835474     -1.07599704374211
  H   0.67212614740021     -0.73969504788594     -1.69178336649150
  H   1.46109133532734      0.67547344219993     -1.44259373360332
