13
Coordinates from ORCA-job run
  C   -0.83411310632820     -0.44342708433315      0.27048765777947
  C   0.61391755231462      0.03335472646070      0.03209776205752
  Br  -1.52878000947318     -1.28709053915954     -1.33752507292496
  H   0.90811273149565      0.50276575464576      0.98835895243240
  H   -0.80598083518702     -1.22820986131021      1.03250025156397
  N   -1.75231011803625      0.57566467662311      0.69507556839279
  H   -1.47682251283491      0.95834433361094      1.59200209088567
  H   -1.81242296849446      1.32124534259130      0.01131434977937
  C   0.62636012556299      1.10416744493029     -0.97137882855305
  N   0.63111877634543      1.98457796785876     -1.74763131308449
  N   1.48854818412054     -1.04928993389525     -0.38331231161560
  H   1.50950033373577     -1.76470698842840      0.33434169434649
  H   2.43287184677899     -0.70839583959430     -0.51633080105956
