13
Coordinates from ORCA-job run
  C   -0.87060882011920      0.12839572934239      0.51581014084479
  C   0.57772166343961     -0.18412233947066      0.08056365361258
  Br  -1.13272264437051     -0.51259555921546      2.33151077265249
  H   0.69610532384890     -1.27222182069051      0.10258785049912
  H   -1.00006448448461      1.21377880282108      0.55681712857619
  N   -1.87872943030283     -0.43771325737970     -0.33853847478689
  H   -1.63740460333174     -0.19265505840863     -1.29417487915863
  H   -1.86847889912259     -1.44893487543759     -0.26073694150223
  C   1.56782035283122      0.41130304069162      0.99396975496668
  N   2.38082147724986      0.93494396620415      1.66140247532233
  N   0.73183633317726      0.26855460941885     -1.30079261713115
  H   0.89754050079471      1.26885540930434     -1.32016291489935
  H   1.53316323038988     -0.17858864717990     -1.72925594899591
