13
Coordinates from ORCA-job run
  C   -0.80330101800841     -0.37695950571380      0.22694446117573
  C   0.68625646110487      0.04514877894708      0.13823174040921
  Br  -1.32995146533241     -1.17486639196244     -1.48567991477603
  H   0.93177637217352      0.42786597961967      1.13875241921760
  H   -0.87903601556323     -1.18721631980130      0.95736842579866
  N   -1.73448948422416      0.65189834481761      0.57072657205212
  H   -1.64036380133358      1.45971675478151     -0.03352939086566
  H   -1.63206910082598      0.92878510604647      1.53920321490416
  C   0.80627788741231      1.18259685428535     -0.78471483820656
  N   0.84834045950959      2.10921479721337     -1.50403055486261
  N   1.66182853908299     -0.97308443291408     -0.19082704788165
  H   1.65278764186688     -1.70059823460597      0.51407859311243
  H   1.43394352413762     -1.39250173071346     -1.08452368007736
