13
Coordinates from ORCA-job run
  C   -0.76353088918084     -0.06549886911272      0.65634598856215
  C   0.72099366438027     -0.06950019615118      0.27714267709903
  Br  -1.22791861447644     -2.04806053370896      0.98163164050687
  H   1.27200542089142     -0.61392175475028      1.05497225246856
  H   -0.92570823749945      0.35480524075354      1.64739985218329
  N   -1.51977450771191      0.56941355087381     -0.31847794074102
  H   -1.30548920477013      0.22817461832592     -1.24632036892529
  H   -2.51045262582250      0.59954650668609     -0.13093098010790
  C   1.20461190779638      1.31780364007124      0.27849775150386
  N   1.63023943962896      2.41112978320593      0.31139693116554
  N   0.86625906340194     -0.63298394135035     -1.06305291726211
  H   0.78248254385324     -1.64118339766676     -1.00240932268612
  H   1.77628203950907     -0.40872464717626     -1.44519556376686
