17

C	0.0	0.0	0.0
C	-0.453574	0.114527	-1.462759
F	1.423229	0.0	0.0
H	-1.550793	0.176254	-1.367771
N	-0.443167	1.182011	0.689226
H	-0.170788	1.092929	1.664744
H	-1.469832	1.06415	0.633406
N	-0.456361	-1.264905	0.513986
H	-1.483416	-1.122085	0.465321
H	-0.198727	-1.298897	1.496925
C	-0.035262	-1.090497	-2.30502
H	-0.364026	-0.964336	-3.340171
H	-0.482344	-1.991606	-1.88912
H	1.051096	-1.20439	-2.292616
C	0.068723	1.341353	-2.060713
N	0.491151	2.276051	-2.63355
F	-2.809774	0.0	0.0
