17

C	0.0	0.0	0.0
C	-0.451427	0.061645	-1.475186
F	1.407372	0.0	0.0
H	-1.543531	0.179278	-1.373858
N	-0.474158	1.188623	0.63701
H	-1.499739	1.073983	0.54725
H	-0.250779	1.080064	1.622854
N	-0.447102	-1.173058	0.69908
H	-0.144498	-2.010253	0.213214
H	-1.473895	-1.078964	0.621194
C	-0.123123	-1.209162	-2.260238
H	0.934108	-1.467546	-2.156567
H	-0.341905	-1.073386	-3.321841
H	-0.736291	-2.035892	-1.898582
C	0.135738	1.217673	-2.146972
N	0.610578	2.09494	-2.767882
F	-2.81766	0.0	0.0
