17

C	0.0	0.0	0.0
C	-0.261032	0.022333	-1.567305
F	1.431707	0.0	0.0
H	0.697128	0.346454	-1.984557
N	-0.480942	1.219237	0.560834
H	-1.507728	1.088485	0.463837
H	-0.28063	1.149718	1.555459
N	-0.461985	-1.133777	0.72819
H	-1.489306	-1.027281	0.63994
H	-0.177292	-1.989969	0.264165
C	-1.348867	0.959764	-2.102245
H	-1.388991	0.887506	-3.194123
H	-1.086147	1.981518	-1.822987
H	-2.297002	0.688881	-1.634471
C	-0.469554	-1.338307	-2.063036
N	-0.61529	-2.424094	-2.486712
F	-2.82937	0.0	0.0
