17

C	0.0	0.0	0.0
C	-0.179436	-0.148848	-1.570202
F	1.429507	0.0	0.0
H	0.628993	0.475338	-1.964028
N	-0.515119	1.270886	0.386139
H	-1.539841	1.105659	0.28974
H	-0.337081	1.343808	1.385105
N	-0.479685	-1.047711	0.832306
H	-0.200476	-1.951609	0.464733
H	-1.505661	-0.938622	0.738489
C	-1.479176	0.288532	-2.251091
H	-2.341147	-0.160645	-1.761203
H	-1.576384	1.36901	-2.134323
H	-1.417944	0.055207	-3.319357
C	0.151759	-1.527404	-1.936725
N	0.399496	-2.632739	-2.250619
F	-2.881838	0.0	0.0
