17

C	0.0	0.0	0.0
C	-0.437462	0.142969	-1.47444
F	1.426183	0.0	0.0
H	-1.537509	0.158401	-1.37678
N	-0.432486	1.079518	0.841766
H	-1.458861	0.994527	0.770228
H	-0.148344	1.965528	0.434621
N	-0.483291	-1.256855	0.477668
H	-0.278851	-1.263151	1.473269
H	-1.509617	-1.116984	0.388308
C	0.04592	-1.003293	-2.361876
H	1.137595	-1.033286	-2.384749
H	-0.316761	-1.942486	-1.947342
H	-0.32694	-0.887635	-3.383782
C	0.019004	1.423979	-2.005911
N	0.391846	2.445691	-2.451581
F	-2.815358	0.0	0.0
