14

C	-0.497687	0.035298	-1.445185
C	0.0	0.0	0.0
Br	-2.449689	-0.108516	-1.590179
H	1.113848	0.0	0.0
C	0.114733	1.272951	-2.111269
N	1.197513	1.542229	-2.256191
N	-0.026516	-1.154182	-2.291182
O	-0.290313	-2.283528	-1.779139
O	-0.12594	-0.979703	-3.545979
C	-0.341483	-1.198544	0.87439
N	0.174955	-1.501536	1.865766
C	-0.346922	1.210294	0.862097
N	0.165335	1.540311	1.838651
Br	2.719545	0.0	0.0
