14

C	-0.379836	0.002573	-1.483862
C	0.0	0.0	0.0
Br	0.210122	1.639945	-2.32636
H	1.098463	0.0	0.0
C	0.187302	-1.144861	-2.177501
N	0.608254	-2.072328	-2.765485
N	-1.914086	-0.069979	-1.690493
O	-2.293442	-0.344076	-2.819589
O	-2.611324	0.173355	-0.716275
C	-0.47274	-1.228489	0.632154
N	-0.834978	-2.229923	1.128603
C	-0.456637	1.185484	0.71732
N	-0.776382	2.137781	1.326044
Br	3.246386	0.0	0.0
