16

C	0.0	0.0	0.0
C	-0.447569	0.077537	-1.453652
F	1.389195	0.0	0.0
H	-1.521182	-0.130941	-1.403482
H	-0.343171	1.14108	-1.708273
N	-0.572639	0.939689	0.872136
H	-0.400432	1.854732	0.466883
H	-1.6127	0.712142	0.705963
N	-0.317832	-1.390727	0.595188
O	-0.048901	-1.545065	1.781791
O	-0.730445	-2.27552	-0.14885
C	0.330374	-0.753218	-2.46738
H	-0.043422	-0.550055	-3.476285
H	1.396503	-0.512819	-2.450711
H	0.211958	-1.818291	-2.274611
F	-2.801637	0.0	0.0
