16

C	0.0	0.0	0.0
C	-0.480969	-0.070938	-1.429581
F	1.399062	0.0	0.0
H	0.111662	-0.830387	-1.942578
H	-1.529094	-0.36882	-1.353496
N	-0.57976	1.009192	0.737186
H	-0.366905	0.864738	1.717699
H	-1.623892	0.800179	0.56115
N	-0.223264	-1.411534	0.677136
O	-0.242682	-1.425933	1.907692
O	-0.275402	-2.413107	-0.029831
C	-0.364355	1.290073	-2.105683
H	-1.096893	1.969916	-1.673192
H	0.630734	1.723841	-1.975137
H	-0.564475	1.200423	-3.178283
F	-2.81965	0.0	0.0
