16

C	0.0	0.0	0.0
C	-0.488747	-0.07711	-1.428852
F	1.359747	0.0	0.0
H	0.035484	-0.902048	-1.91371
H	-1.559612	-0.283369	-1.346812
N	-0.600523	1.001264	0.732776
H	-1.642351	0.783249	0.547533
H	-0.396727	0.864745	1.71673
N	-0.231799	-1.427146	0.677006
O	-0.424706	-1.438574	1.889238
O	-0.090448	-2.434716	-0.01089
C	-0.232121	1.239376	-2.15276
H	0.824653	1.52237	-2.110743
H	-0.522179	1.157106	-3.205219
H	-0.818537	2.035789	-1.693056
F	-2.842908	0.0	0.0
