19

C	-0.539087	-0.005404	-1.435098
C	0.0	0.0	0.0
Br	-0.096467	1.739096	-2.305631
H	1.101107	0.0	0.0
C	0.18837	-1.073535	-2.231941
H	-0.060337	-2.043322	-1.794741
H	-0.115591	-1.056007	-3.282718
H	1.267424	-0.922535	-2.147963
C	-2.049899	-0.146553	-1.495387
H	-2.313766	-1.107963	-1.046091
H	-2.402333	-0.125776	-2.530251
H	-2.538171	0.650374	-0.932466
N	-0.388852	-1.27282	0.617559
H	-1.131107	-1.082649	1.281482
H	0.421366	-1.620388	1.120323
N	-0.549549	1.108438	0.797084
H	-0.385586	1.967943	0.280616
H	0.06205	1.172754	1.609123
H	2.983501	0.0	0.0
