19

C	-0.540887	0.017365	-1.434949
C	0.0	0.0	0.0
Br	-0.121967	-1.727144	-2.315123
H	1.101068	0.0	0.0
C	-2.049607	0.176947	-1.489011
H	-2.29919	1.141226	-1.038444
H	-2.545378	-0.614226	-0.924625
H	-2.406963	0.161463	-2.522413
C	0.197765	1.079199	-2.230117
H	-0.032443	2.049262	-1.784398
H	-0.114079	1.073705	-3.278533
H	1.27443	0.911855	-2.154431
N	-0.550585	-1.111255	0.792902
H	-0.386384	-1.969431	0.273563
H	0.060166	-1.178422	1.605678
N	-0.384463	1.270992	0.6242
H	-1.137193	1.081848	1.277434
H	0.42369	1.606037	1.139859
H	2.984508	0.0	0.0
