19

C	-0.536792	-0.005513	-1.435799
C	0.0	0.0	0.0
Br	-0.08664	1.736995	-2.305909
H	1.101118	0.0	0.0
C	0.18943	-1.076387	-2.230289
H	-0.063483	-2.044908	-1.793217
H	1.26868	-0.928378	-2.142877
H	-0.111234	-1.05866	-3.28186
C	-2.047666	-0.14146	-1.499957
H	-2.53476	0.658285	-0.940164
H	-2.316136	-1.100997	-1.049698
H	-2.39719	-0.121681	-2.5357
N	-0.390412	-1.272998	0.616061
H	0.419243	-1.621249	1.119262
H	-1.13255	-1.08167	1.279617
N	-0.549036	1.108968	0.796996
H	-0.392537	1.967145	0.277199
H	0.066725	1.178779	1.60454
H	2.982189	0.0	0.0
