19

C	-0.295512	-0.021045	-1.488022
C	0.0	0.0	0.0
Br	-2.315039	-0.13904	-1.788111
H	1.099299	0.0	0.0
C	0.186636	1.252371	-2.146787
H	0.031193	1.221657	-3.228881
H	1.260518	1.321988	-1.927958
H	-0.30775	2.11974	-1.715926
C	0.328246	-1.239298	-2.137252
H	0.192112	-1.220803	-3.221379
H	1.399512	-1.201666	-1.89342
H	-0.086897	-2.169496	-1.748029
N	-0.40482	-1.200209	0.729692
H	0.374411	-1.848776	0.737677
H	-1.199708	-1.645664	0.284644
N	-0.464472	1.230471	0.620528
H	0.130265	1.373021	1.431131
H	-1.402114	1.062604	0.972286
H	2.878258	0.0	0.0
