19

C	-0.297793	0.010688	-1.488424
C	0.0	0.0	0.0
Br	-2.316697	0.12978	-1.784214
H	1.099168	0.0	0.0
C	0.326132	1.22328	-2.148844
H	-0.086715	2.157415	-1.765617
H	1.398114	1.185833	-1.908432
H	0.186018	1.197321	-3.232284
C	0.181488	-1.268874	-2.13865
H	1.256279	-1.338592	-1.92056
H	-0.314518	-2.132431	-1.699559
H	0.023572	-1.245524	-3.221103
N	-0.464819	-1.225368	0.629936
H	0.128068	-1.361593	1.442074
H	-1.403955	-1.055747	0.979523
N	-0.405168	1.205713	0.721122
H	0.376508	1.850028	0.731712
H	-1.194065	1.653953	0.268281
H	2.883463	0.0	0.0
