19

C	-0.302727	-0.060977	-1.485305
C	0.0	0.0	0.0
Br	-2.32318	-0.188721	-1.772472
H	1.10611	0.0	0.0
C	0.174316	1.196107	-2.17923
H	-0.319876	2.072885	-1.766547
H	0.01139	1.138421	-3.259244
H	1.249385	1.272745	-1.968718
C	0.318765	-1.295555	-2.105937
H	0.17722	-1.305756	-3.189672
H	1.391019	-1.25179	-1.867761
H	-0.094543	-2.215506	-1.69091
N	-0.403174	-1.179421	0.763403
H	-1.200123	-1.635819	0.332361
H	0.375484	-1.828747	0.785488
N	-0.461123	1.246623	0.591582
H	0.165491	1.433675	1.368383
H	-1.378686	1.076415	0.991693
H	2.872378	0.0	0.0
