19

C	-0.465777	-0.033042	-1.466676
C	0.0	0.0	0.0
Br	0.045281	1.702839	-2.310675
H	1.101884	0.0	0.0
C	0.296523	-1.108653	-2.223219
H	1.368389	-0.987351	-2.042139
H	0.086874	-1.060825	-3.295268
H	-0.010631	-2.092906	-1.854588
C	-1.973974	-0.136055	-1.628317
H	-2.32106	-1.114698	-1.277006
H	-2.462432	0.641063	-1.040727
H	-2.260641	-0.042286	-2.678712
N	-0.347874	-1.220512	0.721525
H	0.415317	-1.87841	0.619314
H	-1.212525	-1.641513	0.408341
N	-0.611317	1.123972	0.717524
H	-0.085781	1.95857	0.475955
H	-0.414254	0.931514	1.693733
H	3.010217	0.0	0.0
