19

C	-0.465208	0.072968	-1.465843
C	0.0	0.0	0.0
Br	0.044653	-1.639799	-2.355227
H	1.102336	0.0	0.0
C	-1.973172	0.180601	-1.625129
H	-2.319167	1.150282	-1.249368
H	-2.462289	-0.610632	-1.0577
H	-2.259848	0.113849	-2.677582
C	0.298387	1.168082	-2.192181
H	-0.008866	2.142798	-1.797587
H	0.08872	1.149336	-3.265473
H	1.37047	1.042015	-2.012903
N	-0.612046	-1.141995	0.68814
H	-0.085499	-1.969535	0.425724
H	-0.416254	-0.973845	1.669144
N	-0.347666	1.201709	0.752298
H	0.411296	1.866193	0.660645
H	-1.216933	1.62467	0.454543
H	3.010108	0.0	0.0
