13
Coordinates from ORCA-job run
  C   1.08990518344471      0.21538936999005      0.36739214076507
  C   -0.44187892953637      0.06082865436626      0.39021406778099
  Cl  1.70558174857637      0.66495089419611      1.97884178951653
  H   -0.68725352702305     -0.67585007557455      1.16293292531870
  H   1.36879545266272      1.02264589327521     -0.31510843277848
  C   1.72131916692386     -1.02514207647933     -0.07427047984817
  N   2.19713440704166     -2.03376205324696     -0.44260117004617
  C   -0.98380220013242     -0.39929137013345     -0.96760330546664
  H   -0.71833828661542      0.31341168957755     -1.75117034143567
  H   -2.07127801535569     -0.46972368449038     -0.92752386919592
  H   -0.58252813619136     -1.37921712115089     -1.22803772972231
  C   -1.04772954005997      1.33833533101221      0.77206156740870
  N   -1.54992732373504      2.36642454865817      1.03487283770337
