13
Coordinates from ORCA-job run
  C   1.05019869399084     -0.40349328816426      0.09744170306694
  C   -0.35644192623615      0.20036871965467      0.25959837229929
  Cl  1.43720214707171     -0.71896029808482     -1.61351227020224
  H   -0.47831549398410      0.39412623429182      1.33287778608151
  H   1.07040952284708     -1.37101267793510      0.60629016636475
  C   2.06633081785592      0.46210736429090      0.68922068456225
  N   2.86225467724354      1.15979624128729      1.19838420260778
  C   -1.45861724442574     -0.75464097611063     -0.20332275662529
  H   -2.43704219121321     -0.31891816504362      0.00282458810050
  H   -1.38273241155926     -1.70291337752143      0.33388297126424
  H   -1.38378766542089     -0.94656599069531     -1.27310426443619
  C   -0.44403615679163      1.48771831547650     -0.43251937701806
  N   -0.54542276937811      2.51138789855398     -0.99806180606548
