13
Coordinates from ORCA-job run
  C   1.04933183554826     -0.32870658701680      0.25515933653202
  C   -0.40211298247415      0.18110359417534      0.20049522009620
  Cl  1.69079609737111     -0.66234466145004     -1.37405832112461
  H   -0.68548972241316      0.39251534556384      1.23945236564940
  H   1.06068702481392     -1.27861680033006      0.79630426105134
  C   1.91536414399007      0.62091742470278      0.94797359540641
  N   2.58745059178353      1.38787293467261      1.53060505551849
  C   -1.36468030089776     -0.85866337030386     -0.37672885803241
  H   -1.12607336174104     -1.07627543834856     -1.41739485513165
  H   -2.38805094483967     -0.48444689229278     -0.32699849771843
  H   -1.30648585762790     -1.78372939732574      0.20186521237500
  C   -0.47350427650209      1.44310892235070     -0.53837787989579
  N   -0.55623224701112      2.44826492560258     -1.13929663472598
