13
Coordinates from ORCA-job run
  C   1.02185403145725     -0.04946600579434      0.68082449975769
  C   -0.48832706675046      0.17627085541633      0.46366750682366
  Cl  1.30347584103694     -1.65021190134432      1.41959644050627
  H   -0.97130146111089      0.00612653313883      1.43244423202321
  H   1.40445511729365      0.68737163897372      1.39031922418034
  C   1.76320182683200      0.06420411405123     -0.57165003253010
  N   2.33622009727888      0.16460666244400     -1.59192607333722
  C   -1.09544104167220     -0.75156287884484     -0.58926275337411
  H   -2.16670735816472     -0.56415541897820     -0.67327857588783
  H   -0.63752114903123     -0.57977977631512     -1.56482183907642
  H   -0.94716982576058     -1.79352555624584     -0.30493869120677
  C   -0.68761703901390      1.58276436065698      0.10329577288811
  N   -0.83612197239473      2.70935737284158     -0.19326971076683
