15
Coordinates from ORCA-job run
  C   -0.63228474099294      0.39287095343935     -0.29777021506992
  C   0.60226292438681      0.03770630969138      0.11915704559643
  C   -0.85037881483640      1.59964404565834     -1.04184239458226
  N   -1.15291726010907      2.54020389384013     -1.68186585389008
  C   -1.88317740642861     -0.41357887743591     -0.06866493431113
  H   -2.59391321133844      0.16919881920493      0.52308965326050
  H   -2.36000521988255     -0.63347807334730     -1.02691570610858
  H   -1.68692552579245     -1.35314218579083      0.44328979923185
  N   1.73933621417915      0.91180851567615     -0.22380733175739
  O   1.62312453491250      2.12100412383921     -0.04226766582196
  O   2.73834768699662      0.33627332163804     -0.65394249079853
  C   1.02116914459297     -1.19409454531739      0.84778993724425
  H   0.16828760419290     -1.72776654382287      1.26086952752182
  H   1.69405017562100     -0.92811256233987      1.66673116552878
  H   1.57202389449850     -1.85753719493337      0.17814946395622
