15
Coordinates from ORCA-job run
  C   -0.66090140617470      0.24235130708612      0.34233233233501
  C   0.54159596883280     -0.19479088341344     -0.09444337444588
  C   -0.88353836386410      0.21911156753376      1.75777327019623
  N   -1.09671269924102      0.21414486030655      2.91593704394541
  C   -1.79374133954825      0.77179167401441     -0.49815795869645
  H   -2.74507322672689      0.53740133185155     -0.01882528062119
  H   -1.78686878756978      0.35179106695455     -1.50265808015839
  H   -1.71275550020220      1.85750360379013     -0.59146079015939
  N   0.79796906113348     -0.17739855641524     -1.54129267696937
  O   1.29924079467169     -1.19600662085902     -2.01570272378248
  O   0.51586970874209      0.84433266540992     -2.16650147392065
  C   1.66324557656578     -0.75957177091171      0.70800829532064
  H   1.81188114918966     -1.81042890329433      0.45271669901877
  H   2.59171706068191     -0.22938311243553      0.47888742743269
  H   1.45807200350954     -0.67184822961773      1.77438729050504
