15
Coordinates from ORCA-job run
  C   -0.67633602938700      0.23598967531210      0.31532218528686
  C   0.54588793847801     -0.19235361667560     -0.07276506064547
  C   -0.96638732481793      0.18246816081415      1.71765835912291
  N   -1.23462170374041      0.15292445856319      2.86393515368736
  C   -1.76778276477897      0.78451842594078     -0.56646535281521
  H   -2.74084464743050      0.53532685998899     -0.14136756634203
  H   -1.70998985168538      0.38987693595799     -1.57958138762763
  H   -1.68631566040500      1.87243255921821     -0.62800276959871
  N   0.87105268894493     -0.14451467104508     -1.50494586663754
  O   1.39247358032236     -1.15415291817011     -1.97671078358857
  O   0.62063442593775      0.89111728701253     -2.12065865759565
  C   1.62741988027969     -0.77627250778910      0.77005880827631
  H   1.78361788515512     -1.82320134047344      0.50330770309052
  H   1.37369064137351     -0.70650103777154      1.82723378282690
  H   2.56750094175383     -0.24665827088307      0.59298145255994
