15
Coordinates from ORCA-job run
  C   -0.63592447827129      0.29529879079037      0.34807679837657
  C   0.50130855930111     -0.27901924210976     -0.10413095520457
  C   -0.88907460460990      0.21096612306309      1.75593783260002
  N   -1.12850641324483      0.15637805291294      2.90769487120967
  C   -1.68371944365759      1.00138779789994     -0.47236984665550
  H   -2.46068200606696      0.29417751523158     -0.77255206514932
  H   -1.26614939824107      1.43880922057192     -1.37766179696522
  H   -2.14673799810825      1.78823424042959      0.12438842640232
  N   0.78264180864947     -0.21146250296667     -1.54481388170592
  O   1.92502879463798      0.11983560500458     -1.85942705412906
  O   -0.12297864329983     -0.50312604417017     -2.32526994893861
  C   1.57286542752802     -0.94839859591604      0.68627172318271
  H   1.27785198832308     -1.04912171356346      1.73027132034437
  H   1.77606606980081     -1.94147100566879      0.27606483518182
  H   2.49701033725923     -0.37048824150911      0.62551974145071
