15
Coordinates from ORCA-job run
  C   -0.62244446732830      0.24378587017797     -0.44309843493352
  C   0.59765537061280      0.08821941809876      0.11481150615730
  C   -0.81770277260529      1.08149396091986     -1.59083317158705
  N   -1.10075764751580      1.71754979596739     -2.54012879792792
  C   -1.87800382909588     -0.43906136599794      0.03147809129430
  H   -1.69695809990225     -1.11549768737106      0.86395158646212
  H   -2.31890413313018     -1.00972846497682     -0.78948641203736
  H   -2.61202398717863      0.31060948494642      0.33831625301459
  N   1.74450700423838      0.78597715784196     -0.49583870344135
  O   2.75727831504199      0.10417264890466     -0.64978594598221
  O   1.62137180282300      1.97393000335924     -0.78256369551638
  C   0.99351683218443     -0.77418893065543      1.26521176898064
  H   1.56124173238225     -1.63681251147659      0.91078720541031
  H   1.64402517187821     -0.21276987875515      1.94033286977409
  H   0.12819870759528     -1.11867950098327      1.82684588033243
