15
Coordinates from ORCA-job run
  C   -0.63645832103488      0.30198477090990      0.37206828682785
  C   0.49175871023897     -0.28323015916367     -0.07540039712687
  C   -0.87912734264609      0.29370221636355      1.78368609094105
  N   -1.09899727969063      0.29951385911129      2.94035755492280
  C   -1.64210854814072      1.00740137670230     -0.49734694124915
  H   -2.65465299242066      0.77294268135693     -0.16446401575232
  H   -1.54612166454930      0.70896704100823     -1.54100872442575
  H   -1.50451954002814      2.08951338939610     -0.42873332554540
  N   0.73118302036168     -0.23895692110887     -1.52385432043473
  O   0.34149939990143     -1.20270307714320     -2.17907582106483
  O   1.32451703949642      0.74802105209373     -1.95326742013859
  C   1.56145105347608     -0.98959810936607      0.68032708246908
  H   1.65067365497870     -2.01863859609275      0.32117402246628
  H   2.52084262367994     -0.48981112937570      0.51823892641049
  H   1.34106018637721     -1.00010839469177      1.74729900170011
