15
Coordinates from ORCA-job run
  C   -0.58397765343942      0.46858110768727      0.28907361979434
  C   0.59421809816059     -0.02892105838540     -0.14438915386100
  C   -0.74381709828446      1.86883758596956      0.55606711535767
  N   -1.00094606086793      2.99567355762365      0.77949051679790
  C   -1.84021352507097     -0.33746936608141      0.48837292176351
  H   -1.67932812165389     -1.40322764294480      0.34175414763586
  H   -2.22185052273234     -0.17777173577127      1.49975697392638
  H   -2.61199478729842     -0.00113714152997     -0.20865345153972
  N   1.72357373810961      0.90210207709757     -0.33000555840320
  O   1.98184626339911      1.69180740631387      0.57469702786198
  O   2.33746485825541      0.78903582752152     -1.39031421538014
  C   0.93304548935519     -1.42680800492894     -0.53578831121619
  H   1.12661776710185     -1.47356734584006     -1.60894347298399
  H   0.13633823231292     -2.12319011793111     -0.28602397156097
  H   1.84702332265274     -1.74294514880046     -0.02609418819242
