15
Coordinates from ORCA-job run
  C   -0.66548161865487      0.23769606398942      0.33497452462720
  C   0.54134841052136     -0.19936561205076     -0.08977638092159
  C   -0.93065792009992      0.14496726773572      1.74014771908972
  N   -1.18061703818180      0.08353368510924      2.88933180930569
  C   -1.76425349784483      0.83170883100243     -0.50748413870741
  H   -2.73327384651133      0.58424514131688     -0.07212698003490
  H   -1.66579327568182      1.91968786141957     -0.53344680691893
  H   -1.73136231323254      0.47164751938573     -1.53432003437856
  N   0.83982517726459     -0.11399321361879     -1.52584879623985
  O   0.59397689595332      0.94278745501445     -2.10634885730847
  O   1.33583199582239     -1.11745034622577     -2.03671224522317
  C   1.62827155650551     -0.82643870271002      0.71424388635131
  H   1.75720912633387     -1.86947384591884      0.41885272473223
  H   1.39795592630269     -0.77834946181515      1.77806560215785
  H   2.57502042150340     -0.31120264263412      0.53044797346888
