15
Coordinates from ORCA-job run
  C   -0.67224854252457      0.19641777082417      0.35114130538270
  C   0.53956995265412     -0.19378427828586     -0.09992726002601
  C   -0.98349126164502     -0.08122329009306      1.72195996756420
  N   -1.27216776200833     -0.30716834996121      2.84057742309114
  C   -1.76303463664132      0.85445597824928     -0.45060163339157
  H   -1.41188989829378      1.19410444477600     -1.42275404561863
  H   -2.57275760050690      0.13979126995813     -0.61984356487785
  H   -2.17236938290199      1.70330999401907      0.10098604094399
  N   0.87192075222460      0.07487612945337     -1.50379555874042
  O   1.86376547876407      0.77785244464990     -1.69401400608247
  O   0.15639824173833     -0.42051419648651     -2.37350267370227
  C   1.64238596357275     -0.85505899969187      0.65257451507404
  H   2.52430752070288     -0.21221336343247      0.66409937862892
  H   1.33731460746705     -1.07798463581580      1.67493178966793
  H   1.91229656739811     -1.79386091816316      0.15816832208631
