13
Coordinates from ORCA-job run
  C   -0.30937936515543     -0.07866446253444      0.11327310988757
  C   0.94282624918794     -0.18866556605349     -0.37487020984252
  H   1.34909696350417     -1.16719281523544     -0.62530819545234
  C   -1.20033461045780     -1.26071807930723      0.33458717193176
  H   -1.45650369340032     -1.35380451478771      1.39359919844266
  H   -2.13819662566407     -1.14878889741072     -0.22073902710808
  H   -0.72000687014963     -2.18348196941511      0.00674985046166
  N   -0.81337282396929      1.14978332125419      0.54868604892771
  H   -0.25259383955166      1.90528525135950      0.17128704608167
  H   -1.79716735764005      1.26796899692390      0.35165489490710
  N   1.73577326119380      0.99695018851242     -0.53096807865548
  H   2.26065099092573      0.96538216787721     -1.39500016885443
  H   2.40020772117661      1.09594637881692      0.22804835927273
