13
Coordinates from ORCA-job run
  C   -0.31816720771345     -0.07471859482530      0.08831324377588
  C   0.94638156441413     -0.19001103311543     -0.36537854501263
  H   1.31056704112778     -1.14524179353650     -0.73957101966113
  C   -1.27937801254277     -1.22173474111842      0.11065103423555
  H   -2.18647349183196     -0.97921929454534     -0.45402478912959
  H   -1.58344529989559     -1.44595023731266      1.13686126530624
  H   -0.83576402490572     -2.11636387656218     -0.32804425954746
  N   -0.77285816719700      1.10854211227488      0.67607995342215
  H   -1.74071286403875      1.30978300751514      0.46802967705930
  H   -0.15902691146018      1.87607399507317      0.42785829943252
  N   1.80798291069590      0.95683431484252     -0.32454944116980
  H   2.44051123755532      0.91140343928463      0.46619037775040
  H   2.37038322579228      1.01160270202548     -1.16341579646142
