13
Coordinates from ORCA-job run
  C   -0.33102857666068     -0.05796616621244      0.04265079297788
  C   0.98665165211777     -0.25003174223839     -0.17008463953174
  H   1.37849635879665     -1.25539408562257     -0.31459500858870
  C   -1.31611157645185     -1.18359649785104      0.09475625893929
  H   -0.81795802835466     -2.14813985920511     -0.01072317061265
  H   -1.85732390022492     -1.18198563019918      1.04742842316497
  H   -2.05759429363378     -1.08090433700751     -0.70242034493346
  N   -0.87408348527331      1.22721151954860      0.11650505716874
  H   -0.13942009310929      1.90365247621234      0.29011530761832
  H   -1.62978052957704      1.30269577550788      0.78260601928972
  N   1.85561512132501      0.89030689668579     -0.23053146747872
  H   2.07376060974801      1.13364085595600     -1.19001102489258
  H   2.72877674129811      0.70051079442564      0.24330379687894
