13
Coordinates from ORCA-job run
  C   -0.32612029196352     -0.06687838441555      0.06239468188941
  C   0.93708868076971     -0.16604162714059     -0.39901504301500
  H   1.23622803523017     -1.02417757169507     -0.99840370988297
  C   -1.37336955393231     -1.09987085968255     -0.21391133685831
  H   -0.96063088263271     -1.93864506071424     -0.77578364060103
  H   -1.79130915955645     -1.48867537410588      0.72130189638788
  H   -2.19859931239416     -0.66522943591442     -0.78481154810600
  N   -0.76435080447309      1.07515062981075      0.73749077231859
  H   -1.42274982876113      0.87262244067543      1.47640331536885
  H   0.03160800065067      1.60892267458949      1.06760412790390
  N   1.86948399177275      0.88503049592551     -0.10729303168916
  H   1.98336120582198      1.50404036231085     -0.90186077254370
  H   2.77935991946810      0.50375171035628      0.11588428882753
