13
Coordinates from ORCA-job run
  C   -0.25098346209755      0.29653415103064      0.20828152220795
  C   1.06400304941018      0.50953376674579      0.01356166922374
  H   1.46624021231979      1.45897675837833      0.35358245649711
  C   -0.98312560247329     -0.96459874522881     -0.15851850569887
  H   -1.80626389793532     -0.75173415893914     -0.85060649029486
  H   -1.42704794827746     -1.42402427796124      0.73205721750992
  H   -0.34461156833630     -1.71966801049974     -0.62397597657294
  N   -0.98811330164581      1.35960610983566      0.84057974812576
  H   -1.36536029054910      1.04438373196407      1.72821930372230
  H   -1.78010633199909      1.62472797887177      0.26486293437616
  N   2.01372546174466     -0.39149460132604     -0.48383549585875
  H   2.77676351892505      0.07086927200885     -0.95315410952843
  H   1.62588016091423     -1.11411197488014     -1.07105427370909
