13
Coordinates from ORCA-job run
  C   -0.24222310278146     -0.10524344646502      0.06236771497258
  C   0.95531804869187     -0.21991970471167     -0.54599332528519
  H   1.13887523650775     -1.05223669430535     -1.21845648858169
  C   -1.31501243641285     -1.14107229453267     -0.06765938296074
  H   -2.24803066599661     -0.69927717747597     -0.43582944435631
  H   -1.01392213254955     -1.93161651776556     -0.75621486337790
  H   -1.53022656528347     -1.60160247212945      0.90240209586174
  N   -0.51005854984399      0.94124242804790      0.97976214474595
  H   -0.12780821435229      1.82370854015184      0.66345441378072
  H   -1.50025186145518      1.04898079519112      1.14750489127900
  N   2.07296543040784      0.60297523445608     -0.26969326801225
  H   1.95610220213140      1.14332142492527      0.57496581331848
  H   2.36327261093654      1.19173988461347     -1.03761030138441
