13
Coordinates from ORCA-job run
  C   -0.38715881898469      0.26246722397160      0.00402649249687
  C   0.93147889882620      0.53302142634245     -0.07444382204770
  H   1.25204738934621      1.57345739397865     -0.18727469796032
  C   -0.93474498282530     -1.12219881450317      0.15542767039004
  H   -0.12280769467226     -1.84520488547412      0.13011274421866
  H   -1.64185615763133     -1.34594253287426     -0.65149234642860
  H   -1.47897629919828     -1.21006429105664      1.09993478026026
  N   -1.35732063921342      1.27723963448668      0.06056885040156
  H   -2.19377851548326      1.04542546046930     -0.45639355116777
  H   -1.00387900634688      2.18084409946486     -0.22337607799268
  N   1.91649272830955     -0.50333974285903      0.02312460434178
  H   2.56276638856512     -0.44670034507202     -0.75391542645111
  H   2.45873670930837     -0.40000462687431      0.87270077993902
