13
Coordinates from ORCA-job run
  C   -0.39257289657991      0.25327776340607      0.01495155806736
  C   0.88925682788932      0.52405672024699     -0.30404032763835
  H   1.14736543167297      1.53162849384168     -0.64486338839202
  C   -0.85697083119667     -1.08860009081109      0.48784021688047
  H   -1.25703844986771     -1.01095003993782      1.50270940691670
  H   -1.66274386591280     -1.46377608901243     -0.15341041562064
  H   -0.02939024201150     -1.79382582891043      0.47143778800101
  N   -1.38462911859754      1.24801284620697      0.03456285096982
  H   -1.11236080893525      2.09040372989239     -0.45352561342805
  H   -2.27705089884345      0.91557911473802     -0.30257527458271
  N   1.91892536548587     -0.46407866609610     -0.17248449449971
  H   2.44345050187418     -0.54022721473136     -1.03494028706407
  H   2.57375898502250     -0.20050073883288      0.55433798039018
