13
Coordinates from ORCA-job run
  C   -0.34678750323692      0.27468121269207      0.11047394170646
  C   0.87754116854261      0.64264458418634     -0.31864714054876
  H   1.07844925930948      1.69613890743588     -0.50900924075105
  C   -0.75442604701280     -1.13932547034234      0.40062564926754
  H   -0.13329102597429     -1.86706051206504     -0.12526455270100
  H   -1.78845432812648     -1.30705843318953      0.08194325030194
  H   -0.71142625598465     -1.35148702688135      1.47312573246860
  N   -1.32969964615132      1.22962122955153      0.48358461249281
  H   -1.02953877140634      2.17640382841489      0.28888480844721
  H   -2.21433020393894      1.05642523304844      0.02124545184978
  N   2.02895822026374     -0.17461519625211     -0.39963958308195
  H   2.49553923188868     -0.08845758106189     -1.29252198178780
  H   1.82846590182723     -1.14691077553687     -0.21580094766378
