13
Coordinates from ORCA-job run
  C   -0.32368053707586     -0.07683896879640      0.07649801070862
  C   0.92991215890371     -0.14170529945405     -0.41710277992376
  H   1.28221926151499     -1.05228328740033     -0.89933504379571
  C   -1.27638036580380     -1.23028602195509      0.01497075352308
  H   -1.60600118522013     -1.51492595693743      1.02030247789509
  H   -2.16773194993714     -0.95822481359743     -0.55678975495446
  H   -0.81216690519495     -2.10159515963533     -0.44847150744869
  N   -0.84839778557529      1.11167072025225      0.58405519080216
  H   -1.45122140250139      0.97704237686052      1.38290923835959
  H   -0.10111160521133      1.77141790166715      0.76482716439224
  N   1.77402171729770      1.01873453317518     -0.32031232963920
  H   2.68733785277803      0.75737844819619      0.03053093472085
  H   1.91320074602545      1.43961552762476     -1.23208235463980
