13
Coordinates from ORCA-job run
  C   -0.37638039602554      0.26825598897281      0.08989453699462
  C   0.93481052809114      0.52888903085094     -0.09171775126129
  H   1.29310426952760      1.54262268949553      0.11558824035068
  C   -0.99874895835736     -1.06811315985405     -0.16856405898740
  H   -0.29976163474250     -1.68623056643340     -0.72890039154614
  H   -1.93001378279541     -0.95181462314615     -0.72898114960395
  H   -1.24357128511296     -1.57684631617304      0.77075892906748
  N   -1.28845806287619      1.27632461412953      0.46071712683692
  H   -0.83463636486529      2.09900964576619      0.83435816670323
  H   -1.97914950575037      0.93680764976031      1.11698314041892
  N   1.84245706504889     -0.45996528628722     -0.58041309214146
  H   2.40175239669128     -0.85690747878061      0.16481577142130
  H   2.47859573116671     -0.05303218830084     -1.25453946825291
