13
Coordinates from ORCA-job run
  C   -0.37776705534557      0.26011911106654      0.09153582289187
  C   0.89316915847845      0.54066713493339     -0.26092246348710
  H   1.19972574372559      1.58815259977116     -0.34338388428235
  C   -0.90273106200818     -1.13424181647186      0.23544262924723
  H   -0.10058114687642     -1.84994611467109      0.07152780011305
  H   -1.32156079666484     -1.28548687065545      1.23683999696696
  H   -1.70680438691079     -1.30849928055221     -0.48500758987377
  N   -1.35036367930367      1.26226376004136      0.24609040743112
  H   -0.95593282770734      2.18929154247224      0.33022808504736
  H   -1.98306132501016      1.07578888877003      1.01133273651893
  N   1.83327910758984     -0.49783495816943     -0.56396610204097
  H   2.68112844312739     -0.37035238879424     -0.02572844687152
  H   2.09249982690570     -0.46792160774044     -1.54298899166081
