13
Coordinates from ORCA-job run
  C   -0.24983232564630     -0.08968148115725      0.08294237528179
  C   1.01168121303122     -0.26004408610708     -0.35349259720549
  H   1.42136953625141     -1.24926259270609     -0.52680946772845
  C   -1.15360721849421     -1.21391710784739      0.47945243939115
  H   -1.45753291496533     -1.12810266770789      1.52926904892972
  H   -2.06774123027986     -1.22179443486688     -0.12539097009796
  H   -0.65485968203364     -2.17750873413096      0.35787071949964
  N   -0.73057068754248      1.24539677339293      0.21738177304239
  H   -1.68059986232840      1.27283075064679      0.55876630973283
  H   -0.67870180236158      1.74442886688750     -0.66398754040812
  N   1.81847017882825      0.83442267924345     -0.73023339730532
  H   1.62082543360719      1.63147968827436     -0.13455629754290
  H   2.80209936193373      0.61175234607850     -0.69121239558927
