13
Coordinates from ORCA-job run
  C   -0.33194635008725     -0.05896090994456      0.03710388047025
  C   0.95424688109915     -0.17262851874120     -0.35162602218827
  H   1.26300499354562     -0.99555429221491     -0.99395789512454
  C   -1.39379890514053     -1.02652505766341     -0.38241083841291
  H   -1.88508325600756     -1.46710755952048      0.49226843326526
  H   -0.97450165601789     -1.83702078519454     -0.97978281497646
  H   -2.16460736823017     -0.51853162097377     -0.96857946288540
  N   -0.77330661748478      1.04719555608917      0.76783628209854
  H   -1.48383257938470      0.81706048377179      1.44806488150863
  H   0.01829637620191      1.52331862160845      1.18517805736707
  N   1.90121001005235      0.81681378060155      0.07678353721474
  H   2.08873774153121      1.48691635294935     -0.66024996592928
  H   2.78058072992264      0.38502394923256      0.32837192759236
