13
Coordinates from ORCA-job run
  C   -0.35892052957161      0.27196652420264      0.04041321840031
  C   0.90065542732951      0.61548446106115     -0.29558526552708
  H   1.13121300818060      1.66306375100129     -0.48145727956010
  C   -0.81483366134364     -1.12557305311559      0.33540347034432
  H   -0.96173334774091     -1.28429599637254      1.40999151319436
  H   -1.77209567291523     -1.30444355067587     -0.16051808927761
  H   -0.10932907802578     -1.88194972522692     -0.01342132969108
  N   -1.41782347808148      1.22223362141510      0.07173141386408
  H   -1.92695813965078      1.17295964052373      0.94666959899018
  H   -1.07085301949238      2.16621680466465     -0.04409346568959
  N   2.03750838313659     -0.22410016181937     -0.35107306253163
  H   2.55953950935211     -0.09129565480050     -1.20691371382432
  H   1.80263059882299     -1.20126666085776     -0.25314700869184
