13
Coordinates from ORCA-job run
  C   -0.28316174916195     -0.08798878040967      0.02976062700069
  C   0.94446170558300     -0.20416761727761     -0.51913576780510
  H   1.16488800161987     -1.07668799075710     -1.12671046404770
  C   -1.31354055182443     -1.16686462781697     -0.10660520837934
  H   -0.93790897981401     -1.99580202522843     -0.70819229292169
  H   -2.22031500939008     -0.76841411771788     -0.56969269143532
  H   -1.59667871698587     -1.56980948532250      0.87304921251392
  N   -0.75127712453145      1.05823693035105      0.70565828133492
  H   -0.05418169226683      1.77952809423520      0.81502221768306
  H   -1.18437785354075      0.84743571987275      1.59444711902032
  N   2.04397998141297      0.67360561449272     -0.32375111385051
  H   2.26476482923585      1.23098614785850     -1.13827198760356
  H   1.92334715966366      1.27794213771994      0.47642206849029
