13
Coordinates from ORCA-job run
  C   -0.31479835519318      0.28526741463006      0.16357467337271
  C   0.89318914262194      0.60812028942923     -0.34116754177273
  H   1.15278602637498      1.65869225796634     -0.46493935528299
  C   -0.80097473050406     -1.11796064644939      0.37291473715515
  H   -0.27609474473954     -1.83837029202302     -0.25748015002405
  H   -0.69227890321815     -1.42224968068718      1.41823375733232
  H   -1.86570630077761     -1.18931169830209      0.12759391729430
  N   -1.18909942794915      1.26717241987953      0.70125729270096
  H   -0.83678692391949      2.20518762311870      0.55866677927544
  H   -2.12025522690259      1.19525006310665      0.30884027887196
  N   1.97139433372453     -0.27141137696197     -0.59470368599522
  H   2.36198359214763     -0.13717923623296     -1.51774138908587
  H   1.71764151833468     -1.24120713747388     -0.47404931384199
