13
Coordinates from ORCA-job run
  C   -0.33861965754530      0.28449040451260      0.09630610661191
  C   0.89248371225170      0.59249613732104     -0.35855898018926
  H   1.15517250895316      1.63827331643353     -0.50832891124426
  C   -0.82856372921316     -1.10799332437492      0.36048169414115
  H   -0.20757484886365     -1.87032766204384     -0.11382881080808
  H   -0.85743021592325     -1.32981229404394      1.43357596558448
  H   -1.84459039597443     -1.21227812394504     -0.02796592133126
  N   -1.33986524154103      1.27576873408587      0.29790756264381
  H   -1.74991804644006      1.19799107305536      1.22149565781392
  H   -0.96299161821979      2.20944166289033      0.19237043509576
  N   1.97271374984569     -0.29148351845072     -0.58585196997546
  H   2.41035722077679     -0.12480788742925     -1.48214780121850
  H   1.69982656189332     -1.26175851801103     -0.52445502712423
