13

C	-0.468599	-0.007597	-1.431416
C	0.0	0.0	0.0
Br	-0.080903	-1.568272	-2.493473
H	1.094765	0.0	0.0
H	0.009278	0.826779	-1.942386
H	-0.347101	0.926189	0.46134
N	-1.94959	0.253561	-1.530251
O	-2.680063	-0.362744	-0.760715
O	-2.313051	1.072259	-2.371978
N	-0.50237	-1.089219	0.872503
O	-0.334014	-2.247326	0.508648
O	-1.01536	-0.745427	1.937424
Br	3.414942	0.0	0.0
