13

C	-0.620549	0.128852	-1.378137
C	0.0	0.0	0.0
Br	0.425575	1.148503	-2.617957
H	1.095063	0.0	0.0
H	-1.604156	0.586588	-1.326589
H	-0.349346	-0.906492	0.495734
N	-0.880823	-1.27503	-1.889852
O	-1.887654	-1.791413	-1.404665
O	-0.108449	-1.800862	-2.675907
N	-0.43879	1.121537	0.876912
O	-0.937815	2.120869	0.358187
O	-0.24808	0.968983	2.078626
Br	3.426117	0.0	0.0
