13

C	-0.618471	0.061945	-1.37024
C	0.0	0.0	0.0
Br	-0.00519	1.651498	-2.281982
H	1.086514	0.0	0.0
H	-1.704949	0.091806	-1.362819
H	-0.314946	0.87936	0.567924
N	-0.275722	-1.140911	-2.218807
O	0.58803	-1.901903	-1.807671
O	-0.923738	-1.257898	-3.254423
N	-0.531195	-1.16733	0.757635
O	-0.02042	-1.400642	1.843994
O	-1.480932	-1.787958	0.269322
Br	3.469682	0.0	0.0
