13

C	-0.65518	0.155182	-1.349417
C	0.0	0.0	0.0
Br	-0.073913	1.7887	-2.195832
H	1.096115	0.0	0.0
H	-1.740569	0.189375	-1.279384
H	-0.35722	0.816242	0.629025
N	-0.361003	-0.994432	-2.278327
O	-1.313754	-1.368105	-2.9656
O	0.772988	-1.447793	-2.290798
N	-0.555375	-1.242843	0.6191
O	-1.687514	-1.146944	1.103777
O	0.114964	-2.26956	0.578207
Br	3.517285	0.0	0.0
