13

C	-0.512245	-0.008036	-1.409787
C	0.0	0.0	0.0
Br	-0.016236	-1.661921	-2.274602
H	1.09087	0.0	0.0
H	-0.133039	0.812965	-2.010384
H	-0.374147	-0.838646	0.581515
N	-2.017241	0.092373	-1.463783
O	-2.650485	-0.389709	-0.52934
O	-2.495527	0.632135	-2.455815
N	-0.449441	1.236189	0.692751
O	-0.414163	1.230569	1.917479
O	-0.79825	2.190878	-0.006715
Br	3.417888	0.0	0.0
