14

C	-0.335918	0.119131	-1.467922
C	0.0	0.0	0.0
F	-1.652987	0.540193	-1.696931
H	1.096693	0.0	0.0
H	0.32783	0.881634	-1.89067
C	-0.142524	-1.136936	-2.208014
N	-0.020016	-2.146854	-2.793381
C	-0.553978	-1.190028	0.614503
N	-1.011926	-2.140905	1.13446
C	-0.394188	1.267527	0.756836
H	0.106788	2.122282	0.29276
H	-1.472836	1.437688	0.764206
H	-0.029605	1.195066	1.783592
H	2.666379	0.0	0.0
