14

C	-0.332005	0.094246	-1.470743
C	0.0	0.0	0.0
F	-1.657745	0.479905	-1.710878
H	1.096773	0.0	0.0
H	0.314153	0.867891	-1.90015
C	-0.104017	-1.165357	-2.19433
N	0.049707	-2.178729	-2.766051
C	-0.552113	-1.184116	0.628079
N	-1.009014	-2.128766	1.160197
C	-0.401093	1.276643	0.736724
H	-1.47881	1.451879	0.722064
H	-0.056831	1.213596	1.7711
H	0.113109	2.12377	0.273375
H	2.667809	0.0	0.0
