14

C	-0.500819	0.049652	-1.435622
C	0.0	0.0	0.0
F	-0.108603	-1.077767	-2.137815
H	1.095615	0.0	0.0
H	-1.597406	0.06973	-1.468071
C	-0.011043	1.244364	-2.150172
N	0.365027	2.179292	-2.751822
C	-0.512459	-1.20721	0.624781
N	-0.939872	-2.176819	1.136517
C	-0.416667	1.249837	0.77638
H	-0.068848	1.156187	1.806946
H	-1.500299	1.412008	0.782724
H	0.081633	2.122161	0.345046
H	2.699958	0.0	0.0
