14

C	-0.336694	0.084616	-1.469858
C	0.0	0.0	0.0
F	-1.651971	0.505294	-1.707444
H	1.096725	0.0	0.0
H	0.328846	0.834603	-1.911361
C	-0.149063	-1.188994	-2.180824
N	-0.034687	-2.209283	-2.749388
C	-0.552634	-1.175688	0.642955
N	-1.006364	-2.114111	1.188745
C	-0.393339	1.284572	0.728184
H	-0.024856	1.236614	1.755043
H	-1.472364	1.453406	0.735582
H	0.104553	2.129146	0.242333
H	2.665819	0.0	0.0
