14

C	-0.498763	0.041335	-1.437931
C	0.0	0.0	0.0
F	-0.1371	-1.1034	-2.122854
H	1.095592	0.0	0.0
H	-1.594796	0.093146	-1.472915
C	0.022339	1.211796	-2.16793
N	0.400783	2.142253	-2.775098
C	-0.530179	-1.198779	0.625257
N	-0.960723	-2.159778	1.150367
C	-0.416096	1.255971	0.764889
H	-1.49739	1.426299	0.762963
H	-0.077749	1.167609	1.798752
H	0.091439	2.12068	0.331862
H	2.6998	0.0	0.0
