14

C	-0.329323	0.081667	-1.471784
C	0.0	0.0	0.0
F	-1.648856	0.478115	-1.71991
H	1.096694	0.0	0.0
H	0.32617	0.843019	-1.90781
C	-0.107796	-1.18665	-2.182131
N	0.045773	-2.199815	-2.754858
C	-0.5537	-1.176295	0.640449
N	-1.0067	-2.114313	1.18726
C	-0.398508	1.28451	0.724203
H	-1.476476	1.456383	0.71785
H	0.107957	2.127268	0.245387
H	-0.043825	1.235346	1.75579
H	2.665495	0.0	0.0
