14

C	-0.386332	-0.008274	-1.473814
C	0.0	0.0	0.0
F	-0.027238	1.196174	-2.058454
H	1.09618	0.0	0.0
H	0.16842	-0.801991	-1.985383
C	-1.836509	-0.183607	-1.693659
N	-2.993406	-0.300334	-1.861607
C	-0.460473	-1.237443	0.607841
N	-0.817871	-2.242799	1.103216
C	-0.503164	1.232202	0.741403
H	-0.136662	1.200867	1.769595
H	-1.595368	1.303723	0.754248
H	-0.085601	2.120817	0.26667
H	2.708845	0.0	0.0
