14

C	-0.511161	0.022386	-1.43287
C	0.0	0.0	0.0
F	-0.140678	-1.125435	-2.111027
H	1.095601	0.0	0.0
H	-1.608026	0.062975	-1.462327
C	0.003185	1.18992	-2.175046
N	0.388033	2.101442	-2.804872
C	-0.519008	-1.191118	0.649168
N	-0.947938	-2.144165	1.189169
C	-0.412698	1.266939	0.749509
H	0.086489	2.127022	0.296033
H	-1.4948	1.432594	0.754712
H	-0.061017	1.194446	1.779727
H	2.695362	0.0	0.0
