14

C	-0.390173	-0.01523	-1.472469
C	0.0	0.0	0.0
F	-0.020505	1.180953	-2.067153
H	1.096108	0.0	0.0
H	0.153652	-0.818933	-1.980148
C	-1.843042	-0.176081	-1.685321
N	-3.001948	-0.280318	-1.846715
C	-0.461783	-1.233242	0.615346
N	-0.822128	-2.234407	1.117047
C	-0.499632	1.236828	0.736277
H	-0.084744	2.122446	0.25361
H	-1.591781	1.308254	0.754948
H	-0.126938	1.212213	1.762433
H	2.709432	0.0	0.0
