14

C	-0.387766	-0.001185	-1.47363
C	0.0	0.0	0.0
F	-0.025361	1.204003	-2.054681
H	1.096155	0.0	0.0
H	0.162755	-0.795345	-1.989044
C	-1.838947	-0.170386	-1.690967
N	-2.996602	-0.280817	-1.857219
C	-0.46129	-1.239511	0.60295
N	-0.820352	-2.245865	1.095047
C	-0.501617	1.228951	0.7479
H	-1.593783	1.299893	0.763707
H	-0.132403	1.193386	1.775161
H	-0.085302	2.119531	0.275839
H	2.709035	0.0	0.0
