14

C	-0.497188	0.045999	-1.43621
C	0.0	0.0	0.0
F	-0.112182	-1.086059	-2.132368
H	1.095462	0.0	0.0
H	-1.594731	0.076057	-1.47103
C	0.001397	1.234415	-2.156194
N	0.393206	2.157497	-2.766039
C	-0.518237	-1.203122	0.62864
N	-0.949184	-2.166979	1.14718
C	-0.417883	1.252915	0.769721
H	0.090933	2.12047	0.342875
H	-1.500842	1.421337	0.762502
H	-0.083236	1.158968	1.80464
H	2.697871	0.0	0.0
