11
Coordinates from ORCA-job run
  C   -0.94020150771432     -0.13227123450386      0.29210093255909
  C   0.51548739053403     -0.57656967354078      0.29067053697440
  Cl  -1.95558510650154     -1.54088028393493      0.70169974705088
  H   0.79067817952331     -0.96597085437166      1.27227515001994
  H   -1.09987127190022      0.62128930128607      1.06220805034191
  H   0.71637916001881     -1.31770344220111     -0.48029638696298
  C   -1.32620683080928      0.41415231450159     -1.00508792750584
  N   -1.60895334965525      0.85337312986912     -2.05666722238785
  N   1.40999838223940      0.59447378536214      0.02735791055492
  O   2.40805796774529      0.38973397115420     -0.65300383712620
  O   1.08821698651978      1.65937298637923      0.54974304648172
