11
Coordinates from ORCA-job run
  C   -0.75326389586861     -0.38751348588811     -0.22888020645919
  C   0.38202413188045      0.46115370684878      0.31605485156097
  Cl  -0.81918851243676     -0.25449767258680     -2.00517753045145
  H   0.39099897860492      0.43101465821352      1.40827849849852
  H   -0.56615297867657     -1.43660799107662      0.00485188868935
  H   0.33386273651276      1.48798216878098     -0.04014424062947
  C   -2.01723416850399      0.03636132706013      0.36300473365600
  N   -3.02598906479194      0.36726671301462      0.86463931548518
  N   1.69709713969510     -0.09753439199168     -0.13012574002965
  O   1.82237948816143     -1.31744024715642     -0.08215985853827
  O   2.55446614542321      0.70981521478161     -0.46934171178198
