11
Coordinates from ORCA-job run
  C   -0.75814575624723     -0.36081862693841     -0.26425736139508
  C   0.38365538846187      0.44230083714165      0.33343622184609
  Cl  -0.73337097446472     -0.23292710940068     -2.04185508826675
  H   0.34043580082265      0.41211167126587      1.42489433946689
  H   -0.62731281197781     -1.41579598120650     -0.01933498213728
  H   0.39277147468569      1.47018708533368     -0.02296623633013
  C   -2.02887866883378      0.12139567017085      0.26545443995680
  N   -3.03384889563021      0.52115664855352      0.72250145908830
  N   1.69535838057432     -0.16872347635101     -0.05068459705325
  O   1.76720675231354     -1.39304412640769     -0.00607522109611
  O   2.60112931029569      0.60415740783872     -0.34111297407948
