11
Coordinates from ORCA-job run
  C   -0.80793307830932     -0.57205453111097     -0.07730095519157
  C   0.61491056600126     -0.23479620064003     -0.49878878006538
  Cl  -1.56624523231682     -1.52626109430133     -1.38040925723255
  H   1.18183749030499     -1.15058592191879     -0.67405096215098
  H   -0.79531973632928     -1.19262619634808      0.81775737252211
  H   0.64092897042940      0.40053604923057     -1.38171263539256
  C   -1.58220730202138      0.63693916584576      0.18547667500534
  N   -2.18176295175147      1.62440665254905      0.39547343102692
  N   1.31725229199228      0.50064784550224      0.59981461668749
  O   2.10531833321348      1.37699355982296      0.26570620857439
  O   1.07322064878685      0.13680067136863      1.74803428621678
