11
Coordinates from ORCA-job run
  C   -0.76742196362098     -0.29248497518971     -0.31056780942427
  C   0.40022712302371      0.33473815195347      0.43096965698125
  Cl  -0.87822603858456      0.37728269264985     -1.95851437110379
  H   0.44225289351545     -0.03706774574782      1.45752672648542
  H   -0.59735563818265     -1.36525404462834     -0.41335968406187
  H   0.36015623424319      1.42175700900338      0.41470596942438
  C   -2.00468295629275     -0.05244981377697      0.42394158958529
  N   -2.98340072677118      0.13506217697873      1.04495128007388
  N   1.68814541342102     -0.07004962122926     -0.21503188025056
  O   1.79814562609893     -1.25221877560487     -0.52593281350712
  O   2.54016003314982      0.80068494559156     -0.34868866420261
