11
Coordinates from ORCA-job run
  C   -0.77932042321567     -0.30039461119231     -0.27124249146224
  C   0.41354159815993      0.38413277668843      0.37284596292658
  Cl  -0.83120646317049      0.07042840084929     -2.01388553583445
  H   0.43801867551776      1.45090861759255      0.16093191792082
  H   -0.66985713124746     -1.38196924891912     -0.17892199723077
  H   0.42076377108095      0.20260186967187      1.45028849013105
  C   -2.00970430714913      0.13339647866080      0.38116627362462
  N   -2.98511676467720      0.48074467682414      0.93496742611429
  N   1.68446311480579     -0.20076820713004     -0.15934964736283
  O   2.59140862448670      0.58299006122210     -0.41455368047887
  O   1.72600930540882     -1.42307081426767     -0.26224671834816
