11
Coordinates from ORCA-job run
  C   -0.88232210801237     -0.47112354504264     -0.05567213644998
  C   0.45538765933265     -0.29034991117368      0.63936919587678
  Cl  -0.69117257937825     -1.45479486402706     -1.52994987615093
  H   0.34345089265262      0.33666814938634      1.52773279583127
  H   -1.51429176286103     -1.05526199968793      0.61933619783560
  H   0.87700137983995     -1.25521999344302      0.91462634413315
  C   -1.58230410401654      0.77826386239076     -0.34150970119897
  N   -2.21143765898651      1.75550443959900     -0.50670497134143
  N   1.47846730864688      0.38086916327595     -0.22353534463701
  O   1.08320993527036      1.23516074873867     -1.00827151887798
  O   2.64201103751226      0.04228394998360     -0.03642098502049
