14

C	-0.364395	0.035908	-1.483082
C	0.0	0.0	0.0
F	-1.759174	0.109156	-1.580207
H	1.094541	0.0	0.0
H	-0.051173	-0.891522	-1.9703
N	0.20824	1.155034	-2.160093
H	1.197764	0.961523	-2.285561
H	0.145733	1.942494	-1.520676
C	-0.513012	-1.211467	0.652468
N	-0.94055	-2.179628	1.163492
N	-0.435479	1.240834	0.634689
H	-1.40444	1.176628	0.918048
H	0.13873	1.414873	1.449254
Br	3.474622	0.0	0.0
