14

C	-0.480982	-0.021024	-1.4538
C	0.0	0.0	0.0
F	-0.276973	-1.296418	-1.964193
H	1.098848	0.0	0.0
H	0.174597	0.632327	-2.043897
N	-1.871942	0.299758	-1.524901
H	-2.112877	0.645522	-2.443712
H	-2.038451	1.029279	-0.840552
C	-0.525295	-1.153545	0.72526
N	-0.996255	-2.01033	1.375774
N	-0.450241	1.256731	0.647655
H	0.368654	1.853233	0.719914
H	-0.748737	1.06183	1.593988
Br	3.490195	0.0	0.0
