14

C	-0.404451	0.061607	-1.478532
C	0.0	0.0	0.0
F	-0.249432	1.39274	-1.871542
H	1.10183	0.0	0.0
H	-1.463479	-0.180109	-1.611777
N	0.399435	-0.763646	-2.314148
H	1.359355	-0.785645	-1.976537
H	0.030285	-1.702432	-2.367297
C	-0.450991	-1.294488	0.518975
N	-0.812916	-2.333053	0.930302
N	-0.611324	1.08567	0.771455
H	-0.176793	1.088101	1.688923
H	-0.315993	1.942517	0.316963
Br	3.520428	0.0	0.0
