14

C	-0.488	-0.007659	-1.449949
C	0.0	0.0	0.0
F	-0.221563	-1.257322	-1.991638
H	1.098849	0.0	0.0
H	0.130538	0.690144	-2.029671
N	-1.890528	0.246353	-1.503022
H	-2.116882	0.881778	-0.746314
H	-2.159499	0.65667	-2.386339
C	-0.523832	-1.160072	0.717406
N	-0.925888	-2.072483	1.336793
N	-0.480386	1.241698	0.658594
H	0.213271	1.953746	0.443841
H	-0.419906	1.105787	1.661859
Br	3.498857	0.0	0.0
