10
Coordinates from ORCA-job run
  C   0.18596952188535      0.39199223721587     -0.26449167939999
  C   -1.09618527077865     -0.18203941037147      0.29648218524527
  Br  0.03288978117517      0.55803385417231     -2.22017289314260
  H   -1.24528290647384     -1.19092753736876     -0.08928605332750
  H   0.31864958413160      1.43094430672379      0.05592073896208
  H   -1.02891628723475     -0.22660615492691      1.38889491401866
  H   -1.95322169987445      0.43624269027658      0.03068437670319
  N   1.29642545315960     -0.47922284298128      0.02340403571032
  H   1.31393571908443     -0.69062487414604      1.01436075641771
  H   2.17473610492554     -0.04779226859410     -0.23479638118715
