10
Coordinates from ORCA-job run
  C   0.18224685023143      0.46280754669319     -0.06222738740229
  C   -1.11934450696868     -0.25173959862585      0.22233397440989
  Br  0.24312849277863      0.83031694175132     -2.06576934283896
  H   -1.14182274303874     -1.22125450099281     -0.28008160916830
  H   0.19235552722885      1.47155963137096      0.34699787549247
  H   -1.20111097869164     -0.41019657449597      1.30032898656591
  H   -1.97091512155622      0.33151311622145     -0.12548782579140
  N   1.29896836622509     -0.25543018154757      0.41159702330487
  H   1.34572624280481     -1.18435237330739      0.01327424943452
  H   2.17076787098646      0.22577599293268      0.23803405599331
