19

C	0.0	0.0	0.0
C	-0.552833	0.029614	-1.427241
F	1.40289	0.0	0.0
H	-1.655423	0.123906	-1.255333
C	-0.457173	1.236648	0.746649
H	-1.555011	1.224613	0.759335
H	-0.069029	1.211536	1.769211
H	-0.09026	2.142074	0.25561
C	-0.467066	-1.247929	0.718662
H	-0.041754	-2.14751	0.267157
H	-0.145403	-1.203897	1.763156
H	-1.564378	-1.26203	0.669681
C	-0.264934	-1.232013	-2.246375
H	0.797454	-1.488321	-2.208945
H	-0.549027	-1.080735	-3.290464
H	-0.852725	-2.064638	-1.857462
C	-0.064234	1.204251	-2.146189
N	0.334708	2.124478	-2.759938
H	-3.249601	0.0	0.0
