19

C	0.0	0.0	0.0
C	-0.368992	-0.124733	-1.499846
F	1.405645	0.0	0.0
H	0.44412	-0.744861	-1.893015
C	-0.51579	1.250511	0.662044
H	-0.127847	2.155464	0.188626
H	-0.226291	1.260591	1.717927
H	-1.610727	1.204918	0.580936
C	-0.474787	-1.219302	0.754033
H	-0.141626	-2.138927	0.263006
H	-0.083746	-1.199072	1.774729
H	-1.570276	-1.179233	0.765807
C	-0.332341	1.202923	-2.254597
H	-1.17595	1.824639	-1.963537
H	0.603231	1.732712	-2.055338
H	-0.400331	1.019534	-3.331029
C	-1.589757	-0.897958	-1.839788
N	-2.192941	-1.71045	-2.446697
H	-3.171317	0.0	0.0
