12

C	-0.524497	-0.018313	-1.41862
C	0.0	0.0	0.0
Cl	0.046661	1.377009	-2.333628
H	1.089774	0.0	0.0
H	-0.370973	-0.883349	0.525139
H	-0.360683	0.90794	0.488641
C	-0.195412	-1.239372	-2.149508
N	0.059165	-2.221326	-2.741411
N	-2.071193	0.035813	-1.328326
O	-2.619704	-1.047789	-1.160135
O	-2.612227	1.130052	-1.330005
Cl	3.401742	0.0	0.0
