12

C	-0.580968	0.063443	-1.388764
C	0.0	0.0	0.0
Cl	0.119374	-1.188832	-2.439553
H	1.088093	0.0	0.0
H	-0.34972	-0.923898	0.465351
H	-0.37032	0.849953	0.578039
C	-2.039971	-0.078997	-1.389884
N	-3.203571	-0.224992	-1.313629
N	-0.28378	1.413306	-2.071525
O	0.665235	2.05354	-1.652917
O	-1.021607	1.711698	-3.005428
Cl	3.479972	0.0	0.0
