12

C	-0.526141	-0.011453	-1.417856
C	0.0	0.0	0.0
Cl	0.039724	1.390853	-2.325019
H	1.089833	0.0	0.0
H	-0.36077	0.90552	0.492777
H	-0.370419	-0.885677	0.52156
C	-0.195045	-1.227499	-2.156383
N	0.061658	-2.205517	-2.754464
N	-2.07262	0.039228	-1.325725
O	-2.619994	-1.047316	-1.172807
O	-2.614763	1.133147	-1.311427
Cl	3.40268	0.0	0.0
