15

C	0.0	0.0	0.0
C	-0.671939	-0.027076	-1.342324
Cl	1.776666	0.0	0.0
H	-1.833924	0.070001	-0.988887
H	-0.508642	-0.975525	-1.853232
C	-0.380424	1.182786	0.794219
N	-0.565357	2.075277	1.535307
C	-0.47399	-1.246544	0.752152
H	-1.570938	-1.19121	0.767654
H	-0.076083	-1.24884	1.768346
H	-0.133903	-2.139187	0.221479
N	-0.268619	1.032158	-2.245351
O	-0.096077	2.16446	-1.779156
O	-0.184642	0.761442	-3.453849
H	-2.938076	0.0	0.0
