15

C	0.0	0.0	0.0
C	-0.412789	0.29399	-1.443735
F	1.404338	0.0	0.0
H	0.044164	1.262991	-1.684105
H	-0.349036	-0.991781	0.301296
N	-0.452633	1.049722	0.876128
H	0.35165	1.480981	1.310212
H	-1.078804	0.702692	1.590497
C	-1.928728	0.375427	-1.607609
H	-2.182909	0.628157	-2.639684
H	-2.434352	-0.554379	-1.35176
H	-2.344994	1.135918	-0.953618
C	0.173909	-0.713279	-2.335526
N	0.599768	-1.535085	-3.0583
Cl	-4.968786	0.0	0.0
