15

C	0.0	0.0	0.0
C	-0.287408	0.020298	-1.521381
F	1.380522	0.0	0.0
H	0.269288	0.902904	-1.860245
H	-0.302917	-0.95374	0.451826
N	-0.532235	1.164052	0.631854
H	-1.541429	1.157483	0.475766
H	-0.401728	1.082307	1.634306
C	-1.723884	0.104086	-2.02297
H	-2.21294	1.01083	-1.675378
H	-2.334825	-0.720463	-1.665578
H	-1.718789	0.107106	-3.116374
C	0.376461	-1.147873	-2.114062
N	0.878734	-2.088696	-2.60534
Cl	-4.239267	0.0	0.0
