15

C	0.0	0.0	0.0
C	-0.492334	0.251441	-1.423016
F	1.380546	0.0	0.0
H	-1.582836	0.354902	-1.348291
H	-0.296176	-1.017973	0.292418
N	-0.46847	1.029518	0.873242
H	-1.488214	1.028727	0.805311
H	-0.23073	0.784276	1.828149
C	-0.155735	-0.919216	-2.348718
H	-0.481189	-0.709061	-3.368494
H	-0.680322	-1.81106	-1.999724
H	0.919718	-1.110005	-2.354315
C	0.08179	1.496053	-1.933738
N	0.550636	2.471022	-2.391079
Cl	-3.568997	0.0	0.0
