15

C	0.0	0.0	0.0
C	-0.446928	-0.10725	-1.460137
F	1.408657	0.0	0.0
H	-1.546261	-0.126081	-1.417868
H	-0.342463	-0.877189	0.55172
N	-0.482462	1.177522	0.595084
H	-0.039417	1.994399	0.196463
H	-0.396272	1.174398	1.599155
C	0.118267	-1.35503	-2.140826
H	-0.229809	-1.427162	-3.173044
H	1.209542	-1.335138	-2.137879
H	-0.220157	-2.244826	-1.605424
C	-0.021205	1.09815	-2.175048
N	0.349175	2.07369	-2.71476
Cl	-3.73567	0.0	0.0
