15

C	0.0	0.0	0.0
C	-0.284676	-0.019231	-1.52809
F	1.383484	0.0	0.0
H	0.241183	0.868787	-1.906367
H	-0.341282	-0.923531	0.473781
N	-0.534914	1.105932	0.710656
H	-0.516631	1.944298	0.142001
H	-1.506084	0.908683	0.942469
C	-1.744206	0.026078	-1.960248
H	-1.802595	0.037179	-3.051908
H	-2.311125	-0.820391	-1.580726
H	-2.246981	0.907634	-1.569225
C	0.387561	-1.17847	-2.125364
N	0.895128	-2.115243	-2.618909
Cl	-4.345108	0.0	0.0
