15

C	0.0	0.0	0.0
C	-0.444019	0.066465	-1.471022
F	1.388828	0.0	0.0
H	-1.540584	0.11403	-1.43126
H	-0.34558	-0.951818	0.411191
N	-0.468141	1.048787	0.843327
H	-1.475675	0.910157	0.940195
H	-0.323485	1.943278	0.386117
C	0.004355	-1.157106	-2.270131
H	-0.422628	-2.0543	-1.814847
H	1.092803	-1.242601	-2.271253
H	-0.347691	-1.101371	-3.302456
C	0.05689	1.30031	-2.076138
N	0.454169	2.298005	-2.552653
Cl	-3.535929	0.0	0.0
