15

C	0.0	0.0	0.0
C	-0.343977	0.231752	-1.522603
F	1.385378	0.0	0.0
H	0.633569	0.284722	-2.015509
H	-0.336673	-0.991673	0.304281
N	-0.489613	0.935409	0.950762
H	-1.494503	0.761278	1.028508
H	-0.370661	1.880445	0.606126
C	-1.100588	1.522153	-1.840027
H	-1.269891	1.59571	-2.917305
H	-2.061812	1.524014	-1.327597
H	-0.501481	2.387735	-1.539736
C	-0.988037	-0.943554	-2.115594
N	-1.399344	-1.887645	-2.67915
Cl	-3.55221	0.0	0.0
