15

C	0.0	0.0	0.0
C	-0.373824	0.238282	-1.493395
F	1.412831	0.0	0.0
H	0.60453	0.275897	-1.986409
H	-0.278755	-1.013098	0.30855
N	-0.473813	1.038734	0.850833
H	-1.493654	1.029205	0.748136
H	-0.282358	0.773149	1.81145
C	-1.098468	1.546831	-1.819576
H	-2.107105	1.533273	-1.411171
H	-0.536912	2.381113	-1.396433
H	-1.152652	1.667119	-2.905087
C	-1.029132	-0.930652	-2.08687
N	-1.42218	-1.882228	-2.651941
Cl	-3.534287	0.0	0.0
