15

C	0.0	0.0	0.0
C	-0.338387	0.245081	-1.522559
F	1.392491	0.0	0.0
H	0.640725	0.299582	-2.012573
H	-0.336883	-0.9938	0.296402
N	-0.486356	0.930152	0.955811
H	-1.492149	0.759623	1.032561
H	-0.362495	1.877147	0.618327
C	-1.091143	1.540908	-1.829262
H	-0.493996	2.40364	-1.517587
H	-1.255309	1.625766	-2.906427
H	-2.054705	1.537912	-1.321204
C	-0.986431	-0.920388	-2.128936
N	-1.38653	-1.872573	-2.688375
Cl	-3.539623	0.0	0.0
