16

C	0.0	0.0	0.0
C	-0.5258	0.013359	-1.452265
Br	1.930646	0.0	0.0
H	-1.64322	0.132752	-1.252241
C	-0.471438	1.149446	0.761549
N	-0.61811	2.110398	1.423197
N	-0.445556	-1.273004	0.738051
O	-0.531487	-1.17885	1.949329
O	-0.572518	-2.284829	0.0697
N	-0.274567	-1.228561	-2.248464
O	-1.265244	-1.751906	-2.747005
O	0.885009	-1.600227	-2.397242
N	0.053669	1.131935	-2.251841
O	0.139256	0.961257	-3.466461
O	0.324034	2.17138	-1.659008
F	-2.46925	0.0	0.0
