13

C	5.8e-05	-0.024587	0.014146
C	-0.50739	-0.146936	-1.434649
Cl	1.834372	0.138614	-0.017429
H	-1.613765	-0.174482	-1.293525
H	-0.138397	-1.05147	-1.926
N	-0.591426	1.029692	0.757025
H	-0.380716	1.901495	0.274533
H	-1.650679	0.860409	0.609337
C	-0.258852	-1.310614	0.685695
N	-0.418434	-2.354954	1.198507
C	-0.165902	1.024918	-2.225362
N	0.10532	1.966403	-2.873274
H	-2.971353	0.408829	-0.02408
