13

C	0.0	0.0	0.0
C	-0.518981	0.137537	-1.418001
F	1.368181	0.0	0.0
H	-0.491405	-0.851113	-1.883817
H	-1.577887	0.423832	-1.339866
N	-0.357078	1.21654	0.852743
O	-0.53158	2.268029	0.253859
O	-0.302693	1.053329	2.064829
C	-0.446234	-1.223568	0.671451
N	-0.577394	-2.276298	1.17626
C	0.274177	1.062026	-2.218066
N	0.899214	1.764797	-2.920005
Cl	-3.297247	0.0	0.0
