13

C	0.0	0.0	0.0
C	-0.525547	0.386115	-1.37223
F	1.347165	0.0	0.0
H	-0.490348	-0.505338	-2.005076
H	-1.587174	0.647511	-1.249549
N	-0.371523	1.041386	1.057269
O	-0.549582	2.182673	0.657661
O	-0.323003	0.660683	2.219753
C	-0.45504	-1.324747	0.438169
N	-0.587164	-2.455102	0.729727
C	0.266361	1.441768	-1.990547
N	0.905709	2.281146	-2.504491
Cl	-3.315074	0.0	0.0
