13

C	0.0	0.0	0.0
C	-0.522645	0.543082	-1.312331
F	1.352416	0.0	0.0
H	-0.191072	1.578306	-1.403995
H	-1.625205	0.509196	-1.243257
N	-0.373173	0.940144	1.154119
O	-0.46076	2.13078	0.88168
O	-0.410822	0.434944	2.268503
C	-0.446423	-1.362431	0.312913
N	-0.588773	-2.511376	0.514108
C	-0.019004	-0.245722	-2.427807
N	0.390593	-0.851937	-3.345954
Cl	-3.344982	0.0	0.0
