16

C	0.0	0.0	0.0
C	-0.250049	0.058569	-1.542452
Br	1.922794	0.0	0.0
H	0.4976	-0.591259	-1.997713
H	-0.423423	0.815334	0.563549
N	-0.441434	-1.285609	0.603417
O	-0.502157	-2.265643	-0.133763
O	-0.566602	-1.300231	1.820272
N	0.17207	1.435604	-1.990643
O	0.69051	1.517024	-3.105713
O	-0.075914	2.39766	-1.267401
C	-1.563364	-0.229272	-2.254044
H	-1.338405	-0.200934	-3.328376
H	-1.910325	-1.215322	-1.965761
H	-2.325521	0.476842	-1.950653
F	-2.349164	0.0	0.0
