16

C	0.0	0.0	0.0
C	-0.246305	0.045494	-1.54436
Br	1.922748	0.0	0.0
H	0.485123	-0.629825	-1.988282
H	-0.424628	0.819446	0.556808
N	-0.446772	-1.282581	0.60571
O	-0.510995	-2.262702	-0.131002
O	-0.573488	-1.294022	1.822212
N	0.209119	1.405027	-2.010198
O	0.758787	1.457727	-3.111594
O	-0.048101	2.384371	-1.313519
C	-1.566255	-0.213511	-2.254111
H	-1.94751	-1.181021	-1.948112
H	-1.339297	-0.209232	-3.328729
H	-2.306276	0.522796	-1.96852
F	-2.347898	0.0	0.0
