16

C	0.0	0.0	0.0
C	-0.438054	-0.231826	-1.46165
Br	1.923083	0.0	0.0
H	0.44111	-0.05095	-2.093219
H	-0.323265	0.971716	0.33686
N	-0.412698	-0.962008	1.071693
O	-0.44084	-0.481554	2.199077
O	-0.543683	-2.150903	0.812145
N	-1.329137	0.911923	-1.893286
O	-2.203833	0.693134	-2.7213
O	-0.982475	2.033572	-1.529941
C	-1.020987	-1.568137	-1.847965
H	-0.285429	-2.351465	-1.667368
H	-1.915975	-1.73226	-1.259247
H	-1.263374	-1.539116	-2.910702
F	-2.294934	0.0	0.0
