16

C	0.0	0.0	0.0
C	-0.461224	-0.070522	-1.469666
Br	1.917279	0.0	0.0
H	0.402556	0.175255	-2.098399
H	-0.3456	0.916766	0.452171
N	-0.416234	-1.090265	0.942764
O	-0.647709	-0.728666	2.088615
O	-0.348155	-2.255672	0.566133
N	-1.352892	1.126435	-1.736996
O	-2.174739	1.038805	-2.638641
O	-1.046531	2.179323	-1.183864
C	-1.09241	-1.349763	-1.968384
H	-1.983636	-1.504959	-1.367901
H	-1.353171	-1.221874	-3.019329
H	-0.394316	-2.181476	-1.866178
F	-2.367127	0.0	0.0
