16

C	0.0	0.0	0.0
C	-0.361324	0.191663	-1.513762
Cl	1.820679	0.0	0.0
H	0.453779	-0.250508	-2.085175
N	-0.464488	1.12317	0.752643
H	-1.495928	0.987067	0.668052
H	-0.186602	0.991965	1.720181
N	-0.44613	-1.32695	0.334945
H	-0.113262	-1.547517	1.26899
H	-1.475921	-1.173946	0.361629
N	-0.318801	1.655003	-1.872269
O	0.78994	2.10048	-2.165753
O	-1.361884	2.29399	-1.846274
C	-1.594263	-0.399753	-2.040008
N	-2.32019	-0.935093	-2.794648
F	-2.683427	0.0	0.0
