16

C	0.0	0.0	0.0
C	-0.375532	0.067975	-1.521518
Cl	1.789241	0.0	0.0
H	0.434807	-0.420617	-2.06162
N	-0.474464	1.180123	0.659597
H	-0.205211	1.120476	1.636486
H	-1.504971	1.033569	0.581632
N	-0.457283	-1.294063	0.442261
H	-0.122959	-1.439587	1.390784
H	-1.485084	-1.136031	0.458125
N	-0.333781	1.496678	-1.998288
O	-1.375012	2.140303	-2.012216
O	0.773044	1.913473	-2.339005
C	-1.612692	-0.563036	-1.985049
N	-2.345055	-1.16164	-2.685455
F	-2.698535	0.0	0.0
