16

C	0.0	0.0	0.0
C	-0.220055	-0.280325	-1.525211
Cl	1.843933	0.0	0.0
H	0.368071	0.473857	-2.049502
N	-0.462641	1.323553	0.293529
H	-0.200142	1.530304	1.253332
H	-1.494762	1.159214	0.265302
N	-0.474435	-1.110851	0.763092
H	-0.239063	-0.942436	1.737035
H	-1.507447	-0.969411	0.648643
N	-1.60853	-0.102148	-2.12842
O	-1.90044	1.051382	-2.411699
O	-2.246146	-1.104883	-2.411871
C	0.259831	-1.612227	-1.891645
N	0.67301	-2.645678	-2.264978
F	-2.701624	0.0	0.0
