16

C	0.0	0.0	0.0
C	-0.53001	0.04498	-1.450065
Cl	1.79702	0.0	0.0
H	-1.632799	0.016342	-1.280445
N	-0.483674	1.223894	0.586542
H	-0.175542	1.255583	1.554216
H	-1.508856	1.062781	0.564075
N	-0.44685	-1.250595	0.567174
H	-1.47357	-1.133347	0.543285
H	-0.141027	-1.275392	1.5349
N	-0.140381	-1.172833	-2.233181
O	0.912168	-1.134482	-2.870743
O	-0.909185	-2.127969	-2.189561
C	-0.103474	1.233292	-2.169106
N	0.193781	2.186585	-2.786759
F	-2.804032	0.0	0.0
