16

C	0.0	0.0	0.0
C	-0.285138	-0.040763	-1.541259
Cl	1.832269	0.0	0.0
H	0.194752	-0.944236	-1.913429
N	-0.465339	1.118586	0.745043
H	-0.203464	1.980904	0.281214
H	-1.49321	0.989158	0.67655
N	-0.474008	-1.250126	0.509879
H	-1.502231	-1.101369	0.435756
H	-0.249125	-1.239352	1.499635
N	0.428527	1.076564	-2.268221
O	0.222447	2.229949	-1.901275
O	1.160717	0.750724	-3.199271
C	-1.660378	-0.016216	-2.062384
N	-2.46975	-0.008598	-2.919729
F	-2.718325	0.0	0.0
