15

C	0.0	0.0	0.0
C	-0.16893	0.258814	-1.583665
Cl	1.789099	0.0	0.0
H	0.52845	-0.4894	-1.981789
C	-0.432137	1.076899	0.871265
N	-0.58284	1.895121	1.704211
C	-0.398461	-1.339672	0.413155
N	-0.687092	-2.413343	0.792711
C	0.427895	1.572949	-1.868262
N	0.838513	2.641327	-2.139213
C	-1.40615	0.135335	-2.498403
H	-0.971414	-0.08513	-3.480052
H	-1.998305	1.036337	-2.508726
H	-2.03786	-0.694088	-2.208889
Cl	-2.906644	0.0	0.0
