15

C	0.0	0.0	0.0
C	-0.540535	0.118625	-1.444482
Cl	1.78938	0.0	0.0
H	-1.625644	-0.065697	-1.316029
C	-0.447523	1.135217	0.817107
N	-0.698356	2.062366	1.494414
C	-0.419152	-1.260338	0.624406
N	-0.640478	-2.278914	1.166857
C	0.046673	-0.91694	-2.286404
N	0.510798	-1.712425	-3.016002
C	-0.337707	1.511235	-2.034991
H	-0.703648	1.520949	-3.063132
H	0.715218	1.805072	-2.035537
H	-0.922536	2.231798	-1.459659
Cl	-3.34552	0.0	0.0
