15

C	0.0	0.0	0.0
C	-0.502556	0.092736	-1.464221
Cl	1.789409	0.0	0.0
H	-1.585489	-0.105665	-1.372837
C	-0.428676	1.151231	0.800149
N	-0.57746	2.099157	1.479288
C	-0.405784	-1.264196	0.627782
N	-0.561392	-2.299189	1.162429
C	0.126065	-0.945052	-2.274084
N	0.595185	-1.768517	-2.968821
C	-0.293763	1.482082	-2.061704
H	-0.923269	2.195728	-1.527567
H	-0.598811	1.473492	-3.10937
H	0.750997	1.796329	-2.005372
Cl	-3.256258	0.0	0.0
