15

C	0.0	0.0	0.0
C	-0.380629	-0.119493	-1.532431
Cl	1.792772	0.0	0.0
H	0.548203	0.117647	-2.060881
C	-0.396918	1.283118	0.584718
N	-0.533863	2.355004	1.047866
C	-0.431486	-1.13498	0.816059
N	-0.532374	-2.103465	1.475834
C	-1.310751	0.895808	-2.031465
N	-1.78682	1.731862	-2.7092
C	-0.78204	-1.538501	-1.925025
H	0.001364	-2.243035	-1.634354
H	-0.906759	-1.583647	-3.010705
H	-1.720431	-1.79472	-1.438699
Cl	-2.985575	0.0	0.0
