15

C	0.0	0.0	0.0
C	-0.531316	0.831724	-1.194892
Cl	1.789302	0.0	0.0
H	-0.147687	0.342961	-2.097384
C	-0.441401	0.587524	1.268028
N	-0.747925	1.111491	2.27486
C	-0.440332	-1.391592	-0.118376
N	-0.710948	-2.528675	-0.239428
C	0.043151	2.17799	-1.136785
N	0.476583	3.268076	-1.093222
C	-2.060441	0.876545	-1.210321
H	-2.399609	1.392451	-2.111126
H	-2.50846	-0.116726	-1.200745
H	-2.476337	1.396091	-0.348577
Cl	-4.977762	0.0	0.0
