15

C	0.0	0.0	0.0
C	-0.378432	0.186259	-1.527509
Cl	1.79269	0.0	0.0
H	0.553324	0.515542	-1.997859
C	-0.395652	1.142388	0.827101
N	-0.534559	2.094827	1.502024
C	-0.434154	-1.274112	0.573601
N	-0.522585	-2.3586	1.021208
C	-1.3006	1.287708	-1.817598
N	-1.779263	2.243353	-2.311635
C	-0.789543	-1.124307	-2.193037
H	-0.014584	-1.880573	-2.040993
H	-1.734377	-1.462393	-1.772097
H	-0.904834	-0.955755	-3.266646
Cl	-2.980789	0.0	0.0
