15

C	0.0	0.0	0.0
C	-0.521582	0.050553	-1.456765
Cl	1.789333	0.0	0.0
H	-1.60925	-0.122345	-1.338767
C	-0.41953	1.170947	0.774271
N	-0.550187	2.150056	1.411425
C	-0.406607	-1.238391	0.677009
N	-0.603941	-2.231787	1.272877
C	0.077197	-1.028919	-2.234735
N	0.570564	-1.86056	-2.903112
C	-0.296643	1.408344	-2.115148
H	-0.663982	1.371045	-3.143216
H	-0.869258	2.166111	-1.577003
H	0.761145	1.684016	-2.130021
Cl	-3.295379	0.0	0.0
