11
Coordinates from ORCA-job run
  C   -0.60052866363069      0.56305633842305     -0.14899073437706
  C   0.90998645537012      0.43649637084687     -0.18003157830211
  F   -0.92806552569911      1.77289952047074      0.37303558232376
  H   1.31238354156888      1.25596918081620     -0.78104376750578
  H   -1.08493828130661      0.42888391884464     -1.11513914526385
  H   1.27938525780018      0.54562405070435      0.84272946025486
  N   -1.16168465073298     -0.50129941251706      0.76082211427715
  O   -0.88433557059559     -0.39408372522179      1.94967043458278
  O   -1.82515482102226     -1.38497650936553      0.22623023314082
  C   1.32852665828143     -0.84561954033627     -0.73780605319431
  N   1.65442559996662     -1.87795019266518     -1.18947654593626
