11
Coordinates from ORCA-job run
  C   -0.37430824197773      0.39562885667991      0.38258155453601
  C   0.70868381962729     -0.29095985453705     -0.43181211604915
  F   -0.04062132264711      0.43268796228367      1.68844233462957
  H   0.86194064987863     -1.29638076861276     -0.02803598031264
  H   -0.60917426049271      1.40036595656223      0.02914391972470
  H   0.38293515506105     -0.37749477318122     -1.47022173761117
  N   -1.64685787121279     -0.41015698065667      0.21928433965257
  O   -2.07638776409787     -1.01613448306615      1.18861996324643
  O   -2.11740805997781     -0.37931836749582     -0.91314762636016
  C   1.95815862243175      0.46070626862317     -0.35938525340513
  N   2.95203927340730      1.08105618340069     -0.30546939805102
