11
Coordinates from ORCA-job run
  C   -0.56262344838550      0.61805269649043      0.03088527200961
  C   0.93557146178149      0.40910139413671     -0.06978344954510
  F   -0.80473566485895      1.65064501157307      0.87832233669964
  H   1.31609263466891      0.20261719171794      0.93366706810829
  H   -1.05950459053316      0.79128713282291     -0.92264948319475
  H   1.39019389774983      1.33687568158656     -0.42648810272310
  N   -1.18983557616481     -0.62157705874099      0.61878636443531
  O   -1.91066029428086     -1.27689414962581     -0.12802534864111
  O   -0.90170902712536     -0.87073366677017      1.78341826486286
  C   1.26487961646674     -0.68698679567664     -0.97559347978620
  N   1.52133099068167     -1.55438743751402     -1.72253944222543
