11
Coordinates from ORCA-job run
  C   -0.47223014780876      0.64913017451925      0.28841682867335
  C   0.70128947987568      0.40428132761846     -0.64183119356763
  F   -0.04924077444673      0.99238333818778      1.52240916356847
  H   1.27090893174794      1.33295137425662     -0.73092191921044
  H   -1.15034722642895      1.41144135186379     -0.09845489587014
  H   0.32405242152295      0.13307774930376     -1.62962788188197
  N   -1.29326599178733     -0.62015775966919      0.38000588500639
  O   -1.35441280001414     -1.19586435528067      1.45447799612660
  O   -1.81884796677327     -0.94752576171077     -0.67901646688015
  C   1.57265964899638     -0.65362002278220     -0.13414535925557
  N   2.26843442511622     -1.50709741630682      0.26968784329107
