11
Coordinates from ORCA-job run
  C   -0.50506783630226      0.66308753793519      0.08237648264598
  C   0.97028581377412      0.31397195438195      0.09458166974619
  F   -0.75083498491249      1.56071868816231      1.07064119209451
  H   1.21247069575081     -0.09466153837138      1.07883501321974
  H   -0.87103274938922      1.04466441175441     -0.86980000464042
  H   1.54380769634970      1.23349989979190     -0.04748740490872
  N   -1.30355708204797     -0.58245374847388      0.37756406878240
  O   -1.98746871484548     -1.02457711932295     -0.54084832380778
  O   -1.17642634884927     -1.04951014457149      1.50325579031928
  C   1.30312237417959     -0.64837723713276     -0.95109579148511
  N   1.56570113629245     -1.41636270415333     -1.79802269196608
