11
Coordinates from ORCA-job run
  C   -0.46943490077866      0.66659961991618      0.25016782230794
  C   0.68433893744263      0.35785084556137     -0.68569899455792
  F   -0.02132078071535      1.10160956247130      1.44569724121870
  H   1.24652296274353      1.27949659239908     -0.85694660028618
  H   -1.15991735934902      1.39561248853178     -0.17691401715733
  H   0.28605072196868      0.01247103347730     -1.64158077700987
  N   -1.28160649405211     -0.59552889216578      0.45364187984179
  O   -1.31607351437589     -1.09061746766597      1.56866151151863
  O   -1.82872446991199     -1.00192980078218     -0.56641458034281
  C   1.57321228618583     -0.65567673837561     -0.12115861261682
  N   2.28695261084236     -1.46988724336746      0.32954512708386
