11
Coordinates from ORCA-job run
  C   -0.47500226629099      0.65881861708680      0.26221561300551
  C   0.71191609979240      0.38376638553528     -0.64226530455819
  F   -0.06992066248098      1.03798933422167      1.49176091773266
  H   0.34886367577260      0.08293305110651     -1.62685703139582
  H   -1.14513821813398      1.41044705329761     -0.15789650161221
  H   1.28434203935961      1.30855418888314     -0.75145413921365
  N   -1.30024652231799     -0.60548116877718      0.37901243221150
  O   -1.37241679044458     -1.15347085168370      1.46713837656156
  O   -1.81640914225226     -0.95894636396107     -0.67624707593101
  C   1.57358444978707     -0.65965889900623     -0.09014671182886
  N   2.25942733720911     -1.50595134670283      0.34473942502848
