13
Coordinates from ORCA-job run
  C   -0.54994408198867      0.29025916347323      0.00130823998550
  C   0.64192845679469      0.22143814210822     -0.58391504759028
  H   0.79994481681932      0.91776555837833     -1.40348105104592
  N   -1.61493096796224      1.19317877401894     -0.45918406467804
  O   -1.28149151040635      2.14830257706031     -1.14786639826587
  O   -2.75714226544463      0.88240504793033     -0.13608452000892
  N   -0.94993843898433     -0.51402202178051      1.15272339686237
  O   -0.94556613219426     -1.73490952508905      1.01690042355629
  O   -1.23247005811957      0.11631283559936      2.16769189056209
  C   1.74990335991939     -0.70300157942885     -0.20818871816186
  H   1.93709227077251     -1.39896429556593     -1.03093636199415
  H   1.53276823422020     -1.28601732834580      0.68474101375562
  H   2.66884631657394     -0.13274734835858     -0.05270880297683
