13
Coordinates from ORCA-job run
  C   -0.57759692300406      0.21884913811435     -0.06980472029736
  C   0.70248819213097      0.41123967088124     -0.37290368380777
  H   0.91070645654105      1.28730061436722     -0.98178001381860
  N   -1.64077386201040      1.15382058707386     -0.46639027321367
  O   -2.66524474259860      1.11610066613815      0.20783339131131
  O   -1.40500060436226      1.90747164701604     -1.40135943667560
  N   -1.08284614616031     -0.92138839019282      0.68966429718220
  O   -1.88648536845005     -1.63777053617241      0.09958613794539
  O   -0.64802941548110     -1.07846014011437      1.82777214076801
  C   1.84087222746847     -0.45948578191003      0.03877608561797
  H   1.51911894081997     -1.37226913713683      0.53652828600031
  H   2.48901711580465      0.09103910251428      0.72674105683483
  H   2.44277412930164     -0.71744744057869     -0.83566326784703
