13
Coordinates from ORCA-job run
  C   -0.55685907300880      0.27599400799732     -0.00279552653775
  C   0.70029669053920      0.35993433383795     -0.42736788688345
  H   0.92963971248121      1.23119327897386     -1.03550483493035
  N   -1.59255811939601      1.25066334972979     -0.37588659404735
  O   -2.75237949818743      0.86087616233778     -0.28348386303967
  O   -1.21582465290708      2.34377287977835     -0.77689931318091
  N   -1.06385987760539     -0.78064492436576      0.86803102123879
  O   -0.99603695584904     -1.93484818556772      0.45293883929981
  O   -1.49236346371363     -0.41039247536660      1.95736826546814
  C   1.78932652313477     -0.61601789828290     -0.13592886707028
  H   2.65852255375231     -0.08956119732907      0.26548668473931
  H   2.10467811678035     -1.09711102200605     -1.06620765492959
  H   1.48641804397954     -1.39485830973694      0.56124972987331
