13
Coordinates from ORCA-job run
  C   -0.55120254719290      0.28760418256436     -0.02170230585233
  C   0.72496294674006      0.35488109315837     -0.38861318640437
  H   0.99671792622586      1.23151262231830     -0.97106789132103
  N   -1.55113549137707      1.28891462056270     -0.41889670712612
  O   -2.72071157102429      0.91933653945405     -0.38587813823368
  O   -1.13726718721140      2.38261897955815     -0.77963775048690
  N   -1.11400969747188     -0.77494967089621      0.80709950678753
  O   -1.58456253898392     -0.41626934019651      1.88279939353853
  O   -1.04537014617267     -1.92303920793498      0.37569232006339
  C   1.78124348461648     -0.64878486422023     -0.07232043825449
  H   2.11894867836361     -1.12366411108904     -0.99798172079261
  H   1.43699554945188     -1.43081607653002      0.60168464780959
  H   2.64639059403624     -0.14734476674893      0.36782227027249
