13
Coordinates from ORCA-job run
  C   -0.59778199451572     -0.16121423983580      0.06126565195915
  C   0.62431854792982     -0.60430064864656     -0.21783513412974
  H   0.69380046161752     -1.66362853416507     -0.45146308197034
  N   -0.90576490315361      1.21179445109997      0.45201069478565
  O   -1.39547379821358      1.34856890484787      1.56945512527991
  O   -0.62785022636475      2.10170653679678     -0.34783377136699
  N   -1.79119970137483     -1.01714211266942      0.00310188016407
  O   -1.61688555644140     -2.22723010611157      0.05708732179649
  O   -2.86206474100497     -0.43353986324995     -0.13194484238430
  C   1.87020772695776      0.21459938338250     -0.23447252118916
  H   1.71457010019979      1.23327661809027      0.11543535477361
  H   2.25877529765134      0.26276462369847     -1.25579499035821
  H   2.63534878671262     -0.26565501323748      0.37998831263985
