13
Coordinates from ORCA-job run
  C   -0.60001826215781     -0.15795089236022      0.03917075562444
  C   0.64620316704748     -0.62026134122141      0.00846040740703
  H   0.74368750607935     -1.70140287564514      0.06481592793730
  N   -0.95393711433267      1.25872523989143      0.02956194196747
  O   -1.56265823192434      1.66009187958647      1.01730985979780
  O   -0.59555551034382      1.92327081584498     -0.93941511013493
  N   -1.77746707523771     -1.03750742041853      0.07840000643614
  O   -2.82926523978371     -0.54137754682023     -0.31291047828225
  O   -1.60586903918600     -2.18770900326916      0.45950285240470
  C   1.88431808464191      0.20527471290402     -0.08603078266762
  H   1.68731610044490      1.27426636916793     -0.03280284569480
  H   2.38611495968685     -0.00041201340580     -1.03588697455619
  H   2.57613065506557     -0.07500792425435      0.71182443976092
