13
Coordinates from ORCA-job run
  C   -0.53388316239627      0.31642108269831      0.03557502728778
  C   0.68323642467271      0.29391985524492     -0.49923054820528
  H   0.92411781909615      1.13387943391031     -1.14573649963752
  N   -1.07956478685618     -0.73689593271118      0.88704361850822
  O   -0.48562428380705     -0.97994934085239      1.93449716439445
  O   -2.07935000193549     -1.30350423869758      0.45498556791331
  N   -1.47682042982876      1.42549141071735     -0.17139339338610
  O   -1.28296444703057      2.15398746066383     -1.13539542638054
  O   -2.36077381411883      1.54061666708825      0.67175710292507
  C   1.71076614036991     -0.76674882245373     -0.29303635772760
  H   2.56818179863381     -0.34382133069716      0.23826725017547
  H   2.07340567263304     -1.12209396440410     -1.26047751263440
  H   1.33927307056754     -1.61130228050684      0.28414400676715
