13
Coordinates from ORCA-job run
  C   -0.58741347716125     -0.16608717634932      0.11776199107928
  C   0.60347949715623     -0.59594061507976     -0.28792867179139
  H   0.66029717815324     -1.65483157301494     -0.52676732872381
  N   -1.73935731441465     -1.06086414890227      0.30192462243167
  O   -2.61918450951814     -0.65288168648472      1.05362447767178
  O   -1.70887200027113     -2.13996413876058     -0.27454986186780
  N   -0.89641120129530      1.22519033356740      0.43643929245979
  O   -1.76289006520657      1.74864445809255     -0.25820881001908
  O   -0.25515262348295      1.75232792676226      1.34190716853014
  C   1.82857991668494      0.23920108278471     -0.44618839771217
  H   2.24701419431507      0.09380439761162     -1.44495827203172
  H   1.64382124175896      1.29939858988355     -0.28422768468475
  H   2.58608916328156     -0.08699745011050      0.27217147465807
