13
Coordinates from ORCA-job run
  C   -0.57172890477114      0.23869463531941     -0.05281633041831
  C   0.69682202821763      0.35997498987466     -0.43208876419521
  H   0.90528344560936      1.18871499263619     -1.10385170060611
  N   -1.07766401864004     -0.83239808316313      0.80086535703399
  O   -0.59705361151821     -0.93082242220419      1.92714947000591
  O   -1.92881425673171     -1.55767269417866      0.29406925330797
  N   -1.61874646747954      1.19111866919679     -0.45139963452835
  O   -1.39898246871836      1.88741748468967     -1.43352462525774
  O   -2.61276399714760      1.22563022997990      0.26717200290882
  C   1.82062955251253     -0.53289900206900     -0.02840403383701
  H   2.53846516795456      0.03493786668665      0.57051854649681
  H   2.34963308602480     -0.88464055495608     -0.91735166126028
  H   1.49392044468772     -1.38905611181221      0.55866212034950
