13
Coordinates from ORCA-job run
  C   -0.56516499381311      0.25938260397465      0.00255705407320
  C   0.70039839238613      0.41580189338689     -0.37345904346934
  H   0.92167831179762      1.34465316354647     -0.89278339143797
  N   -1.61892336516085      1.23605245180700     -0.31204991804608
  O   -1.26256289154996      2.36948317148179     -0.60484152875002
  O   -2.76916020631517      0.81005248199852     -0.28431753912653
  N   -1.06321742080290     -0.88570606075282      0.75869971623793
  O   -1.53359066474196     -0.62871856345967      1.86331669610943
  O   -0.94823816599287     -1.99499201940731      0.24342530966881
  C   1.80969948222862     -0.55140065003998     -0.13377773176077
  H   2.65149712529178     -0.03780169109739      0.33663149715006
  H   1.51133551077116     -1.39473889571627      0.48607340471538
  H   2.16424888590154     -0.94306788572188     -1.09147452536409
