13
Coordinates from ORCA-job run
  C   -0.60195977060442     -0.13854716828329      0.07223243014005
  C   0.60440641314199     -0.63600503251972     -0.18215647884747
  H   0.64221464451103     -1.71057939316798     -0.34117561043785
  N   -0.86684068507437      1.26600420281398      0.36908827788923
  O   -0.57138058871003      2.09008989566840     -0.49278664316488
  O   -1.34365118909866      1.49380508949981      1.47734648253073
  N   -1.82103477027662     -0.96140917080491      0.07700218056157
  O   -2.87601026975448     -0.35617660861113     -0.08428126898098
  O   -1.68023743652715     -2.17011772039428      0.20580785244010
  C   1.87429748028442      0.14243930118191     -0.25201801085974
  H   1.74834574614999      1.18656108217163      0.02797909546409
  H   2.26533582124107      0.10988758373234     -1.27296037662005
  H   2.62451460471723     -0.31695206128678      0.39592206988520
