13
Coordinates from ORCA-job run
  C   -0.55769539805041      0.27020228001862     -0.04922616060882
  C   0.71274785422179      0.32124548247097     -0.43805693542943
  H   0.96272010779607      1.13782230112575     -1.11049205284509
  N   -1.55354877354299      1.27933858765625     -0.43863670049628
  O   -1.30359109883134      1.96310846400472     -1.42229132953285
  O   -2.53836473539042      1.36787586866731      0.28782804084036
  N   -1.11573260103612     -0.77243211051734      0.80743453030201
  O   -0.63500693225105     -0.89703662121533      1.93093220381219
  O   -2.00760302931646     -1.45027876103021      0.30500928939912
  C   1.78815910633380     -0.63242919428019     -0.04110565786157
  H   2.53818640583787     -0.10582148425833      0.55597991564378
  H   2.29328865773129     -1.01085003547459     -0.93293390609108
  H   1.41744043649795     -1.47074477716762      0.54555876286767
