13
Coordinates from ORCA-job run
  C   -0.57532261808672     -0.20211358987330      0.12218213333341
  C   0.62225461431794     -0.54513010779363     -0.34226278118040
  H   0.72433640482336     -1.58338722715587     -0.64744383589289
  N   -1.67578445801046     -1.16406895937692      0.28059147180982
  O   -1.60857167180155     -2.20389831352826     -0.36116134141435
  O   -2.55185384113042     -0.84787414801556      1.07946127373921
  N   -0.94292556801118      1.14940824015097      0.53419185792343
  O   -0.30068683598048      1.65356858087352      1.45210266765204
  O   -1.85493763284572      1.66885596464319     -0.10277199291963
  C   1.80124579390462      0.35773305408929     -0.47766470457740
  H   2.20226185572654      0.29208531357679     -1.49180910379445
  H   2.59068136229007      0.02783714591665      0.20380018231043
  H   1.56930259480399      1.39598404649313     -0.24821582698922
