13
Coordinates from ORCA-job run
  C   -0.54935143134637      0.28744891361087     -0.04211391532510
  C   0.76643536068633      0.43458920901568     -0.16350750245018
  H   1.09986821206684      1.42731952069527     -0.45469796008910
  N   -1.50448968024531      1.36437326038301     -0.34198068967681
  O   -2.64998757472015      1.00743512898740     -0.59891928880959
  O   -1.07480202745241      2.51023015383025     -0.34534595571164
  N   -1.20464064693482     -0.94362143876846      0.39053340642118
  O   -1.85885537384805     -0.86050034236910      1.42610677024676
  O   -1.02742695343724     -1.94789240678470     -0.29435718189264
  C   1.79050378266891     -0.62362951770328      0.07104117454527
  H   2.54916773568075     -0.25526685723932      0.76560954792508
  H   2.29812328447366     -0.85308649903526     -0.87023844366999
  H   1.36545531240785     -1.54739912462234      0.45887003848675
