13
Coordinates from ORCA-job run
  C   -0.58532224683430     -0.17106310704717      0.12016108801021
  C   0.60174406134566     -0.58678034761301     -0.31077848306585
  H   0.65926108497345     -1.63892098300525     -0.57753397983348
  N   -1.73342923088878     -1.07287854219775      0.29194047689023
  O   -2.60454208568607     -0.68877050871155      1.06603671912120
  O   -1.70840013726859     -2.13483849044116     -0.31578050653096
  N   -0.89488491568712      1.21060413519387      0.47769857428591
  O   -1.77116969055655      1.74792417354513     -0.19361431979058
  O   -0.24481023384390      1.71744329742732      1.38838477153986
  C   1.82319906638861      0.25572996821696     -0.45854843956189
  H   2.23232679085036      0.13895131122611     -1.46488162318865
  H   1.63776426529492      1.31059911746170     -0.26556638765606
  H   2.58826327191231     -0.08800002405518      0.24348210978006
