13
Coordinates from ORCA-job run
  C   -0.54614920080831      0.29308554041352      0.04674300309053
  C   0.67264969421241      0.34370574145443     -0.48202217843069
  H   0.88267968705691      1.22155313432916     -1.08761054136934
  N   -1.05260949887417     -0.81969528261199      0.84541715926430
  O   -2.02855582221551     -1.40310097805922      0.38235557029371
  O   -0.45304090860297     -1.08882778109486      1.88316419637050
  N   -1.53154793499128      1.37218475816821     -0.11283644681889
  O   -2.41968944798145      1.41525774256282      0.73271347783532
  O   -1.36589118245815      2.15001123944093     -1.04302771934855
  C   1.74064973066816     -0.68408248633704     -0.31880309902040
  H   2.12152190088705     -0.97921381193236     -1.29939740645123
  H   2.57800925146182     -0.25224981584354      0.23677795348875
  H   1.40097373164548     -1.56862800049006      0.21652603109598
