13
Coordinates from ORCA-job run
  C   -0.55013250484913      0.28725961399653     -0.02531504175913
  C   0.75553681782921      0.42088976178059     -0.23701487158928
  H   1.07190473163520      1.39489488970381     -0.60128122651365
  N   -1.52133644136247      1.35153718068909     -0.31891644510418
  O   -2.68566394790773      0.99051614335714     -0.45854396991755
  O   -1.08786208796465      2.49037910931874     -0.43132699353132
  N   -1.17888276323327     -0.91616414752694      0.51236710303314
  O   -1.74017453921752     -0.78262425504098      1.59605308049058
  O   -1.07257435336581     -1.94926630577499     -0.14366653627793
  C   1.79025122517844     -0.62806459189355     -0.00801517329683
  H   1.37899350551463     -1.54604748824669      0.40744769812011
  H   2.27853866996552     -0.87085242039969     -0.95581869830563
  H   2.56240168777757     -0.24345748996305      0.66303107465168
