13
Coordinates from ORCA-job run
  C   -0.55326985296550      0.28280704352191     -0.01367236979797
  C   0.70861604790103      0.34231038306103     -0.42817254441275
  H   0.95492406631093      1.19676244200361     -1.05322452496527
  N   -1.57350273457426      1.26159614410773     -0.41779283387417
  O   -2.73859000801659      0.88631217577363     -0.33269332425788
  O   -1.17945685015031      2.34253103603431     -0.83491941095712
  N   -1.08135497077528     -0.74822521163680      0.87526492301624
  O   -1.52035399770249     -0.34794507962802      1.94969632244567
  O   -1.01929268965699     -1.91258452892765      0.48871637041749
  C   1.78270371406303     -0.64058395661189     -0.10589891519294
  H   2.65610900072324     -0.11638639864718      0.28918501771167
  H   1.46484229066573     -1.39893249041484      0.60697793795113
  H   2.09762598417746     -1.14766155863583     -1.02246664808411
