15

C	-0.381819	-0.027277	-1.473535
C	0.0	0.0	0.0
F	-1.760269	-0.304777	-1.581087
H	1.092656	0.0	0.0
H	-0.262257	0.956684	-1.931634
N	0.351775	-1.079843	-2.099922
H	1.293127	-1.110307	-1.715747
H	0.423982	-0.912119	-3.093359
N	-0.476333	-1.095169	0.769577
H	0.234042	-1.813216	0.803386
H	-1.330861	-1.466442	0.377729
N	-0.485246	1.317791	0.570462
O	-0.038382	2.329469	0.031344
O	-1.295962	1.312558	1.48913
Br	3.459792	0.0	0.0
