15

C	-0.589898	0.051022	-1.392901
C	0.0	0.0	0.0
F	-2.008177	0.232893	-1.207059
H	1.09067	0.0	0.0
H	-0.26409	0.933738	-1.938433
N	-0.293337	-1.130432	-2.083192
H	-0.485099	-1.932583	-1.498366
H	-0.768695	-1.182987	-2.971863
N	-0.475146	-1.144196	0.704295
H	-1.415924	-0.986542	1.040689
H	0.130166	-1.331253	1.491246
N	-0.382739	1.314817	0.679456
O	-0.108864	2.347877	0.078807
O	-0.920187	1.264021	1.784455
Br	3.491919	0.0	0.0
