15

C	-0.394529	-0.072589	-1.486559
C	0.0	0.0	0.0
F	-0.491343	-1.44003	-1.792362
H	1.097209	0.0	0.0
H	-1.384861	0.352731	-1.656116
N	0.553107	0.521272	-2.361332
H	1.493511	0.445308	-1.980818
H	0.333846	1.495373	-2.506341
N	-0.616927	-1.036621	0.7954
H	-0.135083	-1.078331	1.685476
H	-0.447451	-1.907996	0.311122
N	-0.486949	1.316315	0.556868
O	-0.66118	1.389278	1.771637
O	-0.678543	2.249127	-0.232028
Br	3.513897	0.0	0.0
