15

C	-0.474281	-0.070113	-1.446651
C	0.0	0.0	0.0
F	-0.216192	1.17534	-2.043688
H	1.089803	0.0	0.0
H	0.162616	-0.792491	-1.96315
N	-1.837857	-0.454724	-1.579769
H	-2.08121	-0.545173	-2.556944
H	-2.420739	0.246068	-1.138638
N	-0.467852	-1.091159	0.802963
H	-1.206248	-1.596674	0.334453
H	0.306136	-1.694571	1.039498
N	-0.515416	1.281979	0.612766
O	-1.729245	1.493978	0.507862
O	0.265777	2.005396	1.213675
Br	3.535458	0.0	0.0
