15

C	-0.545793	0.005672	-1.420878
C	0.0	0.0	0.0
F	-0.145747	1.200651	-2.037949
H	1.089969	0.0	0.0
H	-0.064223	-0.808763	-1.962507
N	-1.959523	-0.153845	-1.460342
H	-2.411125	0.625072	-0.996878
H	-2.27508	-0.201125	-2.4198
N	-0.465657	-1.152686	0.685963
H	-1.467513	-1.117001	0.82514
H	0.024744	-1.26092	1.565951
N	-0.461399	1.309062	0.644623
O	0.315428	2.250838	0.690425
O	-1.627576	1.336179	1.063184
Br	3.574245	0.0	0.0
