15

C	-0.524325	0.007404	-1.425368
C	0.0	0.0	0.0
F	-1.953196	0.128219	-1.325113
H	1.089785	0.0	0.0
H	-0.194759	0.893293	-1.963726
N	-0.152582	-1.162141	-2.11018
H	-0.426742	-1.989013	-1.598642
H	-0.5312	-1.181669	-3.045951
N	-0.456556	-1.078023	0.798048
H	-1.380333	-1.412258	0.57434
H	0.236799	-1.801077	0.897836
N	-0.445397	1.330746	0.596026
O	-1.161596	1.336724	1.590004
O	-0.059214	2.33319	-0.002649
Br	3.516864	0.0	0.0
