15

C	-0.542661	0.018437	-1.41458
C	0.0	0.0	0.0
F	-1.967512	0.179912	-1.288214
H	1.090681	0.0	0.0
H	-0.207436	0.898382	-1.95968
N	-0.195557	-1.165353	-2.075864
H	-0.388347	-1.967061	-1.491517
H	-0.624396	-1.240032	-2.985766
N	-0.493417	-1.131635	0.708737
H	0.068317	-1.290082	1.534698
H	-1.455912	-0.981549	0.983507
N	-0.413063	1.325745	0.636016
O	-0.084905	2.349021	0.043896
O	-1.039713	1.293666	1.695105
Br	3.505443	0.0	0.0
