15

C	-0.47999	-0.040228	-1.439652
C	0.0	0.0	0.0
F	-1.885547	-0.030977	-1.394805
H	1.091772	0.0	0.0
H	-0.169919	0.85743	-1.974009
N	-0.039164	-1.212984	-2.121638
H	0.031721	-1.956934	-1.430462
H	0.894033	-1.03462	-2.487164
N	-0.470879	-1.133045	0.72041
H	0.059458	-1.246303	1.573683
H	-1.451627	-1.031626	0.945679
N	-0.4332	1.327618	0.607998
O	-1.022484	1.310693	1.690412
O	-0.161991	2.344555	-0.026713
Br	3.461546	0.0	0.0
