15

C	-0.477142	-0.025885	-1.448002
C	0.0	0.0	0.0
F	-0.227518	1.239674	-2.003931
H	1.089783	0.0	0.0
H	0.160966	-0.727513	-1.990566
N	-1.839525	-0.411169	-1.588221
H	-2.423305	0.268574	-1.1165
H	-2.089568	-0.464751	-2.566416
N	-0.465914	-1.11465	0.770761
H	0.309329	-1.724411	0.986452
H	-1.205079	-1.607035	0.289457
N	-0.51763	1.265128	0.645354
O	-1.738649	1.452234	0.583972
O	0.270124	2.00385	1.219162
Br	3.536008	0.0	0.0
