15

C	-0.4821	-0.04421	-1.445709
C	0.0	0.0	0.0
F	-0.242897	1.217063	-2.016347
H	1.088891	0.0	0.0
H	0.157074	-0.747935	-1.984051
N	-1.842654	-0.437969	-1.574543
H	-2.429241	0.242555	-1.107776
H	-2.096417	-0.508003	-2.550804
N	-0.460273	-1.1057	0.785968
H	-1.200034	-1.607405	0.315241
H	0.317718	-1.708816	1.009268
N	-0.520104	1.273504	0.627374
O	0.270653	2.043691	1.155378
O	-1.746081	1.436223	0.594782
Br	3.538428	0.0	0.0
