16

C	-0.418715	-0.003717	-1.471158
C	0.0	0.0	0.0
Cl	-2.220608	-0.001538	-1.607463
H	1.094331	0.0	0.0
C	0.141492	1.253488	-2.135298
H	-0.091192	1.237449	-3.200721
H	-0.298988	2.143006	-1.683762
H	1.225322	1.261673	-1.987427
C	0.076655	-1.170733	-2.205428
N	0.451695	-2.017043	-2.929154
N	-0.437189	-1.212973	0.766517
O	-0.546196	-1.084413	1.981086
O	-0.5934	-2.252167	0.135343
C	-0.481377	1.191717	0.680891
N	-0.867146	2.187029	1.17169
Cl	3.11093	0.0	0.0
