16

C	-0.529915	0.076513	-1.453707
C	0.0	0.0	0.0
Cl	0.161898	-1.263717	-2.415271
H	1.090722	0.0	0.0
C	-2.05268	0.018339	-1.549118
H	-2.417418	-0.935692	-1.169412
H	-2.492893	0.827842	-0.963011
H	-2.351197	0.124373	-2.592887
C	-0.062236	1.336942	-2.037411
N	0.211427	2.362167	-2.542753
N	-0.49648	-1.264634	0.646998
O	-1.584538	-1.215685	1.226484
O	0.204779	-2.260491	0.522674
C	-0.503798	1.139651	0.754943
N	-0.901012	2.084696	1.329351
Cl	3.158672	0.0	0.0
