16

C	-0.423544	0.041671	-1.470466
C	0.0	0.0	0.0
Cl	-2.225014	0.031149	-1.599634
H	1.096766	0.0	0.0
C	0.120896	1.325522	-2.094129
H	-0.114651	1.341572	-3.1584
H	1.204826	1.341147	-1.949789
H	-0.327863	2.194769	-1.612489
C	0.084582	-1.094769	-2.24194
N	0.512099	-1.908149	-2.974193
N	-0.437064	-1.237289	0.726376
O	-0.569051	-2.259277	0.06458
O	-0.571503	-1.143955	1.941226
C	-0.481154	1.170914	0.717842
N	-0.848763	2.148675	1.255289
Cl	3.105608	0.0	0.0
