16

C	-0.522773	0.00737	-1.458227
C	0.0	0.0	0.0
Cl	0.144824	-1.402822	-2.333432
H	1.091909	0.0	0.0
C	-2.045476	-0.020512	-1.565625
H	-2.331054	0.031551	-2.617114
H	-2.436989	-0.940933	-1.133861
H	-2.470833	0.832693	-1.033052
C	-0.021202	1.221892	-2.1078
N	0.28057	2.210187	-2.667797
N	-0.499744	-1.230915	0.706949
O	-1.612376	-1.165477	1.2362
O	0.224459	-2.217626	0.680556
C	-0.504346	1.175022	0.69788
N	-0.903624	2.145247	1.227105
Cl	3.16069	0.0	0.0
