16

C	-0.43654	-0.047271	-1.478458
C	0.0	0.0	0.0
Cl	-0.013944	1.570767	-2.154805
H	1.09082	0.0	0.0
C	0.342904	-1.090608	-2.272303
H	1.406763	-0.937086	-2.0754
H	0.051525	-2.092828	-1.964066
H	0.136339	-0.961254	-3.335513
C	-1.888677	-0.19552	-1.617897
N	-3.052744	-0.294343	-1.753446
N	-0.403255	-1.234992	0.768042
O	-0.169479	-1.206048	1.969813
O	-0.896634	-2.179523	0.150579
C	-0.533363	1.143758	0.724428
N	-0.971622	2.059412	1.316605
Cl	3.146157	0.0	0.0
