16

C	-0.512195	0.000246	-1.461971
C	0.0	0.0	0.0
Cl	0.140349	-1.43434	-2.310892
H	1.092361	0.0	0.0
C	-2.033501	-0.002042	-1.588982
H	-2.447449	-0.908565	-1.149401
H	-2.449808	0.866369	-1.074283
H	-2.302933	0.040908	-2.645145
C	0.017378	1.198615	-2.120047
N	0.333886	2.17979	-2.684454
N	-0.503963	-1.227338	0.71102
O	-1.639763	-1.173845	1.190277
O	0.240487	-2.198574	0.737209
C	-0.507864	1.17765	0.691168
N	-0.911074	2.133055	1.243754
Cl	3.163863	0.0	0.0
