17

C	-0.467062	0.02977	-1.46796
C	0.0	0.0	0.0
Cl	-0.005973	-1.624795	-2.156336
H	1.090849	0.0	0.0
N	-1.854004	0.298247	-1.591006
H	-2.12925	0.2847	-2.564575
H	-2.404723	-0.368552	-1.06456
C	0.365579	1.054613	-2.215831
H	0.12893	2.050056	-1.831127
H	0.119034	1.018843	-3.280138
H	1.428806	0.850704	-2.075634
N	-0.510728	-1.219515	0.720233
O	0.308104	-1.970737	1.2272
O	-1.735605	-1.370045	0.743106
C	-0.494082	1.172447	0.714029
N	-0.86768	2.125034	1.290609
Br	3.430195	0.0	0.0
