17

C	-0.460974	-0.006579	-1.469382
C	0.0	0.0	0.0
Cl	0.165204	1.605513	-2.142923
H	1.091643	0.0	0.0
N	0.138429	-1.129166	-2.083899
H	1.140466	-1.153428	-1.896103
H	-0.02743	-1.132826	-3.083211
C	-1.965298	0.022089	-1.662215
H	-2.396611	0.897469	-1.174267
H	-2.193025	0.075634	-2.729692
H	-2.410429	-0.881476	-1.243092
N	-0.462762	-1.279857	0.652481
O	-1.603221	-1.293028	1.121384
O	0.31774	-2.221106	0.644073
C	-0.534184	1.122369	0.755084
N	-0.960899	2.031833	1.363552
Br	3.378057	0.0	0.0
