17

C	-0.430863	-0.023984	-1.479358
C	0.0	0.0	0.0
Cl	0.115455	1.627049	-2.135124
H	1.09162	0.0	0.0
N	0.245704	-1.105032	-2.083824
H	0.10494	-1.112906	-3.08615
H	1.24205	-1.078162	-1.869238
C	-1.9285	-0.081183	-1.703719
H	-2.137483	-0.022377	-2.774707
H	-2.423208	0.755397	-1.209556
H	-2.325268	-1.018439	-1.311822
N	-0.462878	-1.279552	0.65197
O	-1.602705	-1.290427	1.122816
O	0.315206	-2.223379	0.641817
C	-0.550106	1.123094	0.741214
N	-0.991234	2.029149	1.344388
Br	3.381704	0.0	0.0
