17

C	-0.504299	0.007585	-1.451038
C	0.0	0.0	0.0
Cl	0.026695	-1.616059	-2.154611
H	1.090883	0.0	0.0
N	-1.906551	0.202698	-1.538477
H	-2.2037	0.176784	-2.505581
H	-2.408863	-0.492769	-1.001351
C	0.247316	1.083828	-2.212405
H	-0.021762	1.037779	-3.270872
H	-0.043971	2.060186	-1.817362
H	1.323555	0.944813	-2.098561
N	-0.476627	-1.211969	0.760555
O	0.368419	-1.925159	1.279608
O	-1.696615	-1.392348	0.81075
C	-0.486439	1.17847	0.711082
N	-0.849047	2.137975	1.283133
Br	3.417379	0.0	0.0
