17

C	-0.337249	0.01504	-1.500309
C	0.0	0.0	0.0
Cl	-2.133723	0.089454	-1.726827
H	1.091804	0.0	0.0
N	0.222703	1.263631	-1.965508
H	0.106309	1.327133	-2.971055
H	1.221848	1.255781	-1.75396
C	0.18013	-1.210382	-2.237789
H	0.030474	-1.048423	-3.308864
H	-0.330699	-2.12653	-1.947459
H	1.247872	-1.310599	-2.025038
N	-0.472216	-1.242126	0.688684
O	-1.407225	-1.14884	1.481595
O	0.118017	-2.280085	0.403944
C	-0.512335	1.173552	0.690665
N	-0.895965	2.122999	1.26504
Br	3.353299	0.0	0.0
