17

C	-0.43583	-0.029077	-1.500495
C	0.0	0.0	0.0
Cl	0.063059	1.576334	-2.145566
H	1.09134	0.0	0.0
N	0.257419	-1.025883	-2.264862
H	-0.037277	-1.943891	-1.949951
H	1.255699	-0.949482	-2.070291
C	-1.938367	-0.157076	-1.658237
H	-2.286222	-1.118522	-1.268503
H	-2.184168	-0.095245	-2.7186
H	-2.450675	0.641585	-1.119937
N	-0.473977	-1.269435	0.644901
O	-1.459754	-1.222074	1.382447
O	0.132213	-2.295906	0.343714
C	-0.543579	1.128988	0.736943
N	-0.983803	2.054864	1.310641
Br	3.360498	0.0	0.0
