17

C	-0.26363	0.074866	-1.502366
C	0.0	0.0	0.0
Cl	-2.019232	0.456388	-1.837355
H	1.093856	0.0	0.0
N	0.544878	1.115715	-2.115595
H	0.243077	2.00959	-1.744587
H	1.499344	0.950118	-1.761724
C	0.032759	-1.153153	-2.258393
N	0.262975	-2.023254	-3.013752
N	-0.479829	-1.21536	0.649789
O	-0.442802	-2.275505	0.015245
O	-0.807365	-1.144189	1.843495
C	-0.420297	1.22431	0.782128
H	-0.083832	2.126828	0.271133
H	-1.500225	1.274095	0.933782
H	0.075955	1.196452	1.752477
H	2.563407	0.0	0.0
