17

C	-0.3119	-0.035576	-1.498529
C	0.0	0.0	0.0
Cl	0.038621	1.707175	-2.164438
H	1.091662	0.0	0.0
N	0.487396	-1.010352	-2.100151
H	0.471951	-0.960019	-3.109819
H	1.440218	-0.944541	-1.721764
C	-1.738843	-0.202927	-1.803271
N	-2.887027	-0.340963	-2.00909
N	-0.440331	-1.304173	0.577124
O	0.285043	-2.282626	0.404458
O	-1.496229	-1.322641	1.225748
C	-0.589761	1.145526	0.784802
H	-0.068014	2.061726	0.516006
H	-0.428197	0.960947	1.846659
H	-1.661485	1.265066	0.618377
H	2.7125	0.0	0.0
