17

C	-0.283298	-0.038849	-1.507763
C	0.0	0.0	0.0
Cl	-0.00071	1.730164	-2.160458
H	1.091663	0.0	0.0
N	0.572785	-0.964285	-2.102498
H	0.579066	-0.905922	-3.111298
H	1.512937	-0.868726	-1.696012
C	-1.694887	-0.269072	-1.842833
N	-2.828976	-0.47096	-2.078205
N	-0.440819	-1.303435	0.573324
O	-1.466711	-1.313452	1.266928
O	0.256572	-2.292427	0.355234
C	-0.599571	1.146122	0.773465
H	-0.486699	0.950055	1.840622
H	-0.051778	2.055826	0.534201
H	-1.661398	1.285824	0.561817
H	2.708932	0.0	0.0
