17

C	-0.432695	-0.002336	-1.443735
C	0.0	0.0	0.0
Cl	-2.325014	-0.376563	-1.532052
H	1.092758	0.0	0.0
N	-0.163634	1.241417	-2.053344
H	-0.4095	1.227511	-3.033816
H	-0.652029	1.992197	-1.58432
C	0.156382	-1.051749	-2.282786
N	0.579362	-1.77641	-3.105016
N	-0.375138	-1.228826	0.669092
O	-0.612183	-1.19877	1.88796
O	-0.307358	-2.276608	0.007766
C	-0.396902	1.234286	0.77
H	-1.471975	1.437443	0.732026
H	0.174892	2.082955	0.385774
H	-0.102978	1.095888	1.808474
H	2.464806	0.0	0.0
