17

C	-0.250236	0.037552	-1.501207
C	0.0	0.0	0.0
Cl	-2.004186	0.489381	-1.883645
H	1.093567	0.0	0.0
N	0.619166	1.062191	-2.004705
H	0.699894	0.992533	-3.011891
H	1.542843	0.901361	-1.567136
C	-0.057987	-1.235601	-2.222289
N	0.096006	-2.104771	-3.000063
N	-0.461867	-1.226981	0.647836
O	-1.060869	-1.137007	1.727219
O	-0.143524	-2.301381	0.127593
C	-0.4677	1.239631	0.722994
H	-0.16638	2.10921	0.138673
H	-1.548134	1.248878	0.868507
H	0.022694	1.282486	1.697227
H	2.58485	0.0	0.0
