16

C	-0.231165	-0.019713	-1.506892
C	0.0	0.0	0.0
Br	-2.13749	-0.140655	-1.989522
H	1.09584	0.0	0.0
N	0.252971	1.298204	-2.120597
O	0.581119	2.20155	-1.362929
O	0.279761	1.346464	-3.346265
C	0.574624	-1.134589	-2.137241
H	0.192843	-2.099578	-1.802846
H	1.595868	-0.992692	-1.76189
H	0.522321	-1.073794	-3.222682
C	-0.415913	-1.271768	0.570038
N	-0.724943	-2.310118	1.027486
C	-0.621145	1.088648	0.729796
N	-1.14771	1.922862	1.369226
F	2.480085	0.0	0.0
