16

C	-0.200293	-0.041516	-1.510492
C	0.0	0.0	0.0
Br	-2.091633	-0.151418	-2.039712
H	1.095946	0.0	0.0
N	0.313903	1.262311	-2.131788
O	0.372309	1.291689	-3.356442
O	0.630461	2.17463	-1.379712
C	0.608206	-1.171312	-2.104925
H	1.61782	-1.036972	-1.694951
H	0.20072	-2.12838	-1.775709
H	0.595793	-1.117512	-3.192681
C	-0.429202	-1.262664	0.579681
N	-0.748239	-2.296265	1.041784
C	-0.62184	1.102689	0.70858
N	-1.144395	1.944766	1.343266
F	2.481332	0.0	0.0
