16

C	-0.324687	-0.03775	-1.484283
C	0.0	0.0	0.0
Br	-2.259369	-0.180839	-1.821684
H	1.095804	0.0	0.0
N	0.114233	1.269543	-2.149697
O	0.663962	2.110024	-1.45
O	-0.084906	1.358517	-3.35652
C	0.435391	-1.158519	-2.157492
H	0.06999	-2.119272	-1.793616
H	1.478362	-1.025441	-1.849338
H	0.312105	-1.103946	-3.238043
C	-0.405844	-1.251237	0.620063
N	-0.696751	-2.280946	1.107902
C	-0.565126	1.120311	0.730276
N	-1.019939	1.992456	1.374245
F	2.471073	0.0	0.0
