16

C	-0.497617	-0.005877	-1.448201
C	0.0	0.0	0.0
Br	0.390904	1.429065	-2.424654
H	1.094228	0.0	0.0
N	-0.052932	-1.305704	-2.127408
O	0.767533	-2.007943	-1.550243
O	-0.562612	-1.542071	-3.219799
C	-1.997525	0.120187	-1.612989
H	-2.2713	0.126378	-2.666233
H	-2.330883	1.045423	-1.141045
H	-2.480871	-0.727831	-1.117088
C	-0.529427	-1.144127	0.725392
N	-0.959363	-2.072875	1.306881
C	-0.431688	1.22618	0.652176
N	-0.766963	2.220967	1.184193
F	2.433259	0.0	0.0
