16

C	-0.521056	-0.024455	-1.438942
C	0.0	0.0	0.0
Br	0.321219	1.42326	-2.436411
H	1.094235	0.0	0.0
N	-0.059363	-1.323541	-2.107173
O	0.889087	-1.911459	-1.613541
O	-0.673165	-1.666185	-3.114373
C	-2.02435	0.077518	-1.576417
H	-2.366001	0.988821	-1.08422
H	-2.319025	0.093348	-2.62357
H	-2.482391	-0.787316	-1.087444
C	-0.488645	-1.173489	0.708649
N	-0.894063	-2.127298	1.266042
C	-0.457814	1.204282	0.670597
N	-0.817558	2.184179	1.21363
F	2.429515	0.0	0.0
