16

C	-0.128177	0.005925	-1.52116
C	0.0	0.0	0.0
Cl	0.222206	1.64953	-2.239394
H	1.095464	0.0	0.0
N	0.762429	-0.981477	-1.958145
H	1.664684	-0.808503	-1.480795
H	0.842049	-0.990902	-2.965812
N	-1.530497	-0.314133	-2.036317
O	-1.60702	-0.720174	-3.19053
O	-2.468029	-0.132691	-1.269208
C	-0.466137	-1.258512	0.546184
N	-0.831632	-2.278701	1.001011
N	-0.547976	1.111354	0.818243
O	-0.360373	0.989573	2.027145
O	-1.113639	2.057409	0.282511
F	2.514938	0.0	0.0
