16

C	-0.630798	0.00062	-1.384281
C	0.0	0.0	0.0
Cl	-0.003725	-1.488986	-2.244388
H	1.092215	0.0	0.0
N	-2.028279	0.082253	-1.335212
H	-2.429689	0.169552	-2.258817
H	-2.413381	-0.707806	-0.836073
N	-0.115851	1.14027	-2.274891
O	-0.939336	1.630551	-3.042281
O	1.0655	1.411633	-2.20591
C	-0.480783	-1.156894	0.726682
N	-0.880387	-2.123115	1.268036
N	-0.394087	1.231058	0.734624
O	-0.484687	2.269787	0.080332
O	-0.52788	1.153025	1.953086
F	2.421671	0.0	0.0
