16

C	-0.55167	-0.02453	-1.414397
C	0.0	0.0	0.0
Cl	0.204759	-1.393106	-2.268728
H	1.090019	0.0	0.0
N	-1.955873	-0.147793	-1.501932
H	-2.235686	-0.104369	-2.474393
H	-2.366505	0.63559	-1.006021
N	-0.038265	1.225725	-2.20213
O	0.95332	1.808392	-1.80388
O	-0.69064	1.499388	-3.207127
C	-0.416078	-1.183407	0.726673
N	-0.731142	-2.136672	1.337786
N	-0.454355	1.188715	0.757595
O	-1.102937	2.058904	0.159429
O	-0.128647	1.252591	1.93668
F	2.423836	0.0	0.0
