16

C	-0.217839	0.063052	-1.524857
C	0.0	0.0	0.0
Cl	-1.866588	0.577704	-1.955857
H	1.092208	0.0	0.0
N	0.754891	0.843256	-2.208153
H	0.530074	1.813039	-2.018823
H	1.641755	0.643135	-1.72035
N	-0.038127	-1.402532	-2.00772
O	-1.0194	-2.134375	-2.029654
O	1.112134	-1.717507	-2.27978
C	-0.589522	-1.133305	0.672571
N	-1.028938	-2.091708	1.193285
N	-0.420427	1.260482	0.659727
O	-0.979832	1.183093	1.753112
O	-0.135061	2.316832	0.096829
F	2.480009	0.0	0.0
