16

C	-0.635866	-0.196467	-1.383306
C	0.0	0.0	0.0
Cl	0.028808	-1.728628	-2.017403
H	1.099187	0.0	0.0
N	-2.057688	-0.242436	-1.468117
H	-2.410931	-0.85084	-0.739747
H	-2.42755	0.692813	-1.360989
N	-0.148007	0.903361	-2.349661
O	-0.999636	1.463219	-3.031396
O	1.053352	1.102098	-2.375406
C	-0.445194	-1.069404	0.868939
N	-0.839216	-1.962473	1.52494
N	-0.413658	1.283225	0.603556
O	-0.292753	1.406718	1.818962
O	-0.793084	2.178566	-0.15958
F	2.413316	0.0	0.0
