16

C	-0.420074	-0.102861	-1.464501
C	0.0	0.0	0.0
Cl	0.322014	-1.627258	-2.076339
H	1.100012	0.0	0.0
N	-1.798449	0.001012	-1.74517
H	-2.046298	-0.487175	-2.593868
H	-2.371754	-0.272832	-0.961733
N	0.230673	1.03801	-2.272405
O	0.304417	0.888639	-3.484641
O	0.495983	2.054631	-1.647151
C	-0.53672	-1.133508	0.726397
N	-0.974735	-2.046351	1.32559
N	-0.545147	1.225819	0.692424
O	0.252661	1.959653	1.257034
O	-1.77065	1.376681	0.6927
F	2.453649	0.0	0.0
