14

C	-0.586635	-0.020101	-1.399282
C	0.0	0.0	0.0
Br	-0.035924	1.599357	-2.336341
H	1.087951	0.0	0.0
H	-1.67441	0.001544	-1.351253
C	-0.150857	-1.179889	-2.163791
N	0.125134	-2.102272	-2.836371
N	-0.493058	-1.1803	0.786069
O	-0.028422	-1.29919	1.912541
O	-1.333699	-1.911958	0.263092
N	-0.536383	1.178968	0.761938
O	-1.742314	1.398569	0.627288
O	0.239104	1.800945	1.473729
Br	3.321676	0.0	0.0
