14

C	-0.46508	0.065655	-1.445764
C	0.0	0.0	0.0
Br	-0.036793	-1.6151	-2.329895
H	1.090403	0.0	0.0
H	0.155133	0.819698	-1.932668
C	-1.872107	0.39011	-1.647876
N	-2.982485	0.698313	-1.876178
N	-0.573862	-1.15471	0.740999
O	-1.779285	-1.351726	0.58138
O	0.181582	-1.800286	1.457806
N	-0.428344	1.239988	0.722546
O	-0.696869	1.144172	1.914548
O	-0.407209	2.272966	0.057549
Br	3.303217	0.0	0.0
