14

C	-0.610191	-0.029442	-1.393642
C	0.0	0.0	0.0
Br	0.280795	1.245459	-2.561643
H	1.090024	0.0	0.0
H	-1.656053	0.273775	-1.336954
C	-0.518617	-1.360123	-1.979245
N	-0.49574	-2.432454	-2.45743
N	-0.546803	-1.172147	0.763386
O	0.230407	-2.047662	1.118153
O	-1.769774	-1.159266	0.930619
N	-0.468498	1.198258	0.768843
O	-0.075773	1.248772	1.928793
O	-1.197484	2.015266	0.213568
Br	3.33261	0.0	0.0
