15

C	-0.588535	0.008009	-1.415091
C	0.0	0.0	0.0
Br	0.192245	-1.486333	-2.423461
H	1.097172	0.0	0.0
H	-0.344575	-0.923019	0.477595
C	-2.10464	-0.155648	-1.401749
H	-2.526231	0.652387	-0.802794
H	-2.513654	-0.129493	-2.412995
H	-2.355227	-1.114923	-0.943047
C	-0.236751	1.243638	-2.113916
N	-0.027487	2.26051	-2.665635
N	-0.548187	1.161523	0.722489
H	-0.551495	0.942623	1.711414
H	0.116398	1.921095	0.611803
Cl	3.491724	0.0	0.0
