15

C	-0.402963	0.023039	-1.468675
C	0.0	0.0	0.0
Br	-2.377884	0.299506	-1.578119
H	1.095756	0.0	0.0
H	-0.324258	0.956767	0.434104
C	0.28873	1.155868	-2.211835
H	1.368214	1.004664	-2.117174
H	-0.001009	1.174511	-3.263217
H	0.025057	2.108904	-1.748688
C	-0.146159	-1.257968	-2.120997
N	0.102778	-2.261569	-2.678275
N	-0.500435	-1.17547	0.688758
H	0.176917	-1.45885	1.385319
H	-1.382478	-0.98209	1.145573
Cl	3.4713	0.0	0.0
