15

C	-0.461263	-0.037901	-1.464408
C	0.0	0.0	0.0
Br	-0.059535	1.708264	-2.284347
H	1.0933	0.0	0.0
H	-0.362321	0.921296	0.470308
C	0.265577	-1.127148	-2.23906
H	0.024827	-2.084658	-1.773748
H	1.339968	-0.949693	-2.152803
H	-0.036082	-1.136046	-3.288127
C	-1.914039	-0.197678	-1.532633
N	-3.079712	-0.349323	-1.551023
N	-0.461201	-1.223089	0.653661
H	-1.297409	-1.054519	1.197777
H	0.268077	-1.558827	1.270472
Cl	3.482879	0.0	0.0
