15

C	-0.56547	-0.134184	-1.416985
C	0.0	0.0	0.0
Br	0.046797	-1.83868	-2.204923
H	1.09801	0.0	0.0
H	-0.341964	0.976288	0.365614
C	-2.090518	-0.13258	-1.434637
H	-2.445803	-0.933124	-0.787497
H	-2.444473	0.826206	-1.041725
H	-2.471603	-0.262993	-2.448898
C	-0.064239	0.934928	-2.278256
N	0.239083	1.838926	-2.965898
N	-0.560414	-1.048208	0.864646
H	-0.446149	-0.735996	1.82238
H	0.043983	-1.858064	0.771237
Cl	3.4833	0.0	0.0
