15

C	-0.583956	0.007026	-1.416675
C	0.0	0.0	0.0
Br	0.05792	-1.581594	-2.397652
H	1.098022	0.0	0.0
H	-0.344841	0.931514	0.467181
C	-2.109523	-0.030604	-1.411567
H	-2.504034	-0.056591	-2.428898
H	-2.43304	-0.906117	-0.853541
H	-2.480764	0.867225	-0.905878
C	-0.122734	1.179025	-2.154457
N	0.193933	2.166467	-2.70565
N	-0.546632	-1.136035	0.758265
H	-0.41841	-0.9231	1.740071
H	0.062179	-1.9272	0.572116
Cl	3.482167	0.0	0.0
