15

C	0.0	0.0	0.0
C	-0.654925	0.193912	-1.333032
Br	1.952364	0.0	0.0
H	-1.81756	0.044776	-0.974015
H	-0.503614	1.210226	-1.709245
C	-0.454685	1.166167	0.875916
H	-0.10568	2.112746	0.443351
H	-0.067791	1.070313	1.891507
H	-1.553754	1.134932	0.888638
C	-0.382194	-1.256013	0.648322
N	-0.56492	-2.218202	1.297116
N	-0.268037	-0.724899	-2.373513
O	-0.082608	-1.907036	-2.066617
O	-0.188263	-0.291991	-3.540343
H	-2.914233	0.0	0.0
