15

C	0.0	0.0	0.0
C	-0.654053	0.013609	-1.34633
Br	1.961219	0.0	0.0
H	-0.509858	0.969675	-1.854671
H	-1.814363	-0.092023	-0.976739
C	-0.457077	1.255187	0.736444
H	-0.072285	1.27502	1.755616
H	-1.555754	1.217968	0.736183
H	-0.103508	2.138892	0.196918
C	-0.356362	-1.176358	0.80705
N	-0.567416	-2.063065	1.545768
N	-0.240761	-1.033495	-2.25502
O	-0.049379	-2.159851	-1.788279
O	-0.151471	-0.760381	-3.46204
H	-2.902089	0.0	0.0
