11

C	0.0	0.0	0.0
C	-0.568673	-0.284089	-1.373846
Br	1.940137	0.0	0.0
H	-1.547379	-0.7498	-1.176145
H	-0.330022	-0.775153	0.681247
H	-0.352427	0.954752	0.362918
H	0.107022	-0.839171	-2.028269
N	-0.917994	0.945459	-2.126679
O	-0.583115	2.041414	-1.69003
O	-1.492313	0.771801	-3.199208
F	-2.611047	0.0	0.0
