11

C	0.0	0.0	0.0
C	-0.548046	0.064067	-1.392481
Br	1.939738	0.0	0.0
H	-0.236072	-0.769691	-2.019519
H	-0.354007	-0.9091	0.473497
H	-0.34013	0.855799	0.569954
H	-1.680182	0.081373	-1.107047
N	-0.138296	1.286557	-2.093446
O	0.113218	1.207591	-3.301547
O	-0.104898	2.342174	-1.457549
F	-2.674273	0.0	0.0
