15

C	-0.419518	-0.001635	-1.457209
C	0.0	0.0	0.0
Cl	-2.193668	0.213647	-1.621359
H	1.091065	0.0	0.0
H	-0.301386	0.972429	0.403353
C	0.321298	1.07222	-2.222032
H	1.395207	0.894928	-2.104417
H	0.079558	2.04705	-1.795062
H	0.037113	1.052605	-3.272565
N	-0.104377	-1.342556	-2.12427
O	0.308827	-2.25169	-1.415464
O	-0.284467	-1.398312	-3.336836
C	-0.596962	-1.030902	0.834847
N	-1.115819	-1.799692	1.553684
Cl	3.309288	0.0	0.0
