15

C	-0.524594	-0.095731	-1.431474
C	0.0	0.0	0.0
Cl	0.147787	-1.512375	-2.233009
H	1.093454	0.0	0.0
H	-0.335548	0.949416	0.422996
C	-2.039883	-0.121004	-1.537077
H	-2.342242	-0.119102	-2.586102
H	-2.457494	0.753041	-1.035155
H	-2.417903	-1.027892	-1.064405
N	-0.06418	1.181448	-2.152781
O	0.592189	1.099794	-3.177877
O	-0.459063	2.221636	-1.626988
C	-0.526749	-1.089599	0.808698
N	-0.999096	-1.949375	1.454163
Cl	3.301738	0.0	0.0
