15

C	-0.408243	-0.078676	-1.465487
C	0.0	0.0	0.0
Cl	-0.056854	1.440275	-2.289143
H	1.092473	0.0	0.0
H	-0.321914	-0.921732	0.491099
C	0.319478	-1.219074	-2.151486
H	1.3923	-1.043251	-2.043049
H	0.04795	-1.262674	-3.208169
H	0.059883	-2.160415	-1.664607
N	-1.918122	-0.363644	-1.555091
O	-2.277948	-1.358145	-0.928789
O	-2.644985	0.347973	-2.23531
C	-0.574664	1.137291	0.701323
N	-1.067514	2.034031	1.277051
Cl	3.313291	0.0	0.0
