15

C	-0.533904	-0.15814	-1.422155
C	0.0	0.0	0.0
Cl	0.093474	-1.633991	-2.150161
H	1.102097	0.0	0.0
H	-0.327001	0.9712	0.380722
C	-2.049869	-0.140345	-1.52242
H	-2.454303	-1.000472	-0.98924
H	-2.433554	0.779129	-1.077303
H	-2.35652	-0.196429	-2.569109
N	-0.044112	1.061672	-2.220811
O	-0.349196	2.141142	-1.717747
O	0.524574	0.904569	-3.288498
C	-0.529023	-1.048023	0.858452
N	-0.996754	-1.878388	1.543452
Cl	3.295454	0.0	0.0
