14

C	-0.585631	-0.041237	-1.403838
C	0.0	0.0	0.0
Cl	-2.346472	0.064577	-1.38157
H	1.094287	0.0	0.0
H	-0.301959	-0.989794	-1.857768
N	0.011588	1.00769	-2.337498
O	-0.666069	1.961811	-2.685199
O	1.15625	0.741701	-2.677114
C	-0.457326	-1.172015	0.734046
N	-0.79612	-2.154984	1.280438
N	-0.401757	1.253873	0.721001
O	-0.22245	2.292107	0.094436
O	-0.821284	1.158189	1.869103
Br	3.283999	0.0	0.0
