14

C	-0.554527	-0.028447	-1.418241
C	0.0	0.0	0.0
Cl	-2.307078	0.153621	-1.445291
H	1.094261	0.0	0.0
H	-0.299731	-0.990897	-1.859812
N	0.119864	0.986151	-2.339225
O	1.270923	0.676366	-2.616564
O	-0.507992	1.956534	-2.734036
C	-0.485651	-1.162358	0.728124
N	-0.854905	-2.139404	1.265352
N	-0.397921	1.263991	0.705781
O	-0.19979	2.294918	0.0734
O	-0.837327	1.182233	1.84741
Br	3.302097	0.0	0.0
