14

C	-0.586355	-0.121659	-1.39919
C	0.0	0.0	0.0
Cl	-2.349729	-0.074131	-1.378604
H	1.094312	0.0	0.0
H	-0.270427	-1.079736	-1.810367
N	-0.023291	0.905532	-2.378984
O	-0.746469	1.791734	-2.805947
O	1.145579	0.69226	-2.669427
C	-0.447688	-1.135592	0.796523
N	-0.789523	-2.095428	1.381237
N	-0.407344	1.285185	0.657419
O	-0.29855	2.287599	-0.040475
O	-0.756368	1.250572	1.832208
Br	3.283719	0.0	0.0
