14

C	-0.592598	-0.016334	-1.401074
C	0.0	0.0	0.0
Cl	0.143783	1.231152	-2.399864
H	1.089797	0.0	0.0
H	-1.667224	0.150876	-1.378088
N	-0.398047	-1.357615	-2.063204
O	-1.189821	-1.611649	-2.965575
O	0.519368	-2.065266	-1.673421
C	-0.550409	-1.093668	0.791051
N	-1.036949	-1.963307	1.413924
N	-0.476564	1.29365	0.638795
O	-1.660989	1.587241	0.468947
O	0.341261	1.932136	1.282956
Br	3.350672	0.0	0.0
