14

C	-0.586183	-0.006681	-1.403332
C	0.0	0.0	0.0
Cl	0.181091	1.225054	-2.399486
H	1.089807	0.0	0.0
H	-1.657824	0.180785	-1.387631
N	-0.409717	-1.35277	-2.057099
O	0.510922	-2.067141	-1.674799
O	-1.220165	-1.607942	-2.944538
C	-0.54841	-1.096394	0.787266
N	-1.002702	-1.988932	1.401825
N	-0.4725	1.286739	0.655676
O	0.345012	1.916181	1.307348
O	-1.657006	1.580468	0.497613
Br	3.337863	0.0	0.0
