17

C	-0.092623	0.228887	0.014406
C	-0.475983	0.1369	-1.478276
F	1.339287	0.275384	0.088482
H	-0.158869	-0.871961	-1.767627
C	-0.498956	1.557981	0.551641
N	-0.857074	2.597701	0.967562
N	-0.5814	-0.85042	0.747155
H	-1.399973	-1.375001	0.316728
H	-0.774437	-0.630905	1.7145
C	0.271783	1.168424	-2.312928
H	1.352024	1.097744	-2.179962
H	-0.045545	2.181116	-2.041363
H	0.018207	1.010448	-3.362862
N	-1.902257	0.228478	-1.723065
H	-2.27073	1.067653	-1.285355
H	-2.365813	-0.588538	-1.292125
H	-2.666167	-2.064082	-0.298673
