17

C	0.035527	0.100521	0.0259
C	-0.449766	0.339709	-1.399785
F	1.469385	-0.116263	-0.072113
H	-1.508098	0.611543	-1.316479
C	-0.035106	1.353657	0.827271
N	-0.129878	2.283314	1.540026
N	-0.601039	-0.988933	0.60315
H	-1.631894	-1.142944	0.233217
H	-0.60363	-0.940916	1.614495
C	-0.351335	-0.944781	-2.217471
H	-1.07107	-1.676599	-1.848991
H	0.660042	-1.355617	-2.159792
H	-0.58498	-0.721109	-3.265149
N	0.292933	1.47903	-1.946486
H	-0.057641	1.673152	-2.877762
H	1.263028	1.198824	-2.040976
H	-2.942627	-1.29056	-0.257266
