14
Coordinates from ORCA-job run
  C   0.65594648283441      0.67233804580302     -0.27386691742246
  C   -0.53846527285659     -0.07323237479161      0.31886167030476
  F   0.67786134077323      0.31132710304108     -1.65164614281675
  H   -0.65906518945697      0.28095011015896      1.34877583744119
  H   0.47448597035518      1.75086896526209     -0.27665845120409
  N   1.87158549358720      0.34414256896689      0.34227441383974
  H   2.41166545935802      1.10874148985533      0.70392409972822
  H   1.81736075729613     -0.46330223501694      0.94185709922983
  N   -0.18259019341637     -1.47948115659517      0.37079199557078
  H   -0.99000200139128     -2.00047222578041      0.69040844209908
  H   0.03165823124779     -1.79460261115981     -0.56926898967800
  N   -1.80072081826554      0.16207463329681     -0.37329118227823
  H   -1.64208179678978      0.07252618327359     -1.37096079571034
  H   -2.12663846327544      1.10712150368617     -0.20120107910373
