14
Coordinates from ORCA-job run
  C   0.80843102089392      0.42134355493064     -0.37025968780224
  C   -0.36035793721373     -0.41511362908922      0.13214117774725
  F   1.72264834743726     -0.52744953867500     -0.92466771029406
  H   0.07562169330973     -1.17840424861099      0.79626791101107
  H   0.50432637443357      1.03110020264226     -1.22480573894550
  N   1.39176336013916      1.22284247876270      0.62442347277263
  H   1.52923113556477      0.72047815506098      1.48996799092360
  H   2.26063782782406      1.63040512470652      0.30833354581979
  N   -1.00142516294213     -0.99631695017538     -1.04994221011102
  H   -0.30032816062614     -1.47760077318851     -1.60320513269769
  H   -1.67997853203210     -1.69004666540958     -0.75648351367590
  N   -1.25980886094172      0.37809188718752      0.93626848390316
  H   -2.00577590975699     -0.20790231324898      1.29257536570043
  H   -1.68498519608967      1.08757271510706      0.34938604564846
