14
Coordinates from ORCA-job run
  C   1.00021563248707      0.18743046064966     -0.34122875106902
  C   -0.23961405405079     -0.62568180694321      0.07869441035795
  F   2.13289511781291     -0.62102924137664     -0.09832420880605
  H   0.13805552409854     -1.52696575370299      0.56611308497325
  H   0.99538944514829      0.34361662879560     -1.42086458124445
  N   1.08030792623585      1.43877545522479      0.31336408219600
  H   1.05671754059201      1.31853687588463      1.31770885386150
  H   1.91778452664685      1.93496393866602      0.03946448483171
  N   -0.92626967208973     -1.06483610324079     -1.13358865945218
  H   -1.44110330977034     -0.28976569699065     -1.53842946793112
  H   -1.59429887010302     -1.79309816284655     -0.91110476097755
  N   -1.00518974828452      0.10488114706520      1.08192134186704
  H   -1.83769039601254     -0.41610455641890      1.32868011561044
  H   -1.27919966271057      1.01027681523380      0.71859405578247
