14
Coordinates from ORCA-job run
  C   0.84306980007650      0.49775613233742     -0.51506269823521
  C   -0.51849856239933     -0.19013455149191     -0.48455494912348
  F   1.62582398312565     -0.04908121851740     -1.51078946391595
  H   -0.96400165508047     -0.09303593947759     -1.48419352810017
  H   0.71019981439311      1.55442614873041     -0.79841234368295
  N   1.49587203881527      0.29949290331912      0.74671661369268
  H   2.35201692847938      0.83633201109549      0.79293151579554
  H   0.86151384767606      0.60744950290743      1.47436904864927
  N   -1.30233272830086      0.51342853194381      0.55303550033858
  H   -2.13999069700868     -0.02087432275814      0.75108667168437
  H   -1.60441071459840      1.41939291919209      0.20625954582407
  N   -0.33943995071713     -1.58895445494173     -0.21683372905971
  H   0.20250568771143     -1.71368049552529      0.62763974745043
  H   -1.22432779217251     -2.07251716681372     -0.14219193131749
