14
Coordinates from ORCA-job run
  C   0.69874261456465      0.81120792771171      0.02290168147597
  C   -0.41967508993800     -0.13388526046411     -0.40852450001718
  F   0.66353478076300      1.94300218588066     -0.77356305946744
  H   -0.22646562266387     -0.36354854303283     -1.46022533221685
  H   0.49946021411964      1.18160749154377      1.04435968867484
  N   1.96042502332587      0.16923345169484     -0.14083899124034
  H   1.87225577487455     -0.80438245053008      0.11783397727052
  H   2.68145945710473      0.61719194478649      0.40653377263160
  N   -1.69241946865133      0.55605800156279     -0.33056659717198
  H   -1.90424108165912      0.80533307138689      0.62901510951065
  H   -2.43743560491815     -0.03657025310693     -0.67476146130056
  N   -0.26608284135776     -1.38507656118566      0.34214261120342
  H   -0.84191214954378     -2.10964488805036     -0.06904638600518
  H   -0.58664600602043     -1.24952611819718      1.29573948665253
