14
Coordinates from ORCA-job run
  C   0.74750173826574      0.67660956412394     -0.32632835925813
  C   -0.50171042167215      0.07498119480625      0.30383300537510
  F   0.71546211952097      0.24314407189066     -1.68213482044797
  H   -0.56662327267606      0.46100393796312      1.32622483507083
  H   0.66155928979985      1.76319676342954     -0.37393608639923
  N   1.94076555904975      0.26186616182639      0.28660456111192
  H   1.81776137656795     -0.54173885404191      0.88271113543376
  H   2.49619253463263      0.99575778628196      0.68823399672050
  N   -0.28320229847623     -1.36632637622969      0.40785320921166
  H   -0.20449714052895     -1.75786283910707     -0.52390072064255
  H   -1.06242027780855     -1.81201554855432      0.87546628455695
  N   -1.66254863235051      0.55820890807475     -0.42442738379322
  H   -1.58508514602795      0.28092385500574     -1.39535658857026
  H   -2.51315542829648      0.16225137453063     -0.04384306836936
