14
Coordinates from ORCA-job run
  C   0.60810572204881      0.65465429956964      0.16356097768665
  C   -0.52683116628812     -0.26252698842852     -0.27278982601217
  F   0.55785602165252      1.80100483133495     -0.66373174689467
  H   -0.29586674516966     -0.57937635092498     -1.30639749211185
  H   0.43334029473790      1.00202563212908      1.18442410325021
  N   1.86107345525093     -0.00387859102145      0.08273233325917
  H   2.60794545375724      0.56982606252893      0.45113138989957
  H   2.07241024246389     -0.23423782713913     -0.88090323287416
  N   -1.83086072476065      0.36800242627945     -0.31214483683799
  H   -1.79217506975284      1.19490757019578     -0.89491920932420
  H   -2.07434797143601      0.64988166795322      0.63143238860273
  N   -0.60353317831940     -1.34526016561042      0.68576134683343
  H   -1.30878304194178     -2.00437831324529      0.38128396862897
  H   0.29166670775717     -1.81164425362126      0.75055983589429
