14
Coordinates from ORCA-job run
  C   0.59669578240947      0.75997349911691      0.10529963956977
  C   -0.42418236013471     -0.25656815376417     -0.39489997357508
  F   0.36786073651911      1.95208628816344     -0.58943119855555
  H   -0.19344296348040     -0.41372163418260     -1.45341166065587
  H   0.38901549394477      1.01597876232215      1.15794447065364
  N   1.91763297266403      0.30747872818794     -0.15552615946231
  H   2.60060162059207      0.74152093699462      0.44844166503215
  H   1.94993548994952     -0.69856563283575     -0.05578047922886
  N   -1.80610336482741      0.19981860817854     -0.31986394354534
  H   -1.91300995694435      1.02913235211452     -0.89353192017350
  H   -2.02168310082839      0.47204975588839      0.63464998372252
  N   -0.19792318803072     -1.50913794937480      0.30277860631183
  H   -0.43140741686593     -1.39650377248487      1.28484089051840
  H   -0.83498974496706     -2.20254178832432     -0.07150992061180
