14
Coordinates from ORCA-job run
  C   0.56480037951574      0.77657154649861     -0.03045328479328
  C   -0.56903049865108     -0.17856714214044      0.32564134125269
  F   0.78876622759475      0.59847168351570     -1.43549833128423
  H   -0.77398549475834     -0.05530978278976      1.39287305611760
  H   0.25183284920417      1.81926237721131      0.06292129147594
  N   1.70883184602253      0.52699314892214      0.74292339840529
  H   1.92528618781197     -0.46117573821803      0.73370559792892
  H   2.50138744124197      1.08224151322750      0.45322691411053
  N   -0.07010484683431     -1.52593274307978      0.11252957393981
  H   0.12184210399359     -1.64091562378261     -0.87682054639582
  H   -0.80463537550995     -2.17992160375737      0.35395885677404
  N   -1.80839885800295      0.08272348012807     -0.39888373096469
  H   -1.59020696743718      0.22587084808220     -1.37913354053391
  H   -2.24638499419091      0.93068803618245     -0.05599059603289
