14
Coordinates from ORCA-job run
  C   0.65875482971367      0.68500568530406      0.01420059316993
  C   -0.58078125754316     -0.08164763071234     -0.42700977397119
  F   0.84592574148133      1.77222864643034     -0.81416558581757
  H   -0.46589615850658     -0.22525715332450     -1.50549473707433
  H   0.51408076697624      1.08785240465853      1.03148732175657
  N   1.84081349830575     -0.14741123439005     -0.12207646921868
  H   2.00318989730497     -0.66023814126229      0.73526246029662
  H   2.63396389542571      0.46802107183796     -0.25967290133741
  N   -1.75248440445057      0.73084731940707     -0.19135693791514
  H   -2.56550469894619      0.22111859612527     -0.51628867195383
  H   -1.87401872686219      0.88147750800590      0.80477121660383
  N   -0.68084852545587     -1.41126924959639      0.17240466085706
  H   -0.69058011720616     -1.34536630926646      1.18547571768369
  H   0.11338525976306     -1.97536151321714     -0.10753689307954
