14
Coordinates from ORCA-job run
  C   0.65689437744240      0.62248949660262      0.12001422317727
  C   -0.50714796780881     -0.24486313969207     -0.34872295907691
  F   0.60337806314640      1.79138588721572     -0.68600840533301
  H   -0.40402136515026     -0.32884467770716     -1.43833100921679
  H   0.48346652121376      0.98679011717055      1.13876681481057
  N   1.90124359550432     -0.03418910775144      0.05557445183475
  H   2.03169105978668     -0.51111045078795     -0.82605791696761
  H   2.66845067580992      0.60124968435417      0.22746766900118
  N   -1.80914015525012      0.37490318777729     -0.11748884192208
  H   -1.85753699790285      1.25796128937985     -0.61378439065824
  H   -1.91743203911999      0.57232049788048      0.87257115705692
  N   -0.41150525719786     -1.56528523967929      0.23208974070086
  H   -0.11453341960012     -1.52275133923524      1.19872424009828
  H   -1.32380709087345     -2.00205620552754      0.18518522649484
