14
Coordinates from ORCA-job run
  C   0.90332541465338      0.37722854521962     -0.48884505742723
  C   -0.20545343337439     -0.48359261266563      0.12204463304886
  F   1.80380141761561     -0.44496697699047     -1.12834933407552
  H   0.25866997483203     -1.10745771620241      0.89377747772293
  H   0.46096046609980      1.04174529612794     -1.24605482917674
  N   1.63820696962673      1.18236142153076      0.44838843361627
  H   2.13036005931979      0.55934939415265      1.08066029532904
  H   0.96607994903733      1.70379777017172      0.99914664935868
  N   -0.76535402095963     -1.36703639809803     -0.88343599704608
  H   -1.10877282210964     -0.83291927490031     -1.67398288789133
  H   -1.53972412940142     -1.89461477380217     -0.49950019737639
  N   -1.11406247380262      0.44233531103986      0.80817727420528
  H   -1.71383294188308      0.89122275064221      0.12334635225748
  H   -1.71520442965389     -0.06545273622576      1.44562718745475
