14
Coordinates from ORCA-job run
  C   0.70776960153087      0.46276891546125     -0.33043054194427
  C   -0.39169137047008     -0.50564948050976      0.08274593440500
  F   1.65708726911709     -0.27482801153840     -1.08343323975510
  H   0.06785753258886     -1.22791794084173      0.78167068917817
  H   0.30322086504004      1.21660468655961     -1.01000663306041
  N   1.29632277823951      1.08276452555827      0.79874113147362
  H   1.76168423190557      0.39273314414591      1.37599313956208
  H   1.97039228265790      1.78464338342001      0.52424566761837
  N   -0.93748051821993     -1.11430143052342     -1.11374028941863
  H   -0.20643495582209     -1.59644244974896     -1.61981106318931
  H   -1.64401674435233     -1.78578984334027     -0.83972160938605
  N   -1.49450314534755      0.12868033369412      0.77679881756503
  H   -1.13342000654647      0.69056886812647      1.53827617027602
  H   -1.95878782032139      0.74716529953691      0.11967182667549
