14
Coordinates from ORCA-job run
  C   0.65229408855546      0.67971076155018     -0.16618013324662
  C   -0.64052300035764     -0.05843391480722      0.18512349728610
  F   1.05518771042759      0.26080225282841     -1.44752535606102
  H   -0.86108818338442      0.19145815870909      1.23364430715652
  H   0.48012117035279      1.75750609939043     -0.24450155110303
  N   1.65880322302714      0.44163661211284      0.80598804083617
  H   2.50178867528436      0.95294792975435      0.58000847719820
  H   1.88595997358946     -0.54462387621863      0.82921283360773
  N   -0.54065337616269     -1.50211398066034      0.10166711122962
  H   -0.11563488572626     -1.75569934124872     -0.78197886039938
  H   -0.00606202917423     -1.88812987710067      0.86785248538702
  N   -1.67432211604598      0.33644806204081     -0.75580742184607
  H   -2.50904184040870     -0.19515923442120     -0.54323682714613
  H   -1.88682940997688      1.32265034807067     -0.66426660289911
