14
Coordinates from ORCA-job run
  C   0.77522457870867      0.48692800461141     -0.53758464347639
  C   -0.59263423859718     -0.18627469416508     -0.41023906460051
  F   1.44321383353179     -0.21044354571549     -1.57913272893895
  H   -1.03246704600217     -0.22752965399431     -1.41688750947776
  H   0.66635130468672      1.51165243629321     -0.90428673713385
  N   1.50996838692273      0.44333579239275      0.65068698562918
  H   1.87220272593291      1.29845320823993      1.02549431208535
  H   1.22226642977228     -0.26065787965969      1.30970893178163
  N   -1.52633092237572      0.51938115299913      0.44436804939851
  H   -1.07028148195638      0.73446711678333      1.32362268199955
  H   -1.81742000826780      1.38783964666933      0.01273750851404
  N   -0.37337322634309     -1.49254100311808      0.18925239337075
  H   -1.27103541194042     -1.94148896001092      0.31910773055182
  H   0.19531507592767     -2.06012162132550     -0.42784790970335
