14
Coordinates from ORCA-job run
  C   0.85118605342565      0.50097011788182     -0.47563664891307
  C   -0.53330950223415     -0.12187448187747     -0.57556660748009
  F   1.74167598459667     -0.15848816136834     -1.29517680275287
  H   -0.91032932216676      0.05729137349209     -1.58763406196681
  H   0.80151077846213      1.53957478484494     -0.82302069618876
  N   1.34126318667994      0.36516710976656      0.88676727185683
  H   1.02340451336706      1.15960223078083      1.42865817829865
  H   2.35348139447389      0.39559275923144      0.86147865739041
  N   -1.36991264978819      0.65549548219337      0.34833933312773
  H   -1.24620379812585      0.27903914087748      1.28192719515499
  H   -2.34735606289871      0.54881386090987      0.10732787646250
  N   -0.43053712007177     -1.54964056332208     -0.36604439272805
  H   0.07709204649970     -1.71112568598237      0.49651032029321
  H   -1.35196550221962     -1.96141796742814     -0.28992962255466
