14
Coordinates from ORCA-job run
  C   0.79257340388075      0.68481961096148     -0.52836126989311
  C   -0.47066404775712     -0.17862372594273     -0.42620960564112
  F   1.45858285521962      0.28123691319162     -1.67338279761570
  H   -0.88179556352123     -0.27328834107659     -1.44134524869162
  H   0.51790736201556      1.73837463281964     -0.66285946851102
  N   1.69915702566778      0.58138867867290      0.57004781353563
  H   1.28683164388362      1.00463650568042      1.39183900866672
  H   1.86122665172012     -0.40347889829195      0.75074392525724
  N   -1.37234483741950      0.47359099642528      0.52441188902808
  H   -1.61277361418379      1.40676792309895      0.20690391220832
  H   -2.23562106119135     -0.05412734644885      0.58559527665184
  N   -0.11347054103005     -1.50456953651071      0.04008365001536
  H   -0.69395018585089     -2.21457165568104     -0.38254177899087
  H   -0.23365909143351     -1.54115575689842      1.04507469398026
