14
Coordinates from ORCA-job run
  C   0.87037718031939      0.40351263180983     -0.46849912663155
  C   -0.29338861652556     -0.39947176364357      0.10551379109513
  F   1.67243520393434     -0.49850560320006     -1.16849426882563
  H   0.13596158389665     -1.08174676273544      0.85809594116936
  H   0.48204116858559      1.12855161229370     -1.19126968121506
  N   1.69072823431282      1.08204770445067      0.48378358364333
  H   1.92897762547633      0.44913684322129      1.23959243862355
  H   1.15259277718411      1.84018514663364      0.88331501243266
  N   -0.97710876391025     -1.08026182950397     -0.98618989238546
  H   -1.65622752887165     -1.73555670817900     -0.61756477264285
  H   -0.30485879271517     -1.60184498491496     -1.53604607585216
  N   -1.16890789985246      0.52529689444449      0.80428707993711
  H   -1.79167877832020      0.93501674799194      0.11538679471198
  H   -1.74294339351392      0.03364007133145      1.47708917593960
