14
Coordinates from ORCA-job run
  C   0.76388539921471      0.57635355863584     -0.54788770282517
  C   -0.58791298310235     -0.13483762505592     -0.40991412919101
  F   1.44951032678545     -0.07571914841846     -1.56435438997203
  H   -1.05619029266893     -0.12890488998313     -1.40633632890548
  H   0.60631058236957      1.61391246907605     -0.86806159655686
  N   1.60852701434182      0.58164179812256      0.61178077427768
  H   1.83776552601676     -0.37378263522181      0.86081811999936
  H   1.08864542837666      0.99031925417366      1.38021006419306
  N   -1.35075534885155      0.56987916513076      0.61046690057336
  H   -2.19394182912991      0.03776443380930      0.79131536876788
  H   -1.62754091030359      1.48602206310225      0.27691213575961
  N   -0.50947058764293     -1.51949412608711      0.00721488387476
  H   0.03787529569101     -2.05146878668396     -0.65795782853726
  H   -0.06570762109672     -1.57368553060004      0.91679372854209
