14
Coordinates from ORCA-job run
  C   0.60031157211788      0.68500518976932     -0.09107018850615
  C   -0.61581869364116     -0.19806665570158      0.18454907076979
  F   0.80448002529046      0.79389504843564     -1.45403827478125
  H   -0.75831928582556     -0.18426518586681      1.28238842375225
  H   0.38468152215470      1.70794940855339      0.25570499194503
  N   1.79309027931730      0.10222426788205      0.47125268048786
  H   2.59181623448464      0.69274323680185      0.27317640804697
  H   1.69620150421753      0.02812312752923      1.47707381968137
  N   -0.37020031403004     -1.50635507073327     -0.37356669299887
  H   0.56432852856999     -1.81623290114456     -0.14252043644908
  H   -1.05695276105835     -2.16218827476689     -0.02760834201668
  N   -1.84847956955694      0.29336416846757     -0.40081966415780
  H   -1.71008117399565      0.34699290068243     -1.40370931439605
  H   -2.07305786804481      1.21781074009165     -0.05081248137739
