14

C	-0.519939	0.191847	-1.420231
C	0.0	0.0	0.0
Br	-0.755603	-1.597229	-2.224571
H	1.088642	0.0	0.0
H	-1.527222	0.61097	-1.419496
H	-0.344183	-0.915635	0.476211
C	0.416829	1.005449	-2.291065
H	1.419367	0.577701	-2.255071
H	0.053122	1.059533	-3.320211
H	0.469069	2.012863	-1.871203
N	-0.423521	1.097024	0.868606
O	-0.416851	0.891903	2.086644
O	-0.687809	2.195659	0.355465
H	2.711518	0.0	0.0
