14

C	-0.504787	0.236736	-1.422975
C	0.0	0.0	0.0
Br	-0.792261	-1.523182	-2.272383
H	1.088644	0.0	0.0
H	-1.498362	0.688351	-1.422701
H	-0.351862	-0.927872	0.446135
C	0.462851	1.041344	-2.267748
H	0.55731	2.030181	-1.815299
H	1.448489	0.573412	-2.244218
H	0.103647	1.14329	-3.294408
N	-0.437805	1.073737	0.889798
O	-0.64514	2.195562	0.403858
O	-0.509028	0.826596	2.097915
H	2.714081	0.0	0.0
