16
Coordinates from ORCA-job run
  C   -0.78343232289621      0.24549858886647     -0.06463696125198
  C   0.67954320957156     -0.22854289996452      0.02938664964876
  F   -0.84732732262093      1.28287206390889     -0.91536908933378
  H   0.73627625088755     -1.24886393856980      0.40423447948642
  N   -1.44499147098092      0.56188479256877      1.13753933755255
  H   -1.02534810185488      1.36019119500021      1.59345467970874
  H   -1.53301606802278     -0.23402915778624      1.75383590037948
  N   -1.57469531128613     -0.92601646196504     -0.66816880669436
  O   -2.17152436083014     -0.73182749339868     -1.70978218610484
  O   -1.54834798730700     -1.94687332760760      0.01204570940185
  N   1.50265676350570      0.63227374327664      0.92812220791733
  O   1.18619237634860      1.81335923724587      1.03508395478740
  O   2.45657975537323      0.07146991605500      1.45840837667722
  N   1.31809066160720     -0.21221060833961     -1.33526471395717
  O   2.23317609379577      0.57023484227263     -1.54009922557043
  O   0.81516783470938     -1.00842049156299     -2.11779031264719
