16
Coordinates from ORCA-job run
  C   -0.83179030350639      0.27891879689004     -0.05338699181994
  C   0.66412781857162      0.55111608586413     -0.24861220371588
  F   -1.49721771418386      0.85231785622301     -1.08677312620265
  H   0.79020808223157      1.62984701695308     -0.32649477135503
  N   -1.26521028916158      0.84918734881286      1.15255940564111
  H   -2.26491935285947      1.00740997701110      1.11095928576113
  H   -1.05737285651466      0.24277878606054      1.93584749198473
  N   -1.16156309616908     -1.23327609032217     -0.18968371367067
  O   -1.87974843714028     -1.72270911822402      0.67008877381470
  O   -0.71400185538867     -1.78147537004602     -1.18858462913964
  N   1.27479885153164     -0.04917060281229     -1.49272979447823
  O   0.93538519114251      0.49856680092281     -2.53074259677447
  O   2.04423060879950     -0.98737469656722     -1.34902741053122
  N   1.45448234450406      0.07704940488530      0.92001070803012
  O   2.51143370206566      0.66054796783551      1.12341588001252
  O   0.99615730607744     -0.87273416348667      1.55215369244342
