12

C	0.0	0.0	0.0
C	-0.49569	0.109189	-1.445725
F	1.382903	0.0	0.0
H	-1.380532	0.744257	-1.444415
H	-0.367957	-0.907462	0.462596
H	0.333594	0.543676	-2.015648
C	-0.408771	1.166856	0.819597
N	-0.471746	2.128569	1.490882
N	-0.784315	-1.248727	-1.929277
H	-1.676037	-1.450189	-1.467962
H	-0.97118	-1.215985	-2.923268
H	-2.830695	0.0	0.0
