12

C	0.0	0.0	0.0
C	-0.412708	-0.068256	-1.450342
F	1.389226	0.0	0.0
H	-1.505654	-0.144787	-1.437017
H	-0.368201	-0.874685	0.535466
H	-0.106115	0.869172	-1.944053
C	-0.412512	1.230814	0.693476
N	-0.52429	2.183851	1.372596
N	0.212118	-1.26844	-2.027935
H	-0.214813	-1.46087	-2.928986
H	1.199903	-1.095091	-2.180466
H	-2.872957	0.0	0.0
