12

C	0.0	0.0	0.0
C	-0.510629	0.073408	-1.439769
F	1.383323	0.0	0.0
H	-1.224499	0.898069	-1.514658
H	-0.35266	-0.911908	0.477237
H	0.365987	0.277189	-2.067488
C	-0.393876	1.173116	0.808755
N	-0.456252	2.147069	1.463427
N	-1.101137	-1.216387	-1.796304
H	-1.988399	-1.182548	-1.267042
H	-1.347014	-1.182575	-2.782447
H	-2.826193	0.0	0.0
