12

C	0.0	0.0	0.0
C	-0.36576	-0.355581	-1.467937
F	1.383726	0.0	0.0
H	0.378229	0.198704	-2.053615
H	-0.379556	-0.719393	0.725052
H	-0.109583	-1.418239	-1.571604
C	-0.415156	1.362235	0.373622
N	-0.577021	2.489875	0.658976
N	-1.68697	-0.099047	-1.982411
H	-1.777678	0.900486	-2.133929
H	-2.406446	-0.270802	-1.237046
H	-3.382193	0.0	0.0
