12

C	0.0	0.0	0.0
C	-0.432841	0.090778	-1.447724
F	1.389294	0.0	0.0
H	-0.164431	1.097613	-1.820928
H	-0.359691	-0.925295	0.448137
H	-1.52353	-0.007021	-1.415509
C	-0.400743	1.159004	0.809332
N	-0.357055	2.153161	1.436426
N	0.199533	-1.015246	-2.171478
H	-0.235161	-1.089423	-3.081437
H	1.183509	-0.815841	-2.299913
H	-2.789395	0.0	0.0
