13
Coordinates from ORCA-job run
  C   0.52091373450601      0.02435627290144      0.84019112227146
  C   -0.64509310939861     -0.18231182211282     -0.12801247108235
  Cl  0.86861876464123      1.71807673971508      1.10803201996232
  H   -0.78127600966264     -1.26484374280893     -0.20508025723117
  H   0.33168798503662     -0.45695624768124      1.79961230139340
  N   1.70729005077342     -0.71365145779794      0.23775453734627
  O   2.69149317591613     -0.09459497129392     -0.12290559623619
  O   1.52605580635794     -1.92514213600816      0.17044854590653
  N   -0.27817997218177      0.31935925964108     -1.43483009371068
  H   -0.27849020264000      1.33193798469353     -1.44917436536119
  H   -0.92531795478441     -0.01285088064170     -2.13779074967233
  C   -1.87324235302240      0.39228493295969      0.45362775983245
  N   -2.86545991554152      0.86433606843388      0.86912724658148
