13
Coordinates from ORCA-job run
  C   0.72037832624939     -0.55365893603719      0.16878878645412
  C   -0.65061116071601      0.10026857493153     -0.00465471214332
  Cl  0.62985064004722     -1.87842639975910      1.32654171581958
  H   -0.96514657617170      0.47137483949729      0.97973677282147
  H   1.09994673193629     -0.93163809546925     -0.77785748755743
  N   1.70469736047138      0.46742419774593      0.66918031717372
  O   1.37079091553866      1.11207435436044      1.65768071716712
  O   2.74813960239287      0.57586688980312      0.03332336746365
  N   -1.54679971869217     -0.87198654244151     -0.61865660446510
  H   -1.87206423033362     -1.52371423188621      0.08486128175416
  H   -2.35363499195814     -0.40336797843352     -1.01100234967614
  C   -0.49952750118001      1.25652726093687     -0.89505724261101
  N   -0.38501939758416      2.17825606675158     -1.61288456220080
