13
Coordinates from ORCA-job run
  C   0.73970330671203     -0.53257556683356      0.14788589875759
  C   -0.65369338924752      0.07450703085878     -0.01493185342576
  Cl  0.67982006555255     -1.93995818966108      1.20607527860332
  H   -1.00509202140670      0.36470226058375      0.98397143606301
  H   1.15797588452268     -0.82503290373459     -0.81261279841581
  N   1.66707969484687      0.48856125700925      0.74680078516981
  O   1.28217550023816      1.04585567914413      1.76948939954489
  O   2.72111561380869      0.68437431508617      0.15032503193099
  N   -1.49393450166173     -0.88995062712911     -0.71463933707586
  H   -1.80901348093058     -1.59934188280532     -0.06443284444340
  H   -2.30960194750342     -0.42951471867081     -1.09796213717619
  C   -0.53288353668313      1.29318028096522     -0.82284731244785
  N   -0.44465118824788      2.26519306518717     -1.47512154708474
