15
Coordinates from ORCA-job run
  C   -0.53467664260490      0.35311264128543     -0.14859322307295
  C   0.60798265533915     -0.65496239755683     -0.13527375779034
  F   -0.28298990635189      1.27899473609036     -1.16424658738881
  H   0.39101703377557     -1.40541878129284      0.63174487082206
  H   0.58382740544491     -1.16325427734718     -1.10494176146574
  C   -0.56982756294069      1.10248080810170      1.12338490770286
  N   -0.60167509238000      1.66595313178073      2.15268057225136
  C   -1.88647638220350     -0.27764687528839     -0.42584760487125
  H   -1.84207003591144     -0.80270323698713     -1.38202660228776
  H   -2.65432597482803      0.49523059987632     -0.48196045586817
  H   -2.15073664300302     -0.98547558655875      0.36183779220267
  C   1.97316923049235     -0.01925972412590      0.09976503035020
  H   2.17617445314743      0.74413421618790     -0.65199396155840
  H   2.03094530952464      0.44567595889580      1.08621214160312
  H   2.75866215249941     -0.77486121306122      0.03825863937115
