15
Coordinates from ORCA-job run
  C   -0.46468707309061      0.53836454466989     -0.35425681368942
  C   0.93059471849746      0.33401518140708      0.23069247719911
  F   -0.37522136213428      0.40498846273374     -1.74248106070734
  H   1.58212619355491      1.07875587004453     -0.23601637132685
  H   0.89243942023582      0.56769882990029      1.29942409088915
  C   -0.90827604069417      1.91956979470304     -0.07880883741603
  N   -1.25619910535764      3.01169605654653      0.17456162129022
  C   -1.50764063628780     -0.44863987320765      0.13660659371894
  H   -1.59825354014795     -0.40266153087639      1.22360622549275
  H   -2.47509145181471     -0.21584236685987     -0.30997623054842
  H   -1.22212697291919     -1.45797064807713     -0.15964333202722
  C   1.48588302697445     -1.06731604857513     -0.00174027894291
  H   1.41923156098143     -1.33815950334531     -1.05658218366999
  H   2.53776282800522     -1.10256832480925      0.28818442591132
  H   0.95845843419706     -1.82093044425437      0.58542967382669
