15
Coordinates from ORCA-job run
  C   -0.51551538671135      0.50004825520518     -0.34027324551836
  C   0.93548829062012      0.37537070955692      0.11783047449044
  F   -0.55418085008069      0.27926261003549     -1.71955876399078
  H   1.51255027280028      1.10706537800320     -0.45538521883715
  H   0.99044074073147      0.67739829707155      1.16854437564710
  C   -0.97823446189704      1.88328658095054     -0.10904263737151
  N   -1.33753525607654      2.97932346955244      0.10882742528478
  C   -1.47118272056916     -0.48311413595861      0.31001782086857
  H   -2.48509413426712     -0.30725878540062     -0.05145779314627
  H   -1.45721051515938     -0.37169222471558      1.39601679100536
  H   -1.18028356830675     -1.50035205448980      0.04764577379917
  C   1.51622339954059     -1.02088062002781     -0.07960158786433
  H   2.59107786554448     -1.00598699415487      0.11064679734831
  H   1.36146123086675     -1.36119310648353     -1.10463568523683
  H   1.07299509296435     -1.75027737914451      0.60042547352149
