15
Coordinates from ORCA-job run
  C   -0.57940827430655      0.47233438200982     -0.47556904341553
  C   0.78597406317586     -0.15370071865541     -0.73132881335265
  F   -1.10429188668674      0.84169286261643     -1.71622225281545
  H   0.61677301420147     -1.01777787423429     -1.38191305557267
  H   1.37180201897924      0.57092735038169     -1.30441551394353
  C   -0.43200263807524      1.70712802140019      0.32045941053763
  N   -0.30797929295427      2.66907092255499      0.98195939972504
  C   -1.57783898094080     -0.46000126629473      0.18450834892482
  H   -1.65262252524053     -1.37666374049443     -0.40432553207825
  H   -2.55677282197758      0.02019376156732      0.21708397395150
  H   -1.27601461691305     -0.70836402997842      1.20245804148516
  C   1.52860973979184     -0.56182812761811      0.53648242426092
  H   1.00354642605850     -1.35079747133462      1.07792235284744
  H   2.51982173257496     -0.94188188534746      0.28268809464904
  H   1.66240404231290      0.28766781342704      1.21021216479653
