16
Coordinates from ORCA-job run
  C   -0.52479936584900      0.05672061008885     -0.25834412446163
  C   0.85276632194909     -0.46860020561415      0.12108570435646
  F   -0.49730586097945      0.37513813772251     -1.62353529886502
  H   1.02187740156256     -1.38128937068334     -0.45830352546671
  H   0.83291058935880     -0.76543820012726      1.17658435116379
  N   -0.78745582765092      1.29488606989761      0.43190687636348
  H   -1.75185194620576      1.57554430203055      0.29871302645157
  H   -0.61675924924265      1.19035342381517      1.42381367093420
  C   -1.61140419886916     -0.99608493858828     -0.10967570090666
  H   -1.38106991007547     -1.87888866977303     -0.70983511749046
  H   -1.71498596501458     -1.29412275028517      0.93617689339517
  H   -2.56476950005093     -0.58720532702998     -0.45414339524326
  C   1.97379074564367      0.53139478693887     -0.13966445068722
  H   1.85281945507315      1.43169969788061      0.46235622840116
  H   1.97139646183445      0.83047975062613     -1.18807915916760
  H   2.94484084851619      0.08641268310092      0.08994402122272
