16
Coordinates from ORCA-job run
  C   -0.56774266543414     -0.01538111915465     -0.15622738667052
  C   0.86654610709047     -0.48166684592064      0.04369272598565
  F   -0.67509313143313      0.35422037312715     -1.53204156465318
  H   0.94596085756081     -0.90893119863840      1.04734235631369
  H   1.04302019793051     -1.28842280167175     -0.67371405421143
  N   -0.87253014798482      1.09578676712413      0.67847955099433
  H   -0.27672667105114      1.88251681141803      0.45436841136265
  H   -1.83475111547105      1.38126361300982      0.54244545237701
  C   -1.57713705245263     -1.12396912684851      0.05340793495130
  H   -2.58069039103096     -0.76213371584038     -0.18436081116835
  H   -1.35397618511196     -1.96173098429169     -0.60841061817808
  H   -1.55868140369453     -1.46326670846448      1.08959449453551
  C   1.90662581458568      0.61707074553090     -0.15117391370225
  H   1.86601911818717      1.35721827540583      0.65118583321242
  H   1.75616777615855      1.12255297933301     -1.10678989691124
  H   2.91398889215120      0.19587293588163     -0.14879851423752
