16
Coordinates from ORCA-job run
  C   -0.72627493409611      0.12528475967684     -0.43405675823204
  C   0.75625327644869      0.11826847293271     -0.79613586176960
  F   -1.39181074784827      0.16561991606130     -1.67099065802854
  H   0.94062718072762     -0.72857462791591     -1.46430500835950
  H   0.94024767886793      1.02433501245990     -1.38532747657067
  N   -1.15821753334462      1.27964568394219      0.30295209399041
  H   -1.08230318271038      1.14377462169944      1.30021887485874
  H   -0.64605514431083      2.11010791433857      0.03467103796089
  C   -1.19408286375847     -1.13289280824097      0.26853495924908
  H   -0.72606572101468     -1.24883099338850      1.24806729931763
  H   -0.95598303989420     -2.00649522730021     -0.33975812520465
  H   -2.27607033226591     -1.07865002445762      0.39622812735905
  C   1.69394416412587      0.06608471837126      0.40445113710828
  H   1.49463026146074      0.88505914223955      1.09944081260106
  H   1.59787945013325     -0.87450657703316      0.95077662487023
  H   2.73428148747938      0.15277001661462      0.08423292084964
