19

C	0.0	0.0	0.0
C	-0.254593	0.118081	-1.564571
Br	1.994307	0.0	0.0
H	0.572663	-0.397435	-2.055839
C	-0.465826	1.209738	0.790404
H	0.005915	2.133461	0.460567
H	-1.554446	1.275446	0.694131
H	-0.211338	1.035075	1.837222
N	-0.46624	-1.174968	0.651513
H	-1.470684	-1.037414	0.800342
H	-0.369379	-1.974689	0.038157
C	-0.351105	1.543931	-2.066651
H	-0.392131	1.557429	-3.156131
H	0.529373	2.103058	-1.745103
H	-1.256466	2.01688	-1.685932
N	-1.410903	-0.698868	-2.111474
O	-2.211232	-0.154692	-2.859458
O	-1.362817	-1.909371	-1.891434
Cl	-3.633064	0.0	0.0
