19

C	0.0	0.0	0.0
C	-0.247574	0.325733	-1.510753
Br	1.99282	0.0	0.0
H	0.321825	1.22519	-1.750224
C	-0.500907	1.164489	0.832902
H	-1.596139	1.172887	0.778856
H	-0.197802	1.017685	1.870406
H	-0.104231	2.114575	0.471112
N	-0.515783	-1.215882	0.526441
H	-0.433903	-1.960575	-0.153572
H	-1.502804	-1.077326	0.741023
C	-1.690165	0.469109	-1.95293
H	-1.721575	0.450944	-3.047221
H	-2.336999	-0.305039	-1.553299
H	-2.107025	1.418236	-1.612547
N	0.367319	-0.709428	-2.406857
O	0.078389	-1.891402	-2.215511
O	1.07492	-0.309137	-3.330144
Cl	-4.208365	0.0	0.0
