19

C	0.0	0.0	0.0
C	-0.27108	0.057905	-1.567732
Br	1.993256	0.0	0.0
H	0.578693	-0.426113	-2.051211
C	-0.450077	1.238618	0.753156
H	-0.167483	1.107502	1.798812
H	0.008881	2.150169	0.374645
H	-1.539645	1.298689	0.681336
N	-0.460729	-1.146122	0.705397
H	-1.466537	-0.999695	0.84196
H	-0.362975	-1.973359	0.130948
C	-0.441762	1.461104	-2.11073
H	-1.358093	1.905948	-1.722078
H	0.421407	2.065943	-1.826063
H	-0.505662	1.438033	-3.198808
N	-1.385534	-0.836066	-2.083568
O	-1.29696	-2.029901	-1.795952
O	-2.187967	-0.369301	-2.880015
Cl	-3.598934	0.0	0.0
