19

C	0.0	0.0	0.0
C	-0.521412	0.075907	-1.45141
Br	2.029016	0.0	0.0
H	-1.577705	0.358016	-1.328262
C	-0.450078	1.171363	0.851248
H	-0.088864	2.115743	0.453791
H	-1.545633	1.159708	0.855387
H	-0.068324	1.046617	1.868718
N	-0.48071	-1.19929	0.553297
H	-0.021475	-2.029895	0.212527
H	-0.536555	-1.182888	1.559348
C	-0.420722	-1.21623	-2.23052
H	0.596269	-1.613082	-2.231488
H	-1.119132	-1.92464	-1.787383
H	-0.719668	-1.047118	-3.265444
N	0.136506	1.192861	-2.20336
O	-0.176361	2.342966	-1.893646
O	0.947614	0.909499	-3.085406
Cl	-3.798789	0.0	0.0
