19

C	0.0	0.0	0.0
C	-0.526795	0.043838	-1.450163
Br	1.9639	0.0	0.0
H	-1.600397	0.249499	-1.342248
C	-0.404795	1.231464	0.809319
H	0.021564	2.152812	0.415958
H	-0.061773	1.098254	1.839361
H	-1.495828	1.291727	0.794548
N	-0.48563	-1.237639	0.56521
H	-0.252474	-1.243784	1.553422
H	-1.509329	-1.177247	0.502827
C	-0.294811	-1.222802	-2.243949
H	-0.848647	-2.032826	-1.774313
H	-0.657849	-1.088086	-3.265065
H	0.763114	-1.481005	-2.277276
N	0.03185	1.224432	-2.18639
O	0.927682	1.031412	-3.00951
O	-0.445437	2.330381	-1.928423
Cl	-3.656551	0.0	0.0
