19

C	0.0	0.0	0.0
C	-0.529633	0.082933	-1.444443
Br	2.029062	0.0	0.0
H	-1.591353	0.338307	-1.303351
C	-0.454487	1.151201	0.874803
H	-0.097145	2.107065	0.501078
H	-0.076303	1.004054	1.890256
H	-1.549783	1.130073	0.874735
N	-0.461802	-1.21521	0.543747
H	-0.008902	-2.032154	0.162837
H	-0.434177	-1.221595	1.552496
C	-0.403343	-1.193854	-2.244145
H	-0.709984	-1.016037	-3.275188
H	0.623237	-1.565936	-2.255187
H	-1.082688	-1.927167	-1.811194
N	0.093084	1.225683	-2.183308
O	0.883755	0.977208	-3.093744
O	-0.228655	2.362437	-1.836324
Cl	-3.790269	0.0	0.0
