19

C	0.0	0.0	0.0
C	-0.22633	0.197501	-1.531006
Br	2.05609	0.0	0.0
H	0.274562	1.12059	-1.825718
C	-0.476914	1.22432	0.749752
H	-0.073059	2.140911	0.317259
H	-1.572142	1.242989	0.708312
H	-0.163007	1.150091	1.791883
N	-0.506683	-1.171452	0.603942
H	-0.424847	-1.964786	-0.018548
H	-1.48819	-1.022258	0.838006
C	-1.6673	0.188739	-1.998813
H	-1.68068	0.357419	-3.080188
H	-2.16038	-0.752166	-1.766728
H	-2.256199	0.957855	-1.507437
N	0.474075	-0.850339	-2.34817
O	1.147906	-0.466202	-3.301782
O	0.279329	-2.032355	-2.063185
Cl	-4.164733	0.0	0.0
