17

C	-0.547527	0.012117	-1.421615
C	0.0	0.0	0.0
Cl	0.150601	1.346718	-2.379955
H	1.09323	0.0	0.0
N	-0.077957	-1.266203	-2.179711
O	0.906736	-1.864372	-1.775735
O	-0.752613	-1.582909	-3.163002
N	-1.961243	0.09166	-1.442103
H	-2.271006	-0.644905	-0.81121
H	-2.300806	-0.08948	-2.378974
N	-0.57112	-1.223377	0.612714
H	0.190914	-1.89402	0.645566
H	-0.774387	-0.958741	1.569831
N	-0.452722	1.17176	0.729706
H	-1.265867	1.586871	0.289461
H	0.308717	1.838202	0.720448
F	2.646405	0.0	0.0
