17

C	-0.140172	-0.031787	-1.532015
C	0.0	0.0	0.0
Cl	-1.800404	-0.47221	-2.079594
H	1.100765	0.0	0.0
N	0.127662	1.383412	-2.059653
O	1.263521	1.618178	-2.450638
O	-0.780341	2.212949	-1.982711
N	0.824625	-0.904563	-2.122154
H	0.56723	-1.822805	-1.770746
H	1.703491	-0.662109	-1.625875
N	-0.424902	-1.30742	0.481455
H	-1.375091	-1.229282	0.827773
H	0.167121	-1.522667	1.275636
N	-0.573892	1.124714	0.710968
H	-1.328734	1.545987	0.188509
H	0.145018	1.82441	0.834256
F	2.670378	0.0	0.0
