17

C	-0.661906	0.012915	-1.386292
C	0.0	0.0	0.0
Cl	0.177444	1.181723	-2.417363
H	1.095013	0.0	0.0
N	-0.47956	-1.373302	-2.002236
O	0.639863	-1.692543	-2.381642
O	-1.460837	-2.115313	-1.978842
N	-2.066327	0.312707	-1.401197
H	-2.124438	1.201995	-0.907013
H	-2.506134	-0.390755	-0.813796
N	-0.550827	-1.160808	0.744421
H	-0.122165	-1.080623	1.663477
H	-0.123632	-1.999434	0.356713
N	-0.422813	1.2306	0.663935
H	0.403229	1.62586	1.094051
H	-1.110568	1.019342	1.37705
F	2.637047	0.0	0.0
