17

C	-0.730445	-0.003122	-1.340031
C	0.0	0.0	0.0
Cl	0.007701	1.234996	-2.434448
H	1.096076	0.0	0.0
N	-0.466294	-1.359737	-2.005589
O	-1.42679	-2.11159	-2.162852
O	0.687027	-1.61474	-2.30467
N	-2.133012	0.201608	-1.242589
H	-2.599898	-0.693924	-1.292365
H	-2.296424	0.658353	-0.350576
N	-0.417076	-1.202893	0.70065
H	0.383197	-1.537968	1.222882
H	-1.186559	-1.013272	1.332096
N	-0.484358	1.206163	0.724231
H	-0.121782	2.011512	0.214807
H	0.053413	1.198924	1.587495
F	2.634479	0.0	0.0
