17

C	-0.722579	-0.008852	-1.341821
C	0.0	0.0	0.0
Cl	0.046631	1.201613	-2.455835
H	1.093919	0.0	0.0
N	-0.464041	-1.373391	-1.99622
O	-1.44034	-2.089639	-2.222384
O	0.694361	-1.662274	-2.235289
N	-2.115533	0.215998	-1.248231
H	-2.307163	0.572442	-0.318855
H	-2.614609	-0.641934	-1.443026
N	-0.418175	-1.205192	0.703372
H	-1.148498	-0.991035	1.371794
H	0.396427	-1.556153	1.192073
N	-0.487702	1.201523	0.725217
H	0.111652	1.247593	1.54634
H	-0.214164	2.010541	0.170476
F	2.631802	0.0	0.0
