17

C	-0.596065	-0.031398	-1.404003
C	0.0	0.0	0.0
Cl	0.273778	1.201136	-2.446209
H	1.094995	0.0	0.0
N	-0.333536	-1.340116	-2.138628
O	-1.055789	-1.566069	-3.11016
O	0.567118	-2.067302	-1.743068
N	-1.990135	0.151404	-1.3683
H	-2.378492	0.262935	-2.294524
H	-2.136629	0.972082	-0.786181
N	-0.490224	-1.102264	0.80805
H	0.190184	-1.848286	0.744312
H	-1.391792	-1.433742	0.480313
N	-0.480915	1.27946	0.584626
H	-0.64745	1.056174	1.560626
H	0.324372	1.899923	0.566255
F	2.639641	0.0	0.0
