14
Coordinates from ORCA-job run
  C   -0.65463083652613      0.14070297440221      0.64412423287392
  C   0.80228025821474     -0.16386819948781      0.25144180066038
  F   -0.69433138627641      1.06054165782939      1.63797623474508
  H   1.20001608992384     -0.78291933829503      1.06281056243455
  C   -1.35306719223209     -1.08048745694595      1.04085146613109
  N   -1.85119634071494     -2.09072748788582      1.37369019521409
  N   -1.35827200304858      0.75609945623232     -0.56836898028758
  O   -0.92128458745001      1.85200293840155     -0.89695450510723
  O   -2.24543803481691      0.10918616212956     -1.10662867011665
  C   1.61060612498448      1.06686053771724      0.20542352374509
  N   2.33163352431975      1.99085782178512      0.12715119257103
  N   0.78049105637583     -0.94526828421536     -0.96498922297166
  H   1.58044112503262     -1.56010813924669     -1.02074227917591
  H   0.77175220221379     -0.35187264242075     -1.78578555071619
