14
Coordinates from ORCA-job run
  C   -0.59671425652722      0.25012808684285      0.46185728906543
  C   0.65166261151864     -0.34602480744441     -0.19833603738125
  F   -0.34702831254112      1.51844580313313      0.85210761588019
  H   0.38359778778871     -1.35268581227109     -0.53072741026397
  C   -1.09534682589137     -0.54918189144148      1.58022337568897
  N   -1.47012490062809     -1.20300233129082      2.48172550046100
  N   -1.68337294325809      0.28344849069245     -0.62163627622972
  O   -1.98467588260951     -0.81893360228245     -1.05571846193720
  O   -2.12199485019014      1.37250989731480     -0.93755295119501
  C   1.72162317716651     -0.44326963258802      0.81204770985075
  N   2.61262878148516     -0.48817787188053      1.57649219588210
  N   0.95899119808385      0.46469186042738     -1.35573530149617
  H   1.38874390961990      1.33994529551686     -1.08342536310339
  H   1.58301050598278     -0.02589348472868     -1.98232188522175
