14
Coordinates from ORCA-job run
  C   -0.61993159066023      0.05850175944090      0.63393331288662
  C   0.84756747272628     -0.08826003711523      0.21878159493824
  F   -0.71512290188343      0.85875581144662      1.72576284144568
  H   1.32357723480590     -0.55072224110678      1.09137755875956
  C   -1.22803789124537     -1.24523635371927      0.90535521814582
  N   -1.69113211580364     -2.29489585437500      1.15721626858490
  N   -1.45983018044562      0.73991308139945     -0.45614084631894
  O   -0.90337850181956      1.01321497365470     -1.51341619723193
  O   -2.61812367799501      0.96656679139394     -0.14161690159126
  C   1.45945526954764      1.24216517311750      0.04607101542409
  N   1.99535882817764      2.27740049952748     -0.09609358151793
  N   0.95192100192453     -0.99932835145727     -0.89604174015120
  H   1.85045304693643     -1.46146168962729     -0.90366427561988
  H   0.80922400573442     -0.51661356257975     -1.77252426775377
