14
Coordinates from ORCA-job run
  C   -0.66752233953284     -0.07130866341018      0.56199376858308
  C   0.79506346665142      0.13542541685114      0.13123871355209
  F   -0.70423112982606     -0.29476347593114      1.89207697213431
  H   1.17931590841217      0.89731093026957      0.81740588614557
  C   -1.30591943094686     -1.16724359072816     -0.16447186570104
  N   -1.74130060674730     -2.09191308432382     -0.74397771031855
  N   -1.41901000007420      1.23731077952625      0.30243958633483
  O   -2.19889053102176      1.26572253838579     -0.64003551629631
  O   -1.11404490435834      2.14926743111147      1.05873680246229
  C   0.84127838097793      0.66423242347381     -1.24385071735713
  N   0.92059583685864      1.03328661153143     -2.35678691373776
  N   1.50864115296229     -1.10340614321374      0.33832607012060
  H   2.49023864717207     -0.93116450350162      0.50746555342189
  H   1.41678554947284     -1.72175667004081     -0.45856062934386
