13

C	0.0	0.0	0.0
C	-0.3843	-0.26957	-1.505439
F	1.371963	0.0	0.0
H	0.602532	-0.354817	-1.984225
C	-0.42687	1.321649	0.480429
N	-0.433184	2.429729	0.87959
C	-0.415381	-1.081254	0.908402
N	-0.42381	-1.988395	1.658812
C	-1.047481	0.849442	-2.176446
N	-1.361856	1.762994	-2.84534
C	-1.044361	-1.553382	-1.751719
N	-1.356907	-2.639046	-2.077553
Br	-3.048239	0.0	0.0
