13

C	0.0	0.0	0.0
C	-0.389093	0.218111	-1.509939
F	1.372002	0.0	0.0
H	0.59619	0.251109	-1.999615
C	-0.425509	1.099968	0.879712
N	-0.426736	2.025821	1.607847
C	-0.417608	-1.312537	0.524359
N	-0.429733	-2.405856	0.961388
C	-0.99999	1.517683	-1.795626
N	-1.287748	2.602921	-2.142461
C	-1.102925	-0.892896	-2.144312
N	-1.454409	-1.783914	-2.825763
Br	-3.04859	0.0	0.0
