15

C	0.0	0.0	0.0
C	-0.460063	-0.311988	-1.46747
Cl	1.759932	0.0	0.0
H	0.458696	-0.284915	-2.059797
N	-0.36218	1.412082	0.482939
O	-0.243937	2.295116	-0.354211
O	-0.605206	1.547099	1.670039
C	-0.442812	-0.979377	0.98576
N	-0.577817	-1.800394	1.81663
C	-1.3204	0.688072	-2.130821
N	-1.82928	1.370007	-2.943433
N	-0.954051	-1.674862	-1.514001
H	-1.889705	-1.640623	-1.103648
H	-1.044806	-1.943728	-2.487694
Cl	-3.10021	0.0	0.0
