15

C	0.0	0.0	0.0
C	-0.548305	-0.238199	-1.456013
Cl	1.764078	0.0	0.0
H	-0.32881	-1.298694	-1.640389
N	-0.417409	1.379018	0.525478
O	-0.533935	1.48976	1.737
O	-0.529111	2.258678	-0.316365
C	-0.498415	-1.023021	0.904365
N	-0.844372	-1.915483	1.585809
C	0.254926	0.527627	-2.428607
N	0.868983	1.098356	-3.251546
N	-1.929611	-0.002176	-1.683573
H	-2.182588	0.97089	-1.574129
H	-2.591024	-0.52454	-1.101034
Cl	-4.511177	0.0	0.0
