15

C	0.0	0.0	0.0
C	-0.459902	-0.328427	-1.463946
Cl	1.75946	0.0	0.0
H	0.46066	-0.314875	-2.053191
N	-0.350481	1.421262	0.470574
O	-0.530775	1.576519	1.667227
O	-0.277532	2.291904	-0.384289
C	-0.441736	-0.963776	1.000066
N	-0.596546	-1.761893	1.8496
C	-1.320625	0.659985	-2.145467
N	-1.88464	1.307639	-2.948975
N	-0.958356	-1.689878	-1.494018
H	-1.03932	-1.971752	-2.464874
H	-1.897	-1.650011	-1.09097
Cl	-3.099768	0.0	0.0
