15

C	0.0	0.0	0.0
C	-0.482982	0.006397	-1.497306
Cl	1.76452	0.0	0.0
H	0.414497	-0.255089	-2.061783
N	-0.417568	1.203936	0.863718
O	-0.361442	2.296902	0.323393
O	-0.663876	0.964516	2.035703
C	-0.419166	-1.224771	0.674643
N	-0.564617	-2.232226	1.261219
C	-0.848311	1.337344	-2.030683
N	-1.093009	2.282245	-2.686105
N	-1.440005	-1.045418	-1.725657
H	-2.334931	-0.798112	-1.274827
H	-1.583112	-1.141699	-2.723826
Cl	-3.73447	0.0	0.0
