15

C	0.0	0.0	0.0
C	-0.559311	0.107994	-1.431179
F	1.380053	0.0	0.0
H	-1.669777	0.056677	-1.298281
C	-0.464877	1.150171	0.86962
H	-0.054785	2.080332	0.47014
H	-1.555829	1.18159	0.881915
H	-0.083563	0.998967	1.881263
C	-0.394482	-1.308481	0.561926
N	-0.58937	-2.383767	0.991992
C	-0.096625	-0.991387	-2.278472
N	0.272133	-1.870415	-2.964319
C	-0.195078	1.389808	-2.035608
N	0.089179	2.418224	-2.526273
Br	-3.691348	0.0	0.0
