15

C	0.0	0.0	0.0
C	-0.559805	0.211001	-1.419746
F	1.38028	0.0	0.0
H	-1.672026	0.149894	-1.289163
C	-0.462872	1.087008	0.948445
H	-0.036368	2.03879	0.625553
H	-0.098579	0.854038	1.950292
H	-1.554687	1.130746	0.949785
C	-0.39929	-1.343538	0.464809
N	-0.580874	-2.451145	0.80986
C	-0.099346	-0.827588	-2.343146
N	0.261985	-1.663398	-3.084997
C	-0.19598	1.532057	-1.931619
N	0.080005	2.597493	-2.341221
Br	-3.688664	0.0	0.0
