15

C	0.0	0.0	0.0
C	-0.278526	0.196366	-1.528653
F	1.383492	0.0	0.0
H	0.5101	-0.416763	-1.984914
C	-0.498345	1.080353	0.921814
H	-1.58954	1.10774	0.88125
H	-0.071518	2.036459	0.612678
H	-0.169447	0.849505	1.937044
C	-0.415203	-1.352337	0.409392
N	-0.561951	-2.462008	0.766243
C	0.027498	1.581021	-1.908473
N	0.324542	2.672545	-2.223819
C	-1.509296	-0.24644	-2.204061
N	-2.180365	-0.578569	-3.113032
Br	-3.6352	0.0	0.0
