15

C	0.0	0.0	0.0
C	-0.561817	0.237943	-1.413845
F	1.380113	0.0	0.0
H	-1.672602	0.175701	-1.282687
C	-0.463143	1.065262	0.972922
H	-1.553994	1.082516	1.00269
H	-0.063403	0.831138	1.961355
H	-0.07033	2.03217	0.650616
C	-0.397633	-1.352554	0.44102
N	-0.59596	-2.462496	0.769571
C	-0.101654	-0.781805	-2.357473
N	0.271324	-1.594349	-3.118932
C	-0.197814	1.568634	-1.901361
N	0.083955	2.638938	-2.294017
Br	-3.690271	0.0	0.0
