13
Coordinates from ORCA-job run
  C   -0.52612950120824     -0.00559304075046      0.22981480295603
  C   0.81067799865685     -0.77214021475555      0.27223869446730
  Br  -1.62310613801938     -0.89901791021842      1.71064324316210
  H   0.66138042870754     -1.82236824645314      0.00603338565855
  H   1.21115655158740     -0.74765502883050      1.28754005913374
  N   -0.48241865180218      1.38044430555915      0.57885196858797
  H   0.07978938495258      1.87988563952772     -0.10250510778739
  H   -0.12047344638694      1.52523008132192      1.51172340461593
  N   -1.10419812621412     -0.10886586285924     -1.04347362667487
  H   -1.22915788720197     -1.06161810336051     -1.35589699765391
  H   -1.97491941096289      0.40401633553791     -1.08871509485124
  C   1.76772154522938     -0.15262288737245     -0.64442939552444
  N   2.52867725266197      0.37830493265356     -1.36282533608976
