13
Coordinates from ORCA-job run
  C   -0.39732864755103     -0.13190800112663      0.22127648187397
  C   0.85457366774876     -0.54279763660105     -0.55934105767558
  Br  -0.63032355066935     -1.35312408450940      1.73692282255094
  H   0.92073328622051      0.08703086578248     -1.45651483135794
  H   0.73182956814637     -1.57325780316304     -0.89577518416339
  N   -0.19131078471538      1.18056397911745      0.78236192533585
  H   -0.98663455644231      1.46935319205442      1.33912727768092
  H   -0.04212571912591      1.85605963800581      0.03925057571123
  N   -1.53542537666457     -0.36041743688846     -0.65322040320972
  H   -1.52373405668809      0.33670162267910     -1.39263499560329
  H   -2.40151239218164     -0.25757312212258     -0.13669356523111
  C   2.09168746495907     -0.40281161277084      0.20143586973318
  N   3.11157109696356     -0.30681960045728      0.77280508435496
