13
Coordinates from ORCA-job run
  C   -0.45258495882496      0.00140414815364      0.21180379540400
  C   0.73150359745545     -0.55140227711168     -0.60387256283032
  Br  -0.57890161731089     -1.21609282309855      1.84241351772094
  H   0.74024160781704     -0.01571489600149     -1.55945586857046
  H   0.57799766644767     -1.61421719416446     -0.79938089527523
  N   -0.23883128547111      1.35510334017352      0.52235089463805
  H   -1.02485415664005      1.72686530528847      1.04019005546681
  H   0.62509575536969      1.51780693919181      1.02341973333063
  N   -1.73115180525376     -0.10438951495031     -0.42720131296704
  H   -1.72957534116127      0.45398968364289     -1.27383999741615
  H   -1.97275393317366     -1.06417176224612     -0.63340840037137
  C   2.01688879676254     -0.35055288181683      0.05742696872947
  N   3.03692567398332     -0.13962806706090      0.59855407214068
