13
Coordinates from ORCA-job run
  C   -0.30396531388649      0.16656516398450      0.27873611656489
  C   1.18396124065810     -0.01665816460723     -0.03761509096792
  Br  -0.66354492585949     -0.89635458558677      1.96164207353639
  H   1.43389062193663      0.68956022476793     -0.83639344307681
  H   1.76576178334810      0.24387617723916      0.84649346407095
  N   -0.52606295186359      1.54564326283793      0.64264367239006
  H   -1.33726456616936      1.63992493767109      1.23937848835841
  H   -0.68207840556937      2.07083004918084     -0.21224261970873
  N   -1.09529861094748     -0.25478079776422     -0.81857812488101
  H   -2.08269401695830     -0.14607369300260     -0.62296630866446
  H   -0.91226621949918     -1.21441693876775     -1.08917409459121
  C   1.50163610234972     -1.36936156199993     -0.48410980607670
  N   1.71692526246071     -2.45775407395296     -0.86681432695384
