13
Coordinates from ORCA-job run
  C   -0.33460179453701      0.22637577283398      0.13495322736630
  C   1.16089009194749      0.00172531057789     -0.08792584619613
  Br  -0.72737749488021     -0.82246107119259      1.95659043692070
  H   1.72372946623622      0.32841949623919      0.78832493001023
  H   1.44222848473675      0.62284021251238     -0.94394995069156
  N   -0.59529408001660      1.59602278101810      0.32766785902165
  H   -1.58656424325660      1.78361528012675      0.41497301816504
  H   -0.13077603249209      1.94121501876944      1.15724464576428
  N   -1.09845814143081     -0.31245084553136     -0.90626954718166
  H   -0.92896277905166     -1.30286675929066     -1.02623536021570
  H   -2.09058195918505     -0.15881885008108     -0.77980804029805
  C   1.47226108868284     -1.39274299087709     -0.37922901890648
  N   1.69550739324671     -2.51087335510496     -0.65633635375862
