13
Coordinates from ORCA-job run
  C   -0.41969461096445      0.12465138928195      0.24099822841842
  C   1.09677613610546      0.02579889236132     -0.01148949545880
  Br  -0.74600835600916     -0.99302477202678      1.91493060826377
  H   1.63868139211424      0.32357894242788      0.88795370294529
  H   1.33428146544369      0.73169147343799     -0.81482628468702
  N   -0.89469628471991      1.43522456017746      0.57465606899554
  H   -0.72981608292805      2.06012928008622     -0.20706571520133
  H   -0.45976538293094      1.79256512096847      1.41447548642349
  N   -1.13004271502913     -0.31454861456862     -0.88894892173369
  H   -2.12663000271546     -0.23073364238965     -0.73419708705814
  H   -0.89227087274198     -1.25783130075434     -1.16760513743517
  C   1.51565372543409     -1.31050537447952     -0.42218920474149
  N   1.81253158894160     -2.38599595452238     -0.78669224873087
