13
Coordinates from ORCA-job run
  C   -0.48897430141496     -0.01697419429317      0.12900450517248
  C   0.79966307170391     -0.54829319169499     -0.53111026850881
  Br  -0.82789234278140     -1.25837690753919      1.70107715961381
  H   0.69023676906264     -1.60025203835834     -0.80782808608735
  H   0.94984142205297      0.03358742188457     -1.44695874096882
  N   -0.42448094633740      1.29798352783126      0.68869239388227
  H   0.27794500788440      1.36447070694449      1.41405592141186
  H   -0.23121629899106      1.96508244676349     -0.05062429478359
  N   -1.52589263832840     -0.02495132445425     -0.82869917519619
  H   -2.37956832126782      0.32919420523187     -0.41481687692100
  H   -1.68728741968504     -0.94407814772860     -1.21896649455110
  C   1.96059196483786     -0.38597398569512      0.33494541319432
  N   2.88803403326430     -0.21141851889203      1.03222854374213
