13
Coordinates from ORCA-job run
  C   -0.34618680340830      0.11525951524829      0.41913434870158
  C   1.10938645963660      0.02398948993819     -0.07971136918581
  Br  -0.47108446688121     -0.99656945986983      2.04298322211455
  H   1.23069764632964      0.73458550881637     -0.90765483300003
  H   1.79298022848555      0.31808135258838      0.71882669001734
  N   -0.58224230673883      1.47805152825762      0.79830162188864
  H   -1.55319584184061      1.57867839163669      1.07265752030233
  H   -0.40138945414845      2.09403176170526      0.01199354790536
  N   -1.35035079032910     -0.39606823648264     -0.48379177622182
  H   -1.21613801620140     -1.38180754634203     -0.67953370765271
  H   -1.31851681034184      0.12295943112110     -1.35587102741099
  C   1.43757626578765     -1.30931115459975     -0.57080101104045
  N   1.66746388965030     -2.38188058201766     -0.98753322641799
