13
Coordinates from ORCA-job run
  C   -0.54352427808615     -0.15536367851342      0.32338438955769
  C   0.87976860108309     -0.74783519069779      0.24475970254396
  Br  -1.43669461008173     -1.15574319576848      1.78658030854462
  H   1.36843665609771     -0.66078696298497      1.21713542322789
  H   0.82426114198480     -1.80618804360216     -0.01970149552395
  N   -0.62274479945617      1.23406863118254      0.70157510436663
  H   -0.21144166113239      1.40858692558234      1.61073184993053
  H   -0.15912140223890      1.80479409718866      0.00140077456567
  N   -1.22638298861396     -0.42492873195832     -0.89869595458338
  H   -2.08893711118223      0.10506557900431     -0.92918760175262
  H   -0.65283653542444     -0.19077513229349     -1.70118295275466
  C   1.65549958686475     -0.01891391824970     -0.75831669451940
  N   2.21371740018562      0.60801962111049     -1.57948285360300
