13
Coordinates from ORCA-job run
  C   -0.41926779587703      0.03600846894087      0.16649932785341
  C   0.87174616598851     -0.77630495231285      0.10652904674080
  Br  -1.61639089230269     -1.19661298264167      1.49444390913216
  H   1.28101948548628     -0.89200488441397      1.11237760002133
  H   0.65775963998139     -1.78062723881504     -0.26520465021451
  N   -0.22255667388014      1.28838595951932      0.74946958320726
  H   0.16185436335009      1.21949155351404      1.68126374014006
  H   -1.05971212392028      1.85591492842337      0.76987282555558
  N   -1.04438796146625      0.11710968112749     -1.07836928608481
  H   -1.88482184814459      0.67991579325003     -1.06759708852560
  H   -1.25265030224577     -0.79441839081292     -1.46110480648839
  C   1.85657368779131     -0.12520026747703     -0.75993338102634
  N   2.66883425523918      0.36734233169836     -1.44824682031094
