13
Coordinates from ORCA-job run
  C   -0.33042747830538      0.09835626990480      0.23342166488661
  C   1.14141322875629     -0.00497449289335     -0.17772169738298
  Br  -0.54094738191251     -0.94635409973354      1.94057139076461
  H   1.25695122511804      0.57350091715553     -1.10072919968152
  H   1.78123928854882      0.45096455945694      0.58301026827931
  N   -0.65400747863797      1.47677053833178      0.39839649508423
  H   -1.62433638434849      1.58733599386206      0.66783069914317
  H   -0.07203448475609      1.92487845971277      1.09680694601427
  N   -1.15929846980420     -0.56752214797897     -0.73424814746948
  H   -2.06405362267956     -0.80650898876483     -0.35033281041976
  H   -1.28407950108474      0.05106167010617     -1.52932354793212
  C   1.57521845670842     -1.37726648114009     -0.41324837153403
  N   1.97436260239737     -2.46124219801925     -0.61543368975231
