13
Coordinates from ORCA-job run
  C   -0.50031004901604     -0.02127102230666      0.28141139006837
  C   0.88028117018839     -0.70532456528095      0.23392955085176
  Br  -1.39023808584130     -0.87966775443495      1.91329949632413
  H   0.77315497168158     -1.77731010933754      0.04561922094342
  H   1.37508208504354     -0.59278768541931      1.20056124879439
  N   -0.51099741573297      1.38468517513769      0.54405709116890
  H   -0.07390031803766      1.60796126363589      1.42782702683669
  H   -0.04548146703186      1.87082073243684     -0.21544290622836
  N   -1.19044181783930     -0.23781526257651     -0.91973680366971
  H   -1.28538511272536     -1.21379116485882     -1.16338568574055
  H   -2.09132260859704      0.22228570474676     -0.90795893539844
  C   1.70327371366868     -0.09217633656472     -0.80837221979151
  N   2.35528493423933      0.43439102482229     -1.62980847415909
