13
Coordinates from ORCA-job run
  C   -0.28392783916902      0.05209717987755      0.37519743759720
  C   1.14211049929479      0.00000286997610     -0.18025908607127
  Br  -0.35862442407565     -0.99363573804848      2.03209680269830
  H   1.82314061467302      0.40061081149118      0.57192145066625
  H   1.19428574598037      0.66398392870996     -1.05342470907301
  N   -0.53783328172569      1.42954494992858      0.76226578324892
  H   -0.63130027368676      1.99346166471254     -0.07795033177735
  H   -1.40421363774496      1.49435722630880      1.28415704859360
  N   -1.17506627176715     -0.59437183661487     -0.55619013679586
  H   -2.12472064725184     -0.60783867790324     -0.20419828704893
  H   -1.15722179827007     -0.10871091367315     -1.44758835929024
  C   1.56489532664312     -1.33696617410913     -0.58452227421496
  N   1.94947598709985     -2.39253529065584     -0.92150533853264
