13
Coordinates from ORCA-job run
  C   -0.45110414628955     -0.07245832424377      0.29015494874832
  C   0.76801478307947     -0.46895586660545     -0.56114397836750
  Br  -0.59370208856867     -1.48880374203683      1.71642978083923
  H   0.78708956293441      0.18649757816206     -1.44137461846428
  H   0.64225529921757     -1.49424438519067     -0.91357967824433
  N   -0.24813377836511      1.19223049421984      0.86752882099878
  H   -1.10794014936213      1.65441794483309      1.11969468108557
  H   0.42640444454516      1.78915867462360      0.41683931778811
  N   -1.71271342043725     -0.13948062557365     -0.40530969185333
  H   -1.69440290266482      0.48841833588428     -1.20244958826160
  H   -1.93683498921110     -1.07978228651063     -0.70603722664332
  C   2.04197795021550     -0.34623406398871      0.14189441833188
  N   3.07808943490652     -0.22076373357316      0.67835281404248
