13
Coordinates from ORCA-job run
  C   -0.42661297012503     -0.10054760113893      0.28908834566403
  C   0.88137047298764     -0.84911574088497      0.01140530337950
  Br  -1.48218324089812     -1.32717916176211      1.50758262735422
  H   1.34392308694091     -1.10173346147197      0.96607364507400
  H   0.68706071686442     -1.77598223306043     -0.53494201280196
  N   -0.15795739846675      1.07352408241576      1.07452577197572
  H   -1.00195968004521      1.42285936773525      1.51041591914559
  H   0.22000637167819      1.78882532897705      0.45989031071202
  N   -1.10295683099961      0.16677709165533     -0.92675312534247
  H   -1.29848056426580     -0.67045833570923     -1.46192469810765
  H   -1.96441097747898      0.67524091787113     -0.77173349689205
  C   1.78862324903474      0.00032081013254     -0.76016126992445
  N   2.51357776477360      0.69946893524056     -1.36246732023649
