13
Coordinates from ORCA-job run
  C   -0.41805420794023     -0.06836836870340      0.31019503486556
  C   0.99945242132525     -0.64961227980830      0.27785387439993
  Br  -1.29494863025477     -0.91892235147142      1.92609420744616
  H   1.56257247255720     -0.34286332615147      1.16330610291449
  H   0.92639814410937     -1.73762163015191      0.27520559278208
  N   -0.36381407712150      1.34418167157315      0.40534003549439
  H   0.15303013845160      1.66560086448940      1.21475776389787
  H   -1.28916918918604      1.75445863499027      0.41293756739513
  N   -1.16568167768866     -0.54591631396178     -0.82136169042456
  H   -0.87639512305107     -0.01875510027974     -1.64026851450313
  H   -2.16033204516801     -0.42163503490250     -0.68123347449406
  C   1.69425019700939     -0.20451218269064     -0.93006166849237
  N   2.23269157695746      0.14396541706838     -1.91276483128147
