13
Coordinates from ORCA-job run
  C   -0.42738210864601     -0.08806361656188      0.08721904376884
  C   0.88119639638778     -0.57700986988604     -0.54239483008831
  Br  -0.80013215963500     -1.31427264395213      1.65200362781046
  H   1.00184693788532     -0.04362788672333     -1.49116561906557
  H   0.79167805516834     -1.64203448504759     -0.75606563544507
  N   -0.31185164175769      1.27170732169133      0.46822760632817
  H   -1.16738898281696      1.60880682231683      0.89185632256052
  H   0.46221154170620      1.43805422068492      1.10118119782632
  N   -1.49988963941602     -0.32630520407950     -0.84927221854085
  H   -2.38680559891828     -0.42163145069313     -0.37240528358828
  H   -1.54656488137438      0.47103648169849     -1.47628418762827
  C   2.04342729088007     -0.31491361885301      0.30018808867837
  N   2.95965479053664     -0.06274607059496      0.98891188738367
