13
Coordinates from ORCA-job run
  C   -0.42285202444230      0.05980469505165      0.01075068536277
  C   0.85513221967955     -0.56672390097351     -0.54588872474064
  Br  -0.88395856230088     -1.17118922775637      1.69778899070910
  H   1.07094381900540     -0.04685764510063     -1.48456760430311
  H   0.69211966239401     -1.62537115014134     -0.75574221739943
  N   -0.21422856074202      1.38127614857692      0.42096350682380
  H   -1.05445851001382      1.81227291347911      0.78474038156278
  H   0.52044360331555      1.45068020132821      1.11354382144408
  N   -1.46299694153127     -0.04340119309121     -0.93178125608564
  H   -2.30505734886740      0.42400890539852     -0.61912792761722
  H   -1.68643330272944     -1.01134959162505     -1.12218289749878
  C   1.98794264703531     -0.41474254139755      0.35969598194048
  N   2.90540329919729     -0.24740761374877      1.07180725980180
