13
Coordinates from ORCA-job run
  C   -0.48999497929077     -0.03120421489923      0.12677649198994
  C   0.81547296382222     -0.51801443095936     -0.53393183474922
  Br  -0.80451196960336     -1.30522483973434      1.67743766533678
  H   0.73490193616035     -1.56740116082132     -0.82982727545340
  H   0.95744449245264      0.08390979478407     -1.43812982606108
  N   -0.46272681994122      1.27625109050049      0.70705749760576
  H   0.23447204865554      1.35007398305297      1.43673353684645
  H   -0.28392836079604      1.95946452271935     -0.02105840010397
  N   -1.52146785619765     -0.05093435496383     -0.83674863136600
  H   -1.65697481623978     -0.96789499110253     -1.24193346863276
  H   -2.38613009583157      0.27437356513506     -0.42201763109302
  C   1.96730241280954     -0.34284699280364      0.34198132326301
  N   2.89614104400010     -0.16155197090767      1.03566055241750
