13
Coordinates from ORCA-job run
  C   -0.30973453776497      0.12858157754719      0.44310821201228
  C   1.10089061299355     -0.01706845065481     -0.16114136496586
  Br  -0.35459411971896     -0.97409325055226      2.07734762898365
  H   1.18681486046972      0.68759189911894     -0.99847592827434
  H   1.85167646590930      0.25291918751616      0.58373126998817
  N   -0.46745774287422      1.50007555344602      0.83163307525669
  H   -1.41140033870719      1.63692130341571      1.17569600301327
  H   -0.32233182389545      2.10714176041450      0.03110328717355
  N   -1.39579785281073     -0.34768569483369     -0.38067820896813
  H   -1.40961137576122      0.16797655386419     -1.25525977309188
  H   -1.31220790966250     -1.33806834400094     -0.58114818013638
  C   1.34282602683213     -1.36221632151717     -0.66938661575437
  N   1.50192773499055     -2.44307577376383     -1.09752940523665
