13
Coordinates from ORCA-job run
  C   -0.51904175902815     -0.24712141562676      0.30571671092770
  C   0.90565802897473     -0.75749113122322      0.00077209973422
  Br  -1.30175518531520     -1.60352403412645      1.52413833470958
  H   0.85011493114874     -1.72036655735840     -0.51196381512612
  H   1.45468996502442     -0.89462972313265      0.93440492008766
  N   -0.59586162890772      1.00357343371993      1.02013199659708
  H   -0.13387731656860      0.95978123683939      1.92057572406274
  H   -0.18194165378276      1.74214180267318      0.45969735257532
  N   -1.27386925886341     -0.22850859631743     -0.90391214993759
  H   -2.14470659087194      0.26556594358556     -0.75125742017453
  H   -0.75659864991113      0.21682174235076     -1.65346737986520
  C   1.60274905685341      0.21861151180241     -0.83632396305604
  N   2.09644006124759      1.04514578681368     -1.50851241053482
