13
Coordinates from ORCA-job run
  C   -0.42253317760972      0.05814474688253      0.00962390524273
  C   0.86002051027255     -0.54204548771074     -0.56549786298955
  Br  -0.89722957336205     -1.25180805342562      1.63350875806234
  H   1.07956152558291      0.01784108403097     -1.48005286621277
  H   0.70085774159230     -1.59114929192725     -0.82121270843641
  N   -0.21786078334381      1.35832107831791      0.48373670412915
  H   -1.06138253599826      1.77251300797189      0.85909091349781
  H   0.51043783835085      1.39488436246083      1.18547898266046
  N   -1.45504452472631     -0.00068784987734     -0.94485635913846
  H   -1.67584846614207     -0.95852693350618     -1.18330233781090
  H   -2.30007843800853      0.45057841620399     -0.61682614635482
  C   1.98645964105448     -0.42581339502423      0.35317350525802
  N   2.89064024233766     -0.28225168439675      1.08713551209241
