13
Coordinates from ORCA-job run
  C   -0.48947721146043     -0.03196553833213      0.12201399662779
  C   0.81613269232088     -0.50601074797104     -0.54775978835222
  Br  -0.82109912974321     -1.35544915882942      1.62771885853570
  H   0.72905477673666     -1.54420112758271     -0.87885273155161
  H   0.96723761151565      0.12408011383087     -1.43102485345737
  N   -0.45685748897935      1.25494176703441      0.74549937051636
  H   0.23897193024501      1.30120080188673      1.47872747241765
  H   -0.27378431222393      1.96130239649852      0.04099843836559
  N   -1.51603478477794     -0.01308514292272     -0.84696717572390
  H   -1.65568153342315     -0.91552237078459     -1.28245053173837
  H   -2.38072677014796      0.30406394756764     -0.42593834589094
  C   1.96384513834422     -0.36701741247546      0.33976334333633
  N   2.87941908159355     -0.21333752792012      1.05727194691498
