13
Coordinates from ORCA-job run
  C   -0.39341192825715      0.15794410849754      0.26439741676696
  C   1.09060159310602      0.00132894160299     -0.11781976150668
  Br  -0.56934666349142     -0.77279698729180      2.07077847458626
  H   1.71931197870606      0.38088468530858      0.68961766627360
  H   1.25784755901157      0.61350636187191     -1.01076713871651
  N   -0.81973871065863      1.50555750312530      0.50167948577948
  H   -0.30303464689817      1.93898722975735      1.25478231214994
  H   -0.72460265095572      2.04266483945224     -0.35330578595004
  N   -1.21374817534226     -0.38143835841410     -0.74051367256109
  H   -2.18995768269407     -0.26148879584783     -0.50242129164206
  H   -1.01349154989700     -1.35289233518902     -0.94054751146474
  C   1.45399871287691     -1.37913974821438     -0.42102610234631
  N   1.70357216449386     -2.49311744465878     -0.69385409136882
