13
Coordinates from ORCA-job run
  C   -0.49019439991439     -0.01544539559973      0.12461401521419
  C   0.80115328000055     -0.54734324431649     -0.52913258551275
  Br  -0.84985265369086     -1.27053386554125      1.68129574259786
  H   0.96328002727251      0.04262773265914     -1.43785301231531
  H   0.68799467183188     -1.59586904254971     -0.81712914828368
  N   -0.42398440516574      1.29353936003654      0.69784261241501
  H   0.27336654358928      1.34980526734746      1.42889963954356
  H   -0.22267935340346      1.96697491696616     -0.03347269246340
  N   -1.51874607495504     -0.00852404468453     -0.84229561282833
  H   -1.68182338923397     -0.92319472844648     -1.24245376462166
  H   -2.37398362480337      0.34622250326002     -0.43213618278621
  C   1.95554998136969     -0.39999052081383      0.34850253822237
  N   2.87791939710292     -0.23726893831731      1.05531845081833
