16
Coordinates from ORCA-job run
  C   -0.49504724373829      0.38442046088540      0.23849519003192
  C   0.69264269672869     -0.58535427189884      0.21057665385382
  Br  0.09707493897133      2.03139620863507      1.17059073809104
  H   0.29647482089407     -1.53325529018351     -0.17985188164453
  H   1.01104578491589     -0.77642786334763      1.23995060483568
  C   -1.65056289165550     -0.19487393339729      1.03556830416494
  H   -2.46589337391146      0.52639422776210      1.08757154182894
  H   -1.33645634451606     -0.46145756511524      2.04544416078479
  H   -2.01308432806965     -1.10060987393461      0.53552319254884
  N   -0.99182504140140      0.80826439010598     -1.05269610117644
  H   -1.37214668677713      0.00428451921088     -1.54252472702831
  H   -0.25110213003372      1.20930855714810     -1.61469933931355
  C   1.88615883383322     -0.15394652454094     -0.63184986659013
  H   2.29717269947175      0.79326111811171     -0.27970084488695
  H   2.67665231608336     -0.90557826328110     -0.57584068301806
  H   1.61889594920490     -0.04582589616007     -1.68555694248200
