16
Coordinates from ORCA-job run
  C   -0.52169165884522      0.53727090379797     -0.03336514261903
  C   0.69080309567638     -0.12553174449193     -0.69454436455164
  Br  0.09152836166437      2.24532620447504      0.77150522654961
  H   1.08527833765556      0.57036392100594     -1.44294857838490
  H   0.29080581089168     -0.98674484864293     -1.24763536742130
  C   -1.13234147451749     -0.30382119555295      1.07221997116146
  H   -2.02315340985698      0.19330725834935      1.45651736255665
  H   -1.41946994674412     -1.28087915856373      0.66500340916897
  H   -0.43367450099446     -0.46375668970590      1.89198966834440
  N   -1.56490263453571      0.89688461072533     -0.97033714468258
  H   -2.01445660950960      0.04975373583504     -1.30392408489869
  H   -1.17002665799654      1.38381074410660     -1.76766305420484
  C   1.81121784719490     -0.58856582007973      0.22924593361852
  H   2.19606757207920      0.23978127093954      0.82559178733840
  H   1.47552878727867     -1.37584431955492      0.90695369803806
  H   2.63848708055938     -0.99335487264269     -0.35860932001310
