14
Coordinates from ORCA-job run
  C   -0.62359312094730      0.26059130518858      0.04440840041644
  C   0.84454338808977      0.70522135617043      0.00364184613378
  Cl  -1.24838579114162      0.47076266013115      1.71290076484685
  H   0.94358137883441      1.72361961974750      0.37420873752006
  H   1.22445835943751      0.61372470706491     -1.01509390622039
  C   -0.86516547631310     -1.17670372215405     -0.40307094271357
  H   -0.38100245201336     -1.87329178816625      0.27864948000213
  H   -0.46033300823039     -1.32648869417077     -1.40634267654267
  H   -1.93736412598866     -1.37367386982653     -0.41508876734968
  C   -1.34895125408276      1.18463995023754     -0.83142625214740
  N   -1.90372768732177      1.91299984236804     -1.56792061295843
  N   1.70459954193021     -0.15702036862718      0.86330917996664
  O   1.98349744686645     -1.27035441294903      0.42009885081686
  O   2.06784280088060      0.30597341498568      1.94072589822937
