14
Coordinates from ORCA-job run
  C   -0.52547454339209      0.11300450409476     -0.07722534408421
  C   0.90074664625853     -0.15735748416124      0.38962342695592
  Cl  -1.28439645069263      1.26952641881100      1.06544913202285
  H   0.88631559674823     -0.63662452404679      1.36678323421122
  H   1.42278114853991     -0.77824513579173     -0.34256764942492
  C   -1.31716849912822     -1.19351700408337     -0.04978554607677
  H   -0.86763375749351     -1.91521969637354     -0.73645463641879
  H   -2.34633146480570     -1.00956177656522     -0.35788991481101
  H   -1.31927955214594     -1.60360139914709      0.96150188856916
  C   -0.58187557209781      0.68034787775556     -1.42526914997123
  N   -0.69666481782021      1.04585934994389     -2.53585075877310
  N   1.70585699837617      1.09073691522990      0.54441721831277
  O   2.25406508495254      1.26454051216040      1.62874583916889
  O   1.76805918270073      1.83111144217347     -0.43147773968078
