13
Coordinates from ORCA-job run
  C   -0.31563841429894     -0.12994926821376     -0.35462239055375
  C   1.08607147663955      0.06449973986654      0.22589923356758
  H   -0.27025389328141     -0.67677451568207     -1.29751595782031
  H   1.01649609294685      0.65930603972515      1.14341740130094
  H   1.70890383401454      0.61380345370315     -0.48409113395155
  N   -0.76026445097467      1.28702223080376     -0.77222334489573
  O   -0.27077981816027      1.72700342261033     -1.80774291725156
  O   -1.53188573494974      1.87829737550673     -0.02261643275591
  N   -1.18230548734523     -0.76466520637397      0.55821618723064
  H   -2.07630332734741     -0.98741569818057      0.14280304731829
  H   -1.33332682326415     -0.19977878227913      1.38386800139682
  C   1.70675787852714     -1.22147117284208      0.52815653545245
  N   2.22252866749373     -2.24987761864406      0.75645177096209
