13
Coordinates from ORCA-job run
  C   -0.46617466103545     -0.22019736520216     -0.45327358137832
  C   0.99330144514965     -0.65453838226855     -0.32613249921022
  H   -0.85409682732689     -0.53801276403454     -1.42328560189364
  H   1.03269612766347     -1.74407815512468     -0.39254472377322
  H   1.58164814982405     -0.22877782489121     -1.14056439015463
  N   -0.45000973330295      1.32146113570483     -0.56699724236183
  O   -0.97777834594063      1.96612826506036      0.33275370221562
  O   0.10464781294217      1.77791315283929     -1.56209574669703
  N   -1.26470272325850     -0.71790808695732      0.59789304698685
  H   -2.23898097983954     -0.47956424033905      0.47186282500731
  H   -0.96024633319965     -0.36359856624287      1.49664259523861
  C   1.54762604082164     -0.23214795340583      0.95911471014039
  N   1.95207002750263      0.11232078486173      2.00562690588010
