13
Coordinates from ORCA-job run
  C   -0.40343928020731     -0.11903121377078     -0.38649598181832
  C   0.72011750004679     -0.58335693257752      0.54930013415624
  H   -0.24642016039191     -0.48024927992192     -1.40242689666944
  H   0.65102300859254     -1.66880795654133      0.66231715958635
  H   0.56900436090305     -0.12696475843523      1.53152659362403
  N   -0.30595029465398      1.38493812437451     -0.47927758257823
  O   -0.05295115641803      1.87963362084773     -1.57176129918236
  O   -0.49702346550093      1.98913353078912      0.57294171608873
  N   -1.73175746632662     -0.42855562257777      0.04487196758912
  H   -2.00710775033092     -1.35981509489394     -0.23059202057493
  H   -1.84586751231428     -0.30445605302308      1.04174936289763
  C   2.04685224879280     -0.23251082367925      0.04703277960480
  N   3.10351996780878      0.05004245940947     -0.37818593272362
