13
Coordinates from ORCA-job run
  C   -0.30411639150910     -0.02798063753838     -0.38655432907995
  C   1.07529627048405     -0.05623722149748      0.27385662630726
  H   -0.24102994259469     -0.35427106085288     -1.42564055453720
  H   0.99236898378382      0.32548305065592      1.29752972824894
  H   1.76174533753663      0.59459712040355     -0.27286056518457
  N   -0.65022559738606      1.47176146703743     -0.49242101291799
  O   -1.42623573797958      1.93004108927235      0.34103403374678
  O   -0.08495288684769      2.09837358386165     -1.38307923969922
  N   -1.24810858492031     -0.79233535218663      0.32867488180774
  H   -2.13136472448676     -0.86009105950090     -0.15786618300530
  H   -1.40840235221152     -0.41677047925056      1.25425799119021
  C   1.60931951725659     -1.41422241157716      0.30507704142852
  N   2.05670610887464     -2.49834808882691      0.31799158169479
