17

C	-0.272814	-0.079733	-1.506972
C	0.0	0.0	0.0
Cl	-0.016571	1.612305	-2.246656
H	1.092252	0.0	0.0
N	0.660484	-1.024929	-1.986597
H	1.593101	-0.808837	-1.593135
H	0.682764	-1.054523	-2.997038
C	-1.640659	-0.447916	-1.893476
N	-2.709098	-0.801051	-2.231706
C	-0.503615	-1.217291	0.751262
H	-0.060788	-2.10808	0.306856
H	-1.59441	-1.292145	0.723421
H	-0.166298	-1.147623	1.788752
N	-0.590605	1.200299	0.629799
O	0.076281	1.786056	1.478287
O	-1.74717	1.494888	0.312842
H	2.771197	0.0	0.0
