17

C	-0.293604	-0.056894	-1.499174
C	0.0	0.0	0.0
Cl	0.109338	1.582034	-2.268221
H	1.094813	0.0	0.0
N	0.554727	-1.085753	-1.989934
H	0.567222	-1.094361	-3.002198
H	1.502422	-0.913573	-1.620186
C	-1.694365	-0.318778	-1.857067
N	-2.800565	-0.601346	-2.135841
C	-0.473346	-1.236146	0.744672
H	-0.047819	-2.118369	0.268581
H	-1.565578	-1.315479	0.753282
H	-0.100581	-1.178894	1.769211
N	-0.567968	1.177845	0.679304
O	-1.554227	1.734331	0.186992
O	-0.048456	1.49277	1.74966
H	2.71294	0.0	0.0
