17

C	-0.499287	0.112632	-1.447612
C	0.0	0.0	0.0
Cl	-0.087898	-1.437214	-2.294016
H	1.090261	0.0	0.0
N	-1.925355	0.321231	-1.639126
H	-2.413788	-0.397877	-1.115403
H	-2.129912	1.220379	-1.211436
C	0.215703	1.159539	-2.198933
N	0.722703	1.963163	-2.889208
C	-0.355375	-1.266538	0.74938
H	-1.436057	-1.437752	0.816141
H	0.045517	-1.170603	1.756662
H	0.123287	-2.122034	0.274236
N	-0.389376	1.163989	0.733573
O	-0.266195	1.148448	1.975692
O	-0.680875	2.209067	0.095753
H	2.408742	0.0	0.0
