17

C	-0.514559	0.020711	-1.444688
C	0.0	0.0	0.0
Cl	-0.012236	-1.534591	-2.228872
H	1.090341	0.0	0.0
N	-1.953275	0.13058	-1.62857
H	-2.388939	-0.601629	-1.076228
H	-2.213686	1.029072	-1.230891
C	0.127699	1.076089	-2.246805
N	0.593916	1.870414	-2.974906
C	-0.33806	-1.226345	0.824983
H	-1.414664	-1.344086	0.993537
H	0.153977	-1.112866	1.789669
H	0.062159	-2.118175	0.345602
N	-0.412659	1.191002	0.677593
O	-0.781033	2.182633	-0.002627
O	-0.259857	1.243018	1.914486
H	2.419194	0.0	0.0
