17

C	-0.396193	-0.045596	-1.451769
C	0.0	0.0	0.0
Cl	-2.389786	0.246934	-1.542069
H	1.09506	0.0	0.0
N	0.275806	0.831657	-2.275708
H	-0.073267	0.868213	-3.2211
H	0.408343	1.732333	-1.836047
C	-0.335532	-1.403614	-1.996019
N	-0.25881	-2.477261	-2.468536
C	-0.463337	-1.17347	0.823966
H	-0.043936	-2.088926	0.401745
H	-0.072926	-1.064353	1.834704
H	-1.551932	-1.247785	0.866644
N	-0.35065	1.267293	0.603195
O	-0.774898	1.282843	1.769318
O	-0.074548	2.307747	-0.02717
H	2.434701	0.0	0.0
