15
Coordinates from ORCA-job run
  C   0.74256145127255      0.16247277046812      0.47610081774919
  C   -0.41223750981568      0.34137869944634     -0.53694992769721
  Cl  1.44041483023339      1.80959285468480      0.82369712646223
  H   0.03296691246666      0.86539620412534     -1.39892696431226
  N   1.71831943571197     -0.74140413097041     -0.05060861425288
  H   2.41880538549265     -0.97007901593243      0.64432124858648
  H   2.18341532822467     -0.31204387096579     -0.84352111855853
  C   0.21520558908915     -0.35634310000330      1.73993109801897
  N   -0.20462307623627     -0.76838527321686      2.75597661236488
  N   -1.42888694449698      1.19360801294367      0.02042557790998
  H   -1.92078397957179      1.70563032112063     -0.69755136685121
  H   -2.08850673013666      0.62177407085525      0.53551750381451
  N   -0.92154688544173     -0.98902491693816     -0.82075774745835
  H   -1.60349298939057     -0.94393268151548     -1.56766073405780
  H   -0.17161081740134     -1.61763994410171     -1.07999351171802
