15
Coordinates from ORCA-job run
  C   0.77540182053017      0.10162151271371      0.53896044393136
  C   -0.50662677733947     -0.06420579490351     -0.32211180057287
  Cl  1.55582092077967      1.66844464401679      0.10407207409604
  H   -0.90057575406012     -1.04701809462145     -0.01315811150311
  N   1.72285318609898     -0.95584386094509      0.33907529293093
  H   1.71184465654321     -1.18380529979383     -0.65092611458824
  H   1.47310115702552     -1.77088201407172      0.88603194517040
  C   0.39306733241282      0.16838849634848      1.95275704219680
  N   0.01397624491352      0.18456306292573      3.06453641958902
  N   -0.09685136302788     -0.19387683955495     -1.70103270409072
  H   0.02546259423834      0.73396666055078     -2.09157531327177
  H   -0.79815104009109     -0.68412874631805     -2.24029237842138
  N   -1.42598166502575      1.03646986980035     -0.11531800923703
  H   -2.28704995187422      0.85495820804329     -0.61684447003168
  H   -1.65629136112370      1.15234819580946      0.86582568380226
