11
Coordinates from ORCA-job run
  C   -0.06886764606603     -0.34484678448527      0.26996177580714
  C   0.27235677643532      1.14122189042735      0.19709424956448
  Cl  -0.58788372704344     -0.70241588526559      1.95769185161236
  H   -0.61851620403728      1.72433346055510      0.43917935606766
  H   0.59590669461741      1.38560784116002     -0.81799973730515
  H   1.06638370023725      1.40206572854820      0.89788597318690
  N   -1.12466086163027     -0.79249064473771     -0.61015484248587
  H   -1.95098353266501     -0.22273828500378     -0.46694260864819
  H   -0.82682819217594     -0.70862623077142     -1.57592379675982
  C   1.13137652116570     -1.14514268710783     -0.01146839614070
  N   2.10871647116230     -1.73796840331907     -0.27932382489881
