11
Coordinates from ORCA-job run
  C   -0.07296534384801     -0.35567709996238      0.25486965668856
  C   0.24811009485826      1.13658209244943      0.24890786244487
  Cl  -0.64686470469166     -0.78305635940634      1.90791757189920
  H   -0.65984754826311      1.69784622029513      0.47893536610107
  H   0.60476069246508      1.42292448996459     -0.74387943180960
  H   1.01183997401310      1.38249127733373      0.98774159031859
  N   -1.08961933872070     -0.78457160980857     -0.67932497810607
  H   -1.92895286456827     -0.23184071386489     -0.54528311326154
  H   -0.75840500413652     -0.65943725710187     -1.62964210670526
  C   1.14836439098983     -1.12859908963102     -0.01264358981666
  N   2.14357965190200     -1.69666195026779     -0.26759882775317
