16

C	-0.433362	-0.022535	-1.460582
C	0.0	0.0	0.0
Cl	-0.175209	1.641276	-2.156621
H	1.101701	0.0	0.0
H	-0.318033	-0.969863	0.410736
N	0.407607	-0.918322	-2.233052
H	0.210729	-1.859663	-1.905879
H	1.375157	-0.724313	-1.96014
C	-1.900089	-0.351888	-1.650044
H	-2.086972	-1.370632	-1.290959
H	-2.170633	-0.292628	-2.705797
H	-2.504849	0.339255	-1.062621
N	-0.64121	1.058313	0.791592
H	-0.37363	0.896333	1.757695
H	-0.181115	1.925822	0.532793
H	3.074713	0.0	0.0
