16

C	-0.28635	-0.070768	-1.511595
C	0.0	0.0	0.0
Cl	-0.149755	1.730074	-2.12944
H	1.095615	0.0	0.0
H	-0.414711	0.908862	0.436866
N	0.694296	-0.900195	-2.087277
H	1.623984	-0.679772	-1.706677
H	0.694978	-0.868225	-3.098002
C	-1.688793	-0.475216	-1.926149
H	-1.865377	-1.512058	-1.629393
H	-1.805651	-0.403634	-3.010162
H	-2.430918	0.176074	-1.460317
N	-0.422488	-1.175226	0.756334
H	-1.361311	-1.460749	0.510924
H	0.206871	-1.934083	0.527428
H	3.010621	0.0	0.0
