16

C	-0.452112	0.066083	-1.464617
C	0.0	0.0	0.0
Cl	-0.113719	-1.573194	-2.16954
H	1.093397	0.0	0.0
H	-0.394118	-0.912333	0.461169
N	-1.87388	0.301466	-1.688389
H	-2.07688	1.276615	-1.497103
H	-2.411833	-0.269468	-1.042194
C	0.364261	1.082305	-2.237682
H	1.425932	0.867936	-2.090326
H	0.164562	2.083759	-1.841113
H	0.09728	1.060044	-3.296248
N	-0.384534	1.173368	0.789077
H	-1.243252	1.5983	0.462096
H	0.363655	1.852916	0.734851
H	3.033924	0.0	0.0
