17

C	-0.497222	-0.021787	-1.457672
C	0.0	0.0	0.0
F	-0.063875	-1.263064	-1.947103
H	1.099967	0.0	0.0
N	-1.928085	-0.012426	-1.585052
H	-2.268008	0.939998	-1.544833
H	-2.31448	-0.527261	-0.79924
C	0.162306	1.052824	-2.287606
H	-0.128412	2.047585	-1.941109
H	-0.141975	0.929397	-3.328894
H	1.245381	0.953083	-2.197447
N	-0.56923	-1.168869	0.695485
H	-0.121366	-1.973815	0.268011
H	-0.238477	-1.143713	1.654478
C	-0.491172	1.222456	0.636959
N	-0.910172	2.201852	1.132015
Cl	3.393237	0.0	0.0
