17

C	-0.462133	-0.053153	-1.458438
C	0.0	0.0	0.0
F	0.013578	-1.313855	-1.930798
H	1.093557	0.0	0.0
N	-1.880056	-0.013295	-1.525894
H	-2.246239	-0.688815	-0.863522
H	-2.189034	-0.24899	-2.460624
C	0.207112	0.997156	-2.30894
H	-0.112783	1.991698	-1.99574
H	1.289414	0.90695	-2.199541
H	-0.067347	0.84856	-3.357212
N	-0.556854	-1.170702	0.707319
H	-0.301255	-1.086374	1.68548
H	-0.033662	-1.964759	0.351213
C	-0.484484	1.227136	0.632405
N	-0.895777	2.196019	1.152729
Cl	3.393468	0.0	0.0
