17

C	-0.389923	-0.063519	-1.487637
C	0.0	0.0	0.0
F	-0.204927	1.259055	-1.990769
H	1.09575	0.0	0.0
N	0.48438	-0.976682	-2.11959
H	1.451715	-0.772679	-1.873572
H	0.369657	-0.939204	-3.124739
C	-1.841417	-0.402475	-1.731291
H	-2.036766	-0.431661	-2.807336
H	-2.48311	0.36304	-1.289064
H	-2.059631	-1.374862	-1.292417
N	-0.438386	-1.203426	0.715941
H	0.355036	-1.567803	1.226481
H	-1.170145	-0.981171	1.379
C	-0.515596	1.220713	0.62205
N	-1.009337	2.134057	1.172465
Cl	3.350296	0.0	0.0
