17

C	-0.493687	-0.034085	-1.459737
C	0.0	0.0	0.0
F	-0.085711	-1.29126	-1.929215
H	1.09992	0.0	0.0
N	-1.923856	0.003871	-1.593798
H	-2.322752	-0.510284	-0.813224
H	-2.243196	0.96321	-1.539018
C	0.192632	1.013606	-2.301619
H	-0.07553	2.019672	-1.969674
H	-0.111052	0.883665	-3.342306
H	1.272737	0.89017	-2.20525
N	-0.578175	-1.155689	0.708308
H	-0.135504	-1.969928	0.293776
H	-0.252444	-1.121008	1.669276
C	-0.487883	1.233629	0.618631
N	-0.913031	2.219729	1.094704
Cl	3.388614	0.0	0.0
