17

C	-0.392445	0.129859	-1.485353
C	0.0	0.0	0.0
F	-0.07689	1.433564	-1.859946
H	1.093901	0.0	0.0
N	0.401162	-0.74561	-2.30622
H	1.379072	-0.572655	-2.070942
H	0.201596	-1.691908	-1.996917
C	-1.869919	-0.07486	-1.73744
H	-2.169476	-1.082658	-1.443335
H	-2.449309	0.657191	-1.171738
H	-2.059642	0.059685	-2.802041
N	-0.402152	-1.323925	0.491886
H	0.311996	-1.653144	1.129165
H	-1.279591	-1.272146	0.996794
C	-0.542255	1.097419	0.80429
N	-1.090072	1.92647	1.432938
Cl	3.335718	0.0	0.0
