17

C	0.0	0.0	0.0
C	-0.495624	0.298568	-1.456707
Cl	1.804536	0.0	0.0
H	0.379591	0.641404	-2.022238
H	-0.248167	0.885038	0.589361
C	-0.592719	-1.199839	0.69555
H	-0.248149	-1.249848	1.732829
H	-1.680819	-1.022641	0.655735
H	-0.326713	-2.133012	0.194678
N	-1.512109	1.339462	-1.514598
H	-2.304514	0.970393	-0.93561
H	-1.148899	2.171786	-1.059128
C	-1.079298	-0.935605	-2.133876
H	-2.013353	-1.166381	-1.617246
H	-0.398929	-1.792777	-2.114972
H	-1.304903	-0.688057	-3.174098
F	-3.178056	0.0	0.0
