17

C	0.0	0.0	0.0
C	-0.554444	0.180625	-1.415645
Cl	1.801154	0.0	0.0
H	-1.64058	0.209171	-1.194716
H	-0.295605	0.877409	0.577326
C	-0.543004	-1.233568	0.681909
H	-0.208513	-1.288037	1.721377
H	-0.217658	-2.142623	0.167882
H	-1.637831	-1.086209	0.613271
N	-0.28293	-0.935666	-2.324177
H	0.686791	-1.223084	-2.22401
H	-0.861465	-1.718208	-2.042364
C	-0.105366	1.480872	-2.061559
H	-0.323596	2.333042	-1.410464
H	-0.643689	1.613447	-3.002902
H	0.968411	1.479735	-2.279039
F	-2.975173	0.0	0.0
