17

C	0.0	0.0	0.0
C	-0.283589	0.055369	-1.529247
Cl	1.807406	0.0	0.0
H	0.434417	-0.653276	-1.976937
H	-0.310207	0.951501	0.43091
C	-0.646179	-1.155309	0.713104
H	-0.350758	-1.185273	1.766105
H	-0.38691	-2.110628	0.247168
H	-1.733228	-0.954683	0.625223
N	-0.003254	1.431244	-1.976332
H	0.997446	1.593016	-1.949323
H	-0.295854	1.511672	-2.9434
C	-1.670465	-0.353398	-1.989261
H	-1.749699	-0.127503	-3.062796
H	-2.480752	0.090884	-1.377339
H	-1.790365	-1.434076	-1.87798
F	-3.396591	0.0	0.0
