17

C	0.0	0.0	0.0
C	-0.513312	0.114817	-1.460232
Cl	1.799964	0.0	0.0
H	0.349972	0.340876	-2.096489
H	-0.255231	0.953771	0.462839
C	-0.573184	-1.116379	0.840603
H	-1.662257	-0.958289	0.800337
H	-0.304551	-2.101678	0.451364
H	-0.212009	-1.036687	1.869949
N	-1.418002	1.26815	-1.500088
H	-1.767325	1.34251	-2.453117
H	-2.230445	0.957349	-0.914797
C	-1.181287	-1.168368	-1.963128
H	-0.542044	-2.05497	-1.876127
H	-1.433879	-1.042697	-3.023405
H	-2.107008	-1.284627	-1.393059
F	-3.17807	0.0	0.0
