17

C	0.0	0.0	0.0
C	-0.497444	0.044316	-1.485738
Cl	1.801309	0.0	0.0
H	0.378364	0.285736	-2.101338
H	-0.248426	0.973591	0.427582
C	-0.596543	-1.059238	0.89243
H	-0.335709	-2.066376	0.55984
H	-1.684638	-0.888873	0.823065
H	-0.25097	-0.931702	1.922686
N	-1.51279	1.061668	-1.719848
H	-1.145564	1.957655	-1.410699
H	-2.305763	0.798192	-1.085976
C	-1.074906	-1.288424	-1.942611
H	-2.009053	-1.435526	-1.395789
H	-1.300207	-1.222181	-3.010211
H	-0.387783	-2.124005	-1.777116
F	-3.180261	0.0	0.0
