12
Coordinates from ORCA-job run
  C   -0.48206640457447      0.35663642629469      0.49267427789614
  C   0.39798096656900      0.11151226567029     -0.72934287997544
  F   0.23899228650071      1.06888458892644      1.42162551155086
  H   -0.12267920096183     -0.48674909395977     -1.47980219699167
  H   0.70109200535483      1.06557486833010     -1.15970947904783
  C   -0.99743972738306     -0.88238540217231      1.09888239473804
  N   -1.49010351833832     -1.84661813776754      1.55335545890419
  C   -1.62951359617541      1.17377280012901      0.05273010022616
  N   -2.52438543031171      1.82887699243575     -0.33432026849589
  N   1.66106652564023     -0.61558458197967     -0.37801732533151
  O   1.66783488557296     -1.29975439424931      0.63859671336321
  O   2.57922120810706     -0.47416633165768     -1.17567230683626
