12
Coordinates from ORCA-job run
  C   -0.54999208928305      0.30000865006066      0.45742764270451
  C   0.51980673956524      0.20286815254078     -0.62618139396252
  F   0.01930881475499      0.82107639727616      1.59532830838894
  H   0.91484360554436      1.19544250423523     -0.84060288485581
  H   0.12063947375463     -0.24370262534309     -1.53906026084696
  C   -1.19178154656373     -0.98994866580045      0.76127235339697
  N   -1.77872245006000     -1.98661217248976      0.96425051955647
  C   -1.58527793352384      1.23349962518858     -0.02698350854348
  N   -2.38686525952715      1.98365759477801     -0.44460101528610
  N   1.68618410953958     -0.63328367916798     -0.19317584636922
  O   1.50233896840843     -1.46580474734878      0.68709111896364
  O   2.73051756739053     -0.41720103392938     -0.79476503314643
