12
Coordinates from ORCA-job run
  C   -0.76398829553889      0.11252130845796     -0.07515259830614
  C   0.73557434248266      0.39391416516304     -0.08284102364583
  F   -1.16117600964631     -0.20364655622518     -1.35289428059035
  H   0.94730849023990      1.23208957979116     -0.74612100407724
  H   1.10346788462883      0.61251138891474      0.92166332189981
  C   -1.44394844701184      1.35448701164033      0.34089780860317
  N   -1.94986013677869      2.36156005535327      0.67186058811570
  C   -1.15128866636297     -0.96338145082593      0.85262405021933
  N   -1.49890145180039     -1.75823545353783      1.64406153459828
  N   1.52478334784068     -0.76914193428127     -0.60399971347249
  O   1.02056146847767     -1.88396761434919     -0.53561284862875
  O   2.63646747346935     -0.48971050010111     -1.03448583471549
