12
Coordinates from ORCA-job run
  C   -0.58495871719313      0.17779924824575      0.47788981211073
  C   0.57290835066250      0.35280633978791     -0.50010306296002
  F   -0.11112485174141      0.34172026634956      1.75820242206515
  H   0.99348952663532      1.35240174436789     -0.39371737937386
  H   0.24988581486039      0.19335431257920     -1.53081613332222
  C   -1.26144524668178     -1.12426243204965      0.35491418060712
  N   -1.87133175692343     -2.11919307801076      0.22385016960966
  C   -1.56657748771867      1.24272494709223      0.19457847539817
  N   -2.32085553540756      2.10737383108097     -0.05685775086049
  N   1.69040437565894     -0.60900523405796     -0.22935490429577
  O   1.42555498155949     -1.64638026946950      0.36673466716489
  O   2.78305054628933     -0.26933967591564     -0.66532049614335
