15

C	-0.185444	0.173937	-1.529331
C	0.0	0.0	0.0
Cl	-1.778588	1.032576	-1.908946
H	1.094648	0.0	0.0
N	0.922832	0.893335	-2.034674
H	1.087423	0.695191	-3.011708
H	1.752325	0.695435	-1.439646
C	-0.354838	-1.147788	-2.158807
N	-0.425314	-2.171466	-2.733651
C	-0.628556	-1.179953	0.543072
N	-1.076075	-2.172388	0.986787
N	-0.429494	1.219373	0.739265
O	-1.26371	1.092074	1.637261
O	0.105455	2.271034	0.410598
F	2.532279	0.0	0.0
