15

C	-0.32804	0.113494	-1.49413
C	0.0	0.0	0.0
F	0.067025	-1.149597	-2.046105
H	1.094154	0.0	0.0
N	-1.72031	0.294238	-1.751493
H	-2.210049	-0.529096	-1.419586
H	-1.870137	0.360002	-2.752515
N	0.463464	1.155012	-2.023297
H	0.423038	1.141561	-3.035398
H	1.428017	0.99084	-1.718676
C	-0.520684	-1.227395	0.575148
N	-0.912862	-2.237349	1.032648
C	-0.464612	1.160086	0.743076
N	-0.790374	2.085249	1.390921
H	2.590612	0.0	0.0
