15

C	-0.152289	0.005059	-1.523697
C	0.0	0.0	0.0
F	-1.474799	0.00805	-1.950706
H	1.098231	0.0	0.0
N	0.433422	1.245247	-1.973066
H	1.390465	1.260895	-1.608936
H	0.481397	1.238738	-2.986284
N	0.431023	-1.228731	-1.983626
H	1.38574	-1.246907	-1.616272
H	0.482452	-1.204596	-2.99682
C	-0.516094	-1.201877	0.62845
N	-0.915822	-2.155502	1.187451
C	-0.516891	1.196171	0.638038
N	-0.920637	2.143498	1.204548
H	2.58563	0.0	0.0
