15

C	-0.295204	-0.082691	-1.505722
C	0.0	0.0	0.0
F	0.058193	1.214619	-2.009937
H	1.094723	0.0	0.0
N	0.553713	-1.071096	-2.048105
H	1.494528	-0.909215	-1.668983
H	0.58144	-0.988949	-3.057687
N	-1.672117	-0.316111	-1.799383
H	-1.790494	-0.425433	-2.800646
H	-2.200804	0.497764	-1.506241
C	-0.464151	-1.183823	0.704372
N	-0.794039	-2.128177	1.321313
C	-0.537098	1.208088	0.597254
N	-0.959017	2.194163	1.079487
H	2.593283	0.0	0.0
