15

C	-0.27201	0.058906	-1.514168
C	0.0	0.0	0.0
F	0.049967	-1.259017	-1.982956
H	1.094492	0.0	0.0
N	-1.635615	0.32714	-1.840174
H	-2.188901	-0.489336	-1.605195
H	-1.718367	0.495234	-2.837121
N	0.611709	1.012099	-2.062422
H	1.53964	0.847965	-1.649889
H	0.668256	0.890914	-3.067023
C	-0.547642	-1.193127	0.615798
N	-0.9756	-2.166453	1.118231
C	-0.463861	1.201048	0.674337
N	-0.793135	2.162719	1.264369
H	2.59639	0.0	0.0
