15

C	-0.281258	-0.054119	-1.515857
C	0.0	0.0	0.0
F	-0.067923	1.245064	-2.00746
H	1.094553	0.0	0.0
N	0.650368	-0.978588	-2.050703
H	0.674748	-0.904279	-3.061114
H	1.580472	-0.783462	-1.652288
N	-1.664469	-0.327144	-1.830228
H	-1.82183	-0.090692	-2.804319
H	-1.814945	-1.322273	-1.714742
C	-0.475676	-1.211878	0.642714
N	-0.844826	-2.203699	1.154999
C	-0.543774	1.185861	0.634005
N	-0.938872	2.14712	1.182107
H	2.611007	0.0	0.0
