15

C	-0.294347	-0.206677	-1.491849
C	0.0	0.0	0.0
F	0.072652	1.039729	-2.103865
H	1.094116	0.0	0.0
N	0.545394	-1.243565	-1.942452
H	0.550473	-1.284744	-2.95381
H	1.493186	-1.044996	-1.597115
N	-1.67506	-0.446183	-1.76667
H	-1.801346	-0.566663	-2.767025
H	-2.194072	0.380354	-1.486394
C	-0.459369	-1.119282	0.804721
N	-0.776818	-1.998775	1.51582
C	-0.536346	1.252276	0.495505
N	-0.953374	2.273441	0.903068
H	2.592182	0.0	0.0
