15

C	-0.282235	0.096711	-1.509331
C	0.0	0.0	0.0
F	0.054153	-1.202009	-2.017753
H	1.094148	0.0	0.0
N	-1.652087	0.354346	-1.815408
H	-1.751104	0.51626	-2.812934
H	-2.194908	-0.46667	-1.568945
N	0.585819	1.075396	-2.03912
H	1.517555	0.908974	-1.63838
H	0.636192	0.983563	-3.047009
C	-0.541343	-1.210834	0.586289
N	-0.952733	-2.206339	1.058114
C	-0.463278	1.180914	0.709757
N	-0.790144	2.123344	1.331598
H	2.591791	0.0	0.0
