15
Coordinates from ORCA-job run
  C   -0.78096360795691      0.08994505773389     -0.21110656726915
  C   0.47894043674695     -0.51916748077715     -0.77215708143962
  F   -1.84953884711548     -0.29625541187825     -1.02752186929129
  H   0.58023464721990     -0.11343800667995     -1.78489955477502
  H   0.30586403078489     -1.59053643286813     -0.87575221165451
  N   -1.17584996060231     -0.53546283973904      1.13111134476411
  O   -1.96341826806089      0.10748522159755      1.81758636975899
  O   -0.74097066288231     -1.65257983029781      1.38773005570707
  N   -0.70547777450040      1.47115418034129     -0.01151402084629
  H   -1.56556644259584      1.84000559404545      0.37179188037117
  H   -0.44903965828119      1.94899372597502     -0.86409985394935
  C   1.72721713664293     -0.23637714545317      0.05437721699593
  H   1.88966605471579      0.83477121149258      0.17365950540358
  H   2.60316591639686     -0.66630371500348     -0.43541906871238
  H   1.64673699948800     -0.68423412848881      1.04521385493674
