15
Coordinates from ORCA-job run
  C   -0.73795380952247      0.06523591796509     -0.31210332125625
  C   0.74180082463523      0.40836526009002     -0.31539581259176
  F   -0.97304377271608     -0.88277301621798     -1.25518343721219
  H   0.95630917457977      0.80417445603654     -1.31398750369901
  H   0.89626538529707      1.21770091626922      0.40235677639032
  N   -1.05662261904154     -0.55385911543493      1.04619974426008
  O   -1.26549354238413     -1.75520828538052      1.10569263090266
  O   -1.02667206968389      0.23677796835744      1.98657262889459
  N   -1.68446618289260      1.11487959845358     -0.48906246194147
  H   -1.50867079763486      1.59045532972813     -1.36527310601454
  H   -1.61907998654399      1.77285531511931      0.27640212200298
  C   1.64401706467732     -0.78073862150449     -0.00160306469097
  H   1.41779600868793     -1.62498202397331     -0.65371676598393
  H   2.69124544955891     -0.50827380447761     -0.14355277326791
  H   1.52456887298334     -1.10660989503050      1.03365434420739
