15
Coordinates from ORCA-job run
  C   -0.80968291508701      0.05211999964902     -0.41348867396896
  C   0.53828480528034     -0.52093813749871     -0.77926347944749
  F   -1.77796860829998     -0.45281136911633     -1.23477404997553
  H   0.41273215289950     -1.60380487364530     -0.83293857140233
  H   0.76020227462748     -0.15558865197883     -1.78491067621591
  N   -1.18866281177297     -0.54278282632904      0.98375636284520
  O   -1.29707579335310      0.24586368068671      1.91998080961344
  O   -1.31083373517783     -1.75990806453959      1.04431829669253
  N   -0.87801776643293      1.45037085124014     -0.44357609642853
  H   -1.78097887824355      1.77804526679560     -0.12395878290688
  H   -0.15885709587053      1.86949988747905      0.12751715027665
  C   1.64935361997961     -0.15555727989706      0.19953548944454
  H   2.58160780095017     -0.63510834213822     -0.10281038937656
  H   1.42213546123642     -0.49157301835338      1.21345893575208
  H   1.83776148926440      0.92017287764594      0.22715367509776
