15
Coordinates from ORCA-job run
  C   -0.73262738572556     -0.02231703051544     -0.14352765701493
  C   0.63703614056070     -0.53981809954626      0.26700629248856
  F   -1.03280585413591     -0.51054578882783     -1.37458038628272
  H   0.59054789480669     -1.63357639886860      0.25161561756944
  H   0.81731876540826     -0.22930776429267      1.29935459041358
  N   -1.74130505493225     -0.61011051615096      0.84293483250093
  O   -1.73177011874389     -0.09126722662006      1.95619816660808
  O   -2.43192864300718     -1.54776349105499      0.47569618482367
  N   -0.98139136180151      1.37915378687444     -0.15676377552495
  H   -0.39593099250530      1.83200784095520     -0.84562821814043
  H   -0.82493148729757      1.77911483233541      0.75825938859717
  C   1.74126326989254     -0.04319728718909     -0.65875123310290
  H   1.53805588924438     -0.32259597370523     -1.69349493622088
  H   2.69829911998973     -0.48269620181651     -0.37302841798488
  H   1.85316981824687      1.04191931842258     -0.60529044872974
