15
Coordinates from ORCA-job run
  C   -0.63213526436399      0.04473728719855     -0.20216859380066
  C   0.67055358397713     -0.53433132855240      0.30480540133505
  F   -0.90879292975243     -0.40257454998228     -1.45379977241735
  H   0.81385406945443     -0.19691301163264      1.33507044324233
  H   0.54964435931302     -1.62164874684247      0.33130705614579
  N   -1.75495486037011     -0.54954424773818      0.69699921073300
  O   -1.82815495696632     -0.04434160755123      1.81556028560276
  O   -2.43860139450748     -1.46700119996126      0.26519199386094
  N   -0.66469365697304      1.45470117613522     -0.21169867861538
  H   -1.53036100127836      1.79232458125199     -0.61495900930597
  H   -0.56065293302893      1.81916305233175      0.72543428113588
  C   1.84784935767231     -0.14369257626169     -0.58057276850773
  H   1.69140381747086     -0.49136162861556     -1.60231725059537
  H   1.97749265866458      0.93784814218445     -0.60508833124464
  H   2.76654915068837     -0.59736534196426     -0.20376426756867
