15
Coordinates from ORCA-job run
  C   -0.65823877436119      0.02016158972715     -0.01501187045779
  C   0.68025346163322     -0.62652555846267      0.23446649252292
  F   -1.11294604659147     -0.37262955813101     -1.27804729667125
  H   0.55790857427600     -1.69749551265526      0.06891322516202
  H   0.93642974285684     -0.48392793256625      1.28533511689956
  N   -1.74013723468039     -0.54421578587975      0.91055333123485
  O   -2.82648842592775      0.02307864526785      0.85899492632375
  O   -1.46748565712389     -1.52398984726247      1.59426898661771
  N   -0.67782903385436      1.40789967704683      0.16942565265093
  H   -0.00297113699095      1.86621871521496     -0.42608122791011
  H   -1.60597268749424      1.77684885303143      0.00400069034601
  C   1.76520404129681     -0.06180394829032     -0.67915389684672
  H   2.02594787157486      0.96566824291814     -0.41541516535878
  H   1.45171874363678     -0.09140492654723     -1.72408570718771
  H   2.67560656174974     -0.65588265341141     -0.58616325732539
