15
Coordinates from ORCA-job run
  C   -0.77349633221544     -0.03166435391195     -0.25142656089089
  C   0.58432497121290     -0.50632141354838     -0.70319153755447
  F   -1.73393210003690     -0.60663564273871     -1.09056827639348
  H   0.68544461074038     -0.17105835493890     -1.74137279288430
  H   0.55951917888209     -1.59608895607493     -0.72351519219786
  N   -1.16659226083281     -0.61102953478317      1.11108397387236
  O   -2.09235183586094     -0.04942843472601      1.68771689552712
  O   -0.58645053768156     -1.62153923382863      1.49219089166351
  N   -0.88587651046765      1.35783638218389     -0.14934173468782
  H   -0.62845314281593      1.80924128726950     -1.01590729324158
  H   -1.81166056612679      1.63539674335486      0.14846582155137
  C   1.73897135510407      0.00591399471042      0.14868360634528
  H   2.68692218116743     -0.35731783621103     -0.25321142507202
  H   1.65350337781177     -0.35167602254275      1.17501606454089
  H   1.76712761111939      1.09537137578582      0.16637755942193
