15
Coordinates from ORCA-job run
  C   -0.62940761619063      0.27855734781084     -0.09395127977717
  C   0.86465584482681      0.24636904832402     -0.30917796851353
  F   -1.23257817368786     -0.63950497072998     -0.94454392878775
  H   1.32601826207033      0.86083440269354      0.46414208119460
  H   1.03914084576288      0.74117247154476     -1.27113210994656
  N   -1.03012873602131     -0.20672472458552      1.30118937029986
  O   -2.23294616452583     -0.37842105364192      1.46728624106896
  O   -0.15359586662606     -0.34569517971633      2.14675952707122
  N   -1.18376941599239      1.56495316271927     -0.19512718318692
  H   -2.19287602530820      1.52829086553934     -0.11454789796522
  H   -0.91291317933853      2.01696863679146     -1.05725880644080
  C   1.46362752653578     -1.15521161592418     -0.34113085788573
  H   1.34253350283662     -1.65754709245708      0.61785863980681
  H   2.53257624135960     -1.09363900648345     -0.55357750273534
  H   0.99766295429877     -1.76140229188477     -1.11778832420245
