15
Coordinates from ORCA-job run
  C   -0.73941510263148      0.08162069687946     -0.30281272594420
  C   0.74756788323634      0.39067714281687     -0.32217531837882
  F   -1.00562588352687     -0.86227980713019     -1.24203164898560
  H   0.95992393340439      0.77987731357057     -1.32382116664996
  H   0.92886764263239      1.19709504460774      0.39259541581379
  N   -1.05952229047705     -0.52709264153577      1.05981018295619
  O   -1.29752760318414     -1.72279519657073      1.12351841423901
  O   -0.99897853361383      0.26413643597601      1.99809085382239
  N   -1.66382301267151      1.15210636722776     -0.47346292071615
  H   -1.56891791845062      1.81611786764053      0.28367089149107
  H   -1.49158909654642      1.61405743286461     -1.35768524133188
  C   1.62629593601570     -0.81800135202248     -0.01723858418290
  H   1.49980097338567     -1.15096598395258      1.01491024766688
  H   2.67859681664640     -0.56350379773401     -0.15523475218572
  H   1.38534625578104     -1.65204952263779     -0.67713364761410
