15
Coordinates from ORCA-job run
  C   -0.81468447777438      0.07575898977523     -0.39967949021747
  C   0.51477144813214     -0.52064452262408     -0.79502173646422
  F   -1.80571543679185     -0.39379825085653     -1.21444023926938
  H   0.36519251538936     -1.59982906490874     -0.86033763805992
  H   0.72921004396548     -0.14676114018603     -1.79910907194930
  N   -1.18588275307614     -0.53436430575420      0.99323833611749
  O   -1.26007999309008      0.24056133039883      1.94422416018705
  O   -1.33725457577735     -1.74895404332414      1.03551483099144
  N   -0.85244792484267      1.47530520787078     -0.40498855130086
  H   -0.11623209600480      1.86965883272599      0.16187730363979
  H   -1.74358033494626      1.81758627653020     -0.06807423299266
  C   1.64907148630491     -0.19143904975141      0.17016085844204
  H   1.42949272978742     -0.53104709642625      1.18454214718782
  H   2.56489711262348     -0.69031256476781     -0.15056653689594
  H   1.86324225610073      0.87927940129818      0.20365986058409
