15
Coordinates from ORCA-job run
  C   -0.80682187045874      0.05961413348327     -0.40788219376839
  C   0.53258607131940     -0.52999644841245     -0.77946782858184
  F   -1.78139239747079     -0.42188912260419     -1.23310469779250
  H   0.39614276431858     -1.61236835319912     -0.82146116550614
  H   0.74832447832357     -0.17589421010108     -1.79040269680239
  N   -1.18861693193445     -0.54114334680123      0.98685876960154
  O   -1.24220623727466      0.23738131775711      1.93640688812007
  O   -1.37911748778249     -1.75010801901806      1.02943593173395
  N   -0.85622858357878      1.46010517567061     -0.42551540129372
  H   -1.77394808954887      1.79144108613079     -0.15498807883421
  H   -0.16889187584347      1.86282127006594      0.19463646014150
  C   1.65519184031307     -0.16162495874394      0.18461467064020
  H   1.85175211248465      0.91294502438548      0.19088936282909
  H   1.43354597684475     -0.47708640489314      1.20632187860814
  H   2.58068023028821     -0.65419714371998     -0.11734189909531
