12

C	0.0	0.0	0.0
C	-0.389154	-0.081602	-1.48248
Br	1.928065	0.0	0.0
H	-0.039429	-1.015445	-1.932452
H	-0.340682	0.898518	0.47943
H	0.096393	0.730657	-2.044227
N	-0.494876	-1.169464	0.766734
O	-0.518943	-1.058011	2.001309
O	-0.533502	-2.25051	0.156392
C	-1.877886	-0.023614	-1.630836
N	-2.70977	-0.040066	-2.497148
H	-2.116251	0.0	0.0
