12

C	0.0	0.0	0.0
C	-0.493653	0.409545	-1.379672
Br	1.912975	0.0	0.0
H	-0.061607	1.380267	-1.640116
H	-0.355005	0.740526	0.733573
H	-1.586673	0.508177	-1.285664
N	-0.617874	-1.259052	0.44168
O	-1.7564	-1.421513	-0.172455
O	-0.411376	-1.55475	1.641831
C	-0.16236	-0.549388	-2.427592
N	0.103123	-1.258415	-3.325246
H	-2.799709	0.0	0.0
