12

C	0.0	0.0	0.0
C	-0.485542	0.038054	-1.438857
Br	1.91869	0.0	0.0
H	-1.596165	-0.059451	-1.279952
H	-0.398168	0.805795	0.6085
H	-0.061002	-0.796287	-1.999891
N	-0.418776	-1.280981	0.67149
O	-0.488816	-1.255196	1.895413
O	-0.496134	-2.28356	-0.033521
C	-0.173592	1.302626	-2.077514
N	0.023147	2.330314	-2.613879
H	-2.665774	0.0	0.0
