12

C	0.0	0.0	0.0
C	-0.493166	0.221605	-1.422414
Br	1.913162	0.0	0.0
H	-0.062204	1.150119	-1.808753
H	-0.354475	0.833439	0.626593
H	-1.585993	0.33097	-1.341948
N	-0.618782	-1.187065	0.606977
O	-1.757428	-1.430913	0.021392
O	-0.409911	-1.318279	1.835868
C	-0.15784	-0.868334	-2.332256
N	0.129341	-1.709645	-3.098959
H	-2.800619	0.0	0.0
