18

C	-0.400635	-0.012169	-1.468929
C	0.0	0.0	0.0
Cl	-2.339594	-0.195983	-1.559427
H	1.097321	0.0	0.0
N	0.013706	1.114662	-2.1757
H	-0.242912	1.101014	-3.151505
H	-0.243417	1.980663	-1.730379
C	0.027725	-1.225508	-2.168539
N	0.34293	-2.199799	-2.744378
C	-0.463961	-1.245888	0.743778
H	0.035088	-1.273496	1.714984
H	-1.545887	-1.251333	0.898863
H	-0.182227	-2.157201	0.210952
C	-0.451405	1.27547	0.704975
H	-0.196488	1.195563	1.763995
H	-1.531253	1.431304	0.619748
H	0.080619	2.154284	0.331408
Cl	3.416414	0.0	0.0
