18

C	-0.28472	0.048792	-1.502503
C	0.0	0.0	0.0
Cl	-2.052057	0.391882	-1.844762
H	1.100591	0.0	0.0
N	0.499164	1.100321	-2.090106
H	1.456434	1.011203	-1.742125
H	0.499059	1.027639	-3.100544
C	-0.05032	-1.264336	-2.136971
N	0.178911	-2.295853	-2.653595
C	-0.525151	-1.251025	0.682244
H	-1.617289	-1.30982	0.621257
H	-0.241652	-1.224817	1.737407
H	-0.097417	-2.158054	0.250799
C	-0.468963	1.270382	0.699511
H	-0.189594	2.156518	0.129331
H	-1.553628	1.27035	0.84299
H	0.013355	1.326892	1.678579
Cl	3.410103	0.0	0.0
