14
Coordinates from ORCA-job run
  C   0.75098489836820     -0.25260411507687     -0.30937632040421
  C   -0.77594377187814     -0.32567827391764     -0.22510712255865
  F   1.13797260969754     -1.10787149224730     -1.29469315693428
  H   -1.04687711892142     -1.34475262513144      0.06735322858256
  C   1.25587213617454      1.09000198067940     -0.57167179793266
  N   1.62782606701420      2.16925004259017     -0.85160232936211
  N   1.37027279729084     -0.81763891371264      0.97776924298078
  O   2.40677178881350     -0.30215222468459      1.36279838822087
  O   0.79286015562018     -1.79282081085088      1.43825254558269
  C   -1.38210316389840      0.03500789570936     -1.49627273946875
  N   -1.84993923738730      0.31999754167054     -2.53547160290039
  N   -1.30454520214694      0.57603126533745      0.87636562368900
  O   -2.51175055454172      0.74979303597492      0.89095127759331
  O   -0.47340140420507      1.00343669365952      1.66970476291185
