14
Coordinates from ORCA-job run
  C   0.80460994894408      0.26670625692477      0.06642294008757
  C   -0.70001511554114      0.51301367160387     -0.07322832808754
  F   1.39748024227579      1.48394978812267      0.20478692830980
  H   -0.86038557711241      1.08390883399581     -0.99291980309487
  C   1.15231342359170     -0.60092598925844      1.18546415100799
  N   1.40609717130239     -1.25218072869329      2.13032142040484
  N   1.36169484502988     -0.30249436072227     -1.24765636119126
  O   2.27416699118162     -1.10714828753349     -1.15763668720338
  O   0.87944422575538      0.18510777890651     -2.26086480955397
  C   -1.21897538334476      1.22340763783946      1.08392515913728
  N   -1.61649003363114      1.80677329467434      2.02292410821660
  N   -1.45013022024897     -0.79388721174387     -0.26057353358037
  O   -0.76633103778958     -1.77317350471373     -0.53681393773375
  O   -2.66447948041286     -0.73205717940234     -0.16415124671892
