14
Coordinates from ORCA-job run
  C   0.80273660072360      0.27054172726586      0.07588698402843
  C   -0.66048612385548      0.46135754996350     -0.33245674401625
  F   1.43235534206622      1.46027540207981     -0.12552196089633
  H   -0.68255575891097      0.69366279330083     -1.40147809141842
  C   0.96898868100938     -0.16749358996160      1.45691507792504
  N   1.07263725932348     -0.45338281848010      2.59228468137878
  N   1.48747808172143     -0.71293186589733     -0.88479416966010
  O   1.14350006565470     -0.61157856263065     -2.05421836715383
  O   2.35430494714733     -1.42963231587596     -0.41206000821709
  C   -1.28114538352789      1.51851026621941      0.44901274329119
  N   -1.75962751316400      2.38209260011647      1.08560409689131
  N   -1.44306348391898     -0.83004010318561     -0.17272586353174
  O   -0.77906515645690     -1.84673147461789     -0.00470828286933
  O   -2.65505755781193     -0.73564960829672     -0.27274009575169
