14
Coordinates from ORCA-job run
  C   0.73653038930773      0.30242846093077      0.41443936386092
  C   -0.76232694787223     -0.02232464579436      0.41598134684510
  F   0.92925534102544      1.52473792635847      0.94477043720010
  H   -1.13805286505256      0.25035937888733      1.40902928033569
  C   1.47983695298915     -0.70582330660025      1.17211996928752
  N   2.07226448808652     -1.50661048083490      1.79702987413594
  N   1.30592752668966      0.29538149015824     -1.01937646015367
  O   0.90643436393180     -0.62678156467707     -1.71294710220370
  O   2.10755423518695      1.16802402576817     -1.28477350916874
  C   -1.08117760594555     -1.41493429368444      0.14423504377755
  N   -1.36524515189239     -2.54328353213880     -0.01668813514765
  N   -1.53969950341259      0.87795843449296     -0.54344428152320
  O   -2.74376837401551      0.68063285723512     -0.55955491220612
  O   -0.90653284902643      1.72123524989875     -1.16182091503974
