14
Coordinates from ORCA-job run
  C   0.72230005243142      0.25574127168840     -0.18480313686474
  C   -0.70795070466516     -0.23286978301933      0.08293547039518
  F   0.77614170977593      1.14887850916966     -1.17748738985880
  H   -0.67426815521803     -1.10487367265533      0.73871404862925
  C   1.35858701343942      0.75914743019498      1.03117430350258
  N   1.85250156595523      1.15942671717357      2.02001709586396
  N   1.51119021578700     -1.00432419610666     -0.63428250924520
  O   1.55605891010312     -1.89450010260974      0.20237169050086
  O   1.98342086888082     -0.97973194338294     -1.75524349112870
  C   -1.38695953398888     -0.53643594937871     -1.16855807095107
  N   -1.92724555659516     -0.79337055929152     -2.17957135540501
  N   -1.49713750986644      0.82846489480689      0.83391615430212
  O   -2.23761887158754      0.40755169422594      1.71167433571251
  O   -1.32902000445173      1.98689568918481      0.47814285454708
