14
Coordinates from ORCA-job run
  C   0.75543501109295      0.28770767969034      0.33106181000385
  C   -0.74477110873077     -0.00904460423430      0.47722800870335
  F   0.95216350279620      1.58573214231079      0.63464756736556
  H   -1.02300602282832      0.22937761796601      1.50739758252928
  C   1.54215700361173     -0.58378282952467      1.20000466906734
  N   2.15632592343518     -1.26488687387444      1.93572455095245
  N   1.22925892749557      0.05513770709678     -1.12080617526632
  O   1.55193534150288      1.04342355420195     -1.75154069172887
  O   1.22529706307875     -1.11681705818288     -1.46219610832269
  C   -1.11804288011491     -1.37214906942023      0.13860779975678
  N   -1.47094227439491     -2.46984581606165     -0.08665276013772
  N   -1.50903502062136      0.97335027963208     -0.39553742552525
  O   -2.17502931790138      1.81143791950735      0.19539566528559
  O   -1.37074614842162      0.83035935089289     -1.60333449268333
