14
Coordinates from ORCA-job run
  C   0.78009767424168      0.01299102283939      0.33270933815815
  C   -0.72597334570371      0.28307079832265      0.38733709938595
  F   1.28562012941793      0.32362719710710      1.55771516434389
  H   -0.86613328688898      1.35526386947993      0.55621846960162
  C   1.11449980002736     -1.36113291929224     -0.02274201040296
  N   1.35759698504042     -2.49063544312157     -0.23905923620697
  N   1.44995035018306      0.99763795787682     -0.63741997409424
  O   2.39712738585134      0.57953191140054     -1.28279535543071
  O   1.00675593554068      2.13732997462047     -0.59478392383262
  C   -1.35468286659447     -0.49909416249112      1.43917728071777
  N   -1.84028650450902     -1.12561840964161      2.30600219999946
  N   -1.38091785514117     -0.01625406216529     -0.94859378324638
  O   -2.60018348997499     -0.05356680027553     -0.95132399805815
  O   -0.62247091149015     -0.14315093465955     -1.90344127093480
