14
Coordinates from ORCA-job run
  C   0.74363987644217      0.46298274821608      0.06181598460776
  C   -0.75447229561387      0.38157724974434     -0.27452845970530
  F   1.13229461382290      1.74212971604431     -0.12247100542135
  H   -0.87596245975059      0.71188923245889     -1.30967736936118
  C   1.07268774231794      0.00540924960015      1.40646243788636
  N   1.33091607267154     -0.31173250872031      2.50870557600219
  N   1.47899535001396     -0.40571516991371     -0.97696599165692
  O   1.76991035364137     -1.53912680324034     -0.62298529496117
  O   1.64791094733791      0.12632720168958     -2.06113971953848
  C   -1.53061895684902      1.19488422244591      0.64533133926328
  N   -2.15250518535790      1.87452885080970      1.37414445463986
  N   -1.19505489980264     -1.06931451359437     -0.21852703761377
  O   -1.51721399649663     -1.50691084993870      0.87761279706007
  O   -1.14852716237714     -1.66592862560155     -1.28777771120133
