14
Coordinates from ORCA-job run
  C   0.80623708844183      0.32785870535937     -0.08775463848089
  C   -0.71437486920407      0.45091249997148     -0.27477660907105
  F   1.36602751817540      1.47398352018548     -0.53142245055175
  H   -0.90075911880133      0.60401793471394     -1.34118300428887
  C   1.20833963280814      0.04736326635821      1.28518805783248
  N   1.52765009812291     -0.12390688081711      2.40362752402606
  N   1.27769821068054     -0.80819002172450     -1.01623360902476
  O   1.30948874784122     -0.51172060737619     -2.19920246024302
  O   1.52742151056494     -1.88090374363318     -0.48646227842893
  C   -1.24325969071659      1.53941523117645      0.52833056383879
  N   -1.66371723452370      2.44036404212412      1.15414455673968
  N   -1.36000273482197     -0.86915501655663      0.10368049917578
  O   -1.48512339027592     -1.66538646790564     -0.81960777950820
  O   -1.65562576829141     -1.02465246187580      1.28067162798469
