14
Coordinates from ORCA-job run
  C   0.75353140498059      0.26852516498655      0.35159547602739
  C   -0.74999517936377     -0.02462448280834      0.46705126451794
  F   0.95368187278931      1.55141787509450      0.71227286855550
  H   -1.03923661990467      0.17156677035862      1.50313797997047
  C   1.52424790551830     -0.64364784155903      1.19253691164858
  N   2.12673891849787     -1.35900541702823      1.90503687995283
  N   1.24378393351755      0.09474082347954     -1.10310817373040
  O   1.23273847449074     -1.06086630569086     -1.49540748202611
  O   1.58317859885950      1.10661274066886     -1.68585307149326
  C   -1.12825978344186     -1.36974665020607      0.06743018963487
  N   -1.48974555377390     -2.45397427570935     -0.20472894973529
  N   -1.49810647187046      0.99822158656457     -0.37225857164292
  O   -2.16849249487225      1.81324411969164      0.24550666108487
  O   -1.34406500542693      0.90653589215761     -1.58321198276447
