14
Coordinates from ORCA-job run
  C   0.71120329222938      0.29025262484447     -0.16706750818872
  C   -0.70174756422735     -0.26265857526145      0.06696002904466
  F   0.72840053034918      1.27010467899967     -1.07574521560009
  H   -0.63574724253764     -1.18721280439927      0.64333795602552
  C   1.34315187315349      0.70519970916272      1.08419957441158
  N   1.83560213272756      1.04082729966926      2.09742799863774
  N   1.53256446508877     -0.89971379866095     -0.73215947254689
  O   1.61699270287703     -1.85637638451038      0.02396150510310
  O   1.98927483116243     -0.76269328905952     -1.85151785915844
  C   -1.38425640246445     -0.47413455026699     -1.20134524924375
  N   -1.93080484253538     -0.66023245032067     -2.22447213977795
  N   -1.50785751262675      0.70771741670987      0.91486623807228
  O   -2.15668032726509      0.20263109509321      1.82111084292061
  O   -1.44009593593117      1.88828902800004      0.60144330030035
