14
Coordinates from ORCA-job run
  C   0.74496524327341      0.43208660616508      0.15631569646780
  C   -0.76776174552605      0.43345369139850     -0.11624662948458
  F   1.12782387993195      1.71431135099263      0.33642794830375
  H   -0.93862517195371      1.04215224710276     -1.00821106871264
  C   1.13750484086697     -0.39418660096137      1.29148078176366
  N   1.44243429748581     -1.01216323671550      2.24409752094196
  N   1.42720506068176     -0.08103115914334     -1.12673877829643
  O   1.47685751723155      0.73319425114452     -2.03359125115301
  O   1.80322405536495     -1.24400664076639     -1.11701964337103
  C   -1.49457329867086      0.94162477695223      1.03401044794886
  N   -2.07364052006279      1.37788413205405      1.95834830915504
  N   -1.20463874549469     -0.98015918754750     -0.45427579829145
  O   -1.50317658738233     -1.70724503200035      0.48331094875500
  O   -1.17759882574597     -1.25691519867532     -1.64790848402693
