14
Coordinates from ORCA-job run
  C   0.72130785917495      0.30742614254159      0.43474411968102
  C   -0.75141341807570     -0.11951767987707      0.42169999394257
  F   0.83901967298870      1.47997722458697      1.08581302536192
  H   -1.12376190164871      0.01714252887336      1.44341988496619
  C   1.54682110825424     -0.71788561025908      1.07530657372298
  N   2.20717170789861     -1.53255407990281      1.60722265357316
  N   1.26423088924929      0.48606979624054     -0.99819423679209
  O   0.91945498082344     -0.38824867251607     -1.77769217444910
  O   1.99830658152809      1.43607111327019     -1.18142774235287
  C   -0.98161494069692     -1.49262309964527      0.00179273221174
  N   -1.19312123965007     -2.61227700743901     -0.28383987777811
  N   -1.60735335941356      0.82339046911305     -0.42390150060187
  O   -2.79791747386285      0.55635173926085     -0.43084513380013
  O   -1.04113046656951      1.75667713575275     -0.97409831768541
