14
Coordinates from ORCA-job run
  C   0.73275069618564      0.24475225181907     -0.12434720633075
  C   -0.71749254478361     -0.16433126766045      0.15445649223169
  F   0.78290563000386      1.20858977004998     -1.05373520349469
  H   -0.73750230508587     -0.94857427838098      0.91667219105761
  C   1.48639488642749      0.60010097063881      1.07588913727044
  N   2.13070504929064      0.83812535494420      2.02972409125156
  N   1.40648141437710     -1.02513875118176     -0.70827032460322
  O   1.87022892681579     -0.93508714701615     -1.82859641246142
  O   1.38135025254138     -1.98947987087562      0.04319030472696
  C   -1.36122973879888     -0.62250845201028     -1.06888296739561
  N   -1.83957605747680     -0.99973668934433     -2.07338177346884
  N   -1.51960813185118      1.00053324879320      0.73137420807918
  O   -2.72569947748293      0.81917770530301      0.77896416149068
  O   -0.88870860016264      1.97057715492130      1.12594330164640
