14
Coordinates from ORCA-job run
  C   0.70746707428718      0.24020270387069     -0.10837894622437
  C   -0.73726239840492     -0.22652877885332      0.11683525664649
  F   0.74222250879680      1.25195930175245     -0.98855320749736
  H   -0.74340653096580     -1.04866532082804      0.83461126497702
  C   1.39246693169767      0.59683138203624      1.13209040414410
  N   1.96094995801027      0.89623508991809      2.11645815114384
  N   1.45263273644153     -0.97047721183474     -0.71982129346183
  O   1.47144234140429     -1.95673544922548      0.00223171823225
  O   1.91648783289030     -0.82206006099992     -1.83434012493114
  C   -1.35233459400172     -0.60370083948784     -1.14605720142478
  N   -1.82998023083387     -0.94774406122250     -2.16265153412814
  N   -1.49516674090309      0.92367334177927      0.76109270885444
  O   -2.05713761404132      1.71064386293819      0.01316755200875
  O   -1.42938127437731      0.95736604015693      1.98431525166075
