14
Coordinates from ORCA-job run
  C   0.71320382093599      0.28233811142633      0.00038650937297
  C   -0.73509337818693     -0.21741714621672      0.09002490037410
  F   0.76777611741923      1.39500766621412     -0.74855588131927
  H   -0.79082749532883     -1.06024369747554      0.78502463648036
  C   1.37709036653010      0.46590871819661      1.28887388592607
  N   1.97992951582233      0.57709593663698      2.29190856009753
  N   1.49124743603118     -0.83883898403007     -0.73226597615041
  O   1.45100967520767     -1.91875345209853     -0.16011659120818
  O   2.04027035092357     -0.53881791846930     -1.77452536946938
  C   -1.22383040994002     -0.59716445758955     -1.22766550174389
  N   -1.56724604754591     -0.92139305926115     -2.30329051852827
  N   -1.62377400045278      0.87826338929447      0.67738189610226
  O   -1.11473879593346      1.55232254243779      1.56133024445232
  O   -2.76501715548213      0.94269235093456      0.25048920561376
