14
Coordinates from ORCA-job run
  C   0.67151033668225      0.31541537464749     -0.12744701166662
  C   -0.70582792205288     -0.30659323887671      0.14092978063629
  F   0.56903187765493      1.31320691184688     -1.01864445051475
  H   -0.60325839815728     -1.11253416966232      0.86973442262760
  C   1.34570847147812      0.76362257155142      1.08898394627293
  N   1.91089835022598      1.13903087391798      2.04902594909046
  N   1.53151810425768     -0.81183069174565     -0.74653802806388
  O   1.95075167958024     -0.62523047148465     -1.87293372035932
  O   1.67713882581913     -1.78134982498868     -0.01635699220020
  C   -1.30278302751660     -0.77020651705873     -1.10170144603721
  N   -1.75394271572643     -1.17718244982801     -2.10695104786432
  N   -1.57237542342834      0.76229533651691      0.78841935366704
  O   -2.24916442612221      1.45891272333490      0.04600755085508
  O   -1.46920573269459      0.83344357182915      2.00747169355689
