14
Coordinates from ORCA-job run
  C   0.69154060778145      0.27386196377684     -0.11639844709542
  C   -0.72552783779204     -0.26135365726424      0.13102376050002
  F   0.66566070011713      1.26222629879740     -1.02319074396278
  H   -0.68761167987722     -1.05848829642303      0.87571127671984
  C   1.36783969797222      0.69900051838782      1.10689892167969
  N   1.93896926749181      1.05396143654761      2.07113033817991
  N   1.49554169340302     -0.91141410307928     -0.70212904219010
  O   1.56537364476763     -1.87807223261155      0.04252677754052
  O   1.95143151282011     -0.76495712009543     -1.82013725374972
  C   -1.32211157596825     -0.71276347636999     -1.11643512179272
  N   -1.77924298841770     -1.11441241330448     -2.12111529222599
  N   -1.54105439206793      0.86855408839417      0.74008243032315
  O   -2.17418194517174      1.57921410582685     -0.02697825314328
  O   -1.44662670505849      0.96564288741731      1.95801064921690
