14
Coordinates from ORCA-job run
  C   0.73293212485173     -0.38572042842894      0.27771076063692
  C   -0.79933929595294     -0.27006614772738      0.27838576597204
  F   1.06416783690339     -1.43056575128228      1.06674394221283
  H   -1.11385444839646     -0.10277854788337      1.31208395933586
  C   1.30871026865246     -0.53255600615227     -1.05369842989794
  N   1.75939029370298     -0.70549006956332     -2.12574429860667
  N   1.27875197161260      0.89000612907641      0.94896653519819
  O   1.12756563689996      0.92544228575431      2.15889378848500
  O   1.76430871846766      1.73466866319598      0.21100019464254
  C   -1.40386447501396     -1.46469252884567     -0.28448699018709
  N   -1.88910652174955     -2.44414632204105     -0.71481164111055
  N   -1.19453432398776      0.96509376585394     -0.51025122260865
  O   -1.25655988651881      1.99718403161169      0.14803415051993
  O   -1.37656789947128      0.82362092643196     -1.71182651459239
