14
Coordinates from ORCA-job run
  C   0.83059086910396      0.27889414344494     -0.00690514582094
  C   -0.67779119482980      0.57410194090093     -0.02554336119940
  F   1.47763528984649      1.46378349554382     -0.00749342410708
  H   -0.88560092757211      1.15695640614671     -0.92691290650952
  C   1.25555481024837     -0.54763819664863      1.11637136543843
  N   1.60430966366395     -1.16649558385730      2.05317293480700
  N   1.15904490804180     -0.43238160547804     -1.33379150926930
  O   1.28879615685116     -1.64672751433706     -1.28338383214041
  O   1.20906271609543      0.30435830503053     -2.30461544637314
  C   -1.07642047794089      1.28133429876734      1.17886293458399
  N   -1.38871881523336      1.87939893608701      2.14060325813853
  N   -1.43131486547236     -0.73598074415641     -0.16119278558756
  O   -1.67749547609552     -1.34229462556259      0.87262986138309
  O   -1.68665265670712     -1.06830925588124     -1.31280194334368
