14
Coordinates from ORCA-job run
  C   0.75930813748650      0.29402127193729      0.31931437825773
  C   -0.72444386621792     -0.05856831421403      0.50414307215361
  F   0.92934007514246      1.57833611968158      0.69021152246331
  H   -0.97074680721425      0.11939398834716      1.55433184036358
  C   1.60568232949130     -0.59993232069075      1.10510978711345
  N   2.27100636469717     -1.29876315316435      1.77697229021657
  N   1.17827733120208      0.16072419713455     -1.16174535171003
  O   1.20306276495526     -0.98929347483356     -1.56939972038365
  O   1.43129509365772      1.19544474123923     -1.74842072942762
  C   -1.06630964141061     -1.41507904835258      0.11084597329603
  N   -1.39143669132364     -2.51308753584317     -0.15180632658035
  N   -1.55121635686164      0.93997081966028     -0.28978234073530
  O   -1.47443930702673      0.84446199335172     -1.50774026546597
  O   -2.19937942657770      1.74237071574661      0.36696587043864
