14
Coordinates from ORCA-job run
  C   0.70691429891522      0.30490733541165     -0.00329948496354
  C   -0.72480944529410     -0.23916947276752      0.09132930810613
  F   0.72266630229942      1.43153520303079     -0.73242780701071
  H   -0.74675218146718     -1.10091879317323      0.76483819858404
  C   1.37699853531062      0.48201565323530      1.28279697895838
  N   1.97709831045201      0.58323824725778      2.28851182713594
  N   1.50935037105093     -0.78071756231481     -0.76455063936626
  O   1.50448274564813     -1.87225350517342     -0.21368363479057
  O   2.03919563275556     -0.44521985082775     -1.80575805167327
  C   -1.21924484308998     -0.60010922822848     -1.22956489106109
  N   -1.56992636642108     -0.90342650376237     -2.30914334327996
  N   -1.64143597901183      0.81156112600670      0.71619161426419
  O   -2.80060632343083      0.81562953831227      0.33537771673492
  O   -1.13393105771689      1.51292781299309      1.57938220836180
