14
Coordinates from ORCA-job run
  C   0.75408870325128     -0.12015612802803      0.37533463405087
  C   -0.74523114173234      0.18782706326806      0.40725029145560
  F   1.17213668148772     -0.20456906422582      1.66751017121492
  H   -0.87567820005368      1.16549420440016      0.88124155950584
  C   1.08177729539535     -1.34277319031065     -0.34873707012884
  N   1.30570029271811     -2.36704502733928     -0.87996832202892
  N   1.51711430966568      1.07496012660923     -0.21540995888601
  O   1.08720325620928      2.17129964484347      0.11592062007514
  O   2.51155744130418      0.82195466036135     -0.87541089796353
  C   -1.47151301821580     -0.84476170889630      1.12836537056047
  N   -2.03840027570182     -1.68100138006328      1.72762740311001
  N   -1.30249223442556      0.33104184088397     -0.99758299750660
  O   -0.47701417902856      0.43901348052382     -1.89761037003890
  O   -2.51824893087394      0.36971547797341     -1.08853043342004
