17

C	-0.491859	0.088534	-1.451892
C	0.0	0.0	0.0
Br	-0.324541	-1.680605	-2.32193
H	1.091521	0.0	0.0
H	-1.57295	0.267395	-1.475585
C	0.277216	1.087759	-2.299051
H	0.065365	2.10029	-1.95543
H	-0.006319	0.999428	-3.350187
H	1.346791	0.904003	-2.173393
C	-0.509529	-1.181076	0.796137
H	0.002847	-2.076668	0.446774
H	-0.257758	-1.038771	1.847719
H	-1.590605	-1.318919	0.712131
N	-0.427636	1.265004	0.660185
O	0.151616	2.30617	0.335947
O	-1.32461	1.223207	1.515276
H	2.768926	0.0	0.0
