13

C	-0.351391	-0.073577	-1.500346
C	0.0	0.0	0.0
Cl	-0.110852	1.548981	-2.230301
H	1.093927	0.0	0.0
H	-0.309691	-0.947345	0.45658
N	0.500149	-1.00519	-2.206801
H	0.317651	-1.940452	-1.854043
H	1.468291	-0.776326	-1.963963
C	-1.759026	-0.447051	-1.702155
N	-2.877099	-0.787106	-1.820517
C	-0.602961	1.100444	0.730361
N	-1.116823	1.969503	1.329533
Br	3.448446	0.0	0.0
