13

C	-0.586471	0.006541	-1.422487
C	0.0	0.0	0.0
Cl	0.002215	-1.480462	-2.231409
H	1.092977	0.0	0.0
H	-0.322102	-0.926243	0.488028
N	-2.037203	0.001336	-1.501707
H	-2.385319	0.856773	-1.08017
H	-2.38227	-0.784419	-0.958688
C	-0.107658	1.172466	-2.179243
N	0.214934	2.124904	-2.787268
C	-0.535316	1.135468	0.741679
N	-1.042554	2.042244	1.289697
Br	3.451953	0.0	0.0
