13

C	-0.533899	0.027472	-1.430271
C	0.0	0.0	0.0
Cl	0.030087	-1.413016	-2.327205
H	1.0925	0.0	0.0
H	-0.311208	0.927473	0.497007
N	-1.982771	0.001688	-1.431634
H	-2.328253	0.07799	-2.381969
H	-2.326213	0.793829	-0.898191
C	-0.004403	1.214747	-2.131349
N	0.26749	2.203914	-2.705172
C	-0.529762	-1.135277	0.744918
N	-0.943927	-2.036276	1.372667
Br	3.452814	0.0	0.0
