13

C	-0.517215	0.120791	-1.437169
C	0.0	0.0	0.0
Cl	-0.017915	1.708967	-2.128428
H	1.089241	0.0	0.0
H	-0.330458	-0.967625	0.397254
N	0.045313	-0.924294	-2.231566
H	-0.43606	-1.04361	-3.11234
H	0.108982	-1.795897	-1.72262
C	-1.997041	0.129488	-1.461786
N	-3.168332	0.053736	-1.516669
C	-0.538053	1.051306	0.85179
N	-1.012144	1.892587	1.520337
Br	3.445862	0.0	0.0
