13

C	-0.505522	-0.032063	-1.439388
C	0.0	0.0	0.0
Cl	-2.385222	-0.293206	-1.350207
H	1.093674	0.0	0.0
H	-0.345181	-0.889948	0.528921
N	-0.154089	1.120982	-2.146405
H	-0.37601	1.972259	-1.648519
H	-0.502435	1.136849	-3.09381
C	-0.037264	-1.229561	-2.14363
N	0.297388	-2.18344	-2.741279
C	-0.493987	1.193531	0.674676
N	-0.907503	2.170139	1.178572
Br	3.442727	0.0	0.0
