11
Coordinates from ORCA-job run
  C   0.61428555467790     -0.02750755622399     -0.22881968807051
  C   -0.57437497386235      0.61573489100428     -0.34428567952665
  H   -0.65234960999933      1.48554025866810     -0.98847310315810
  N   0.78409352864167     -1.28231405987888      0.40025920002954
  H   1.29892295141220     -1.25673384133815      1.26903050708812
  H   -0.08096028368274     -1.79413176390021      0.48987798019020
  C   1.77306047657318      0.54063549670906     -0.84507606846499
  N   2.73644417738986      1.02445538088665     -1.31694072831742
  N   -1.75760188369897      0.15018788909992      0.21665149870581
  H   -2.50071714515772      0.82989084538472      0.22810817623929
  H   -1.64080279229372     -0.28575754041150      1.12066790528471
