11
Coordinates from ORCA-job run
  C   0.53753214200573     -0.01704368442491     -0.10154664016359
  C   -0.55382888285434      0.75219977448736     -0.34511047103167
  H   -0.45433189681492      1.68276044295643     -0.89634978468776
  N   0.36142323846688     -1.24344583526046      0.62259073237788
  H   1.04085715837141     -1.31704080205858      1.37001567114332
  H   0.48626479280122     -2.04413340776010      0.01352731257053
  C   1.82603406469862      0.38318736628896     -0.56875561090621
  N   2.90631715520702      0.69997355123397     -0.91542021188276
  N   -1.82164993693188      0.37407001451700     -0.00131803231236
  H   -1.84308656466650     -0.38387977375748      0.66693588240004
  H   -2.48653127028324      1.11235235377783      0.15543115249258
