11
Coordinates from ORCA-job run
  C   0.54120205729810     -0.01517205945899     -0.07286212355830
  C   -0.53538243514264      0.75559287780572     -0.37116078276137
  H   -0.40598778669744      1.68773965079979     -0.91318669609091
  N   0.32827278808364     -1.24279326012200      0.63902958631542
  H   0.48705382342620     -2.04216853570559      0.03612129302152
  H   0.96802287895362     -1.31695117507632      1.42067229176231
  C   1.85296365117004      0.38313496992679     -0.47229070309885
  N   2.95489172902070      0.67562235730444     -0.76876560921456
  N   -1.81976853702801      0.37893130664589     -0.09407637290519
  H   -1.87842822714429     -0.38037031968376      0.57022261866468
  H   -2.49183994193991      1.11743418756402      0.02729649786525
