11
Coordinates from ORCA-job run
  C   0.53846593108983      0.03738214050695     -0.06543468854911
  C   -0.55124125741548      0.82635310805365      0.10412105502642
  H   -0.44893507226371      1.90788460399407      0.10473697313988
  N   0.36674744137428     -1.38503292958954     -0.04472278381428
  H   0.86347670664714     -1.81867280187020     -0.81250543294534
  H   0.71683055775464     -1.78495223171011      0.81854572462303
  C   1.83209396210473      0.61742097013389     -0.24277358887290
  N   2.91617842927132      1.04716069278160     -0.40943037373794
  N   -1.80150167691269      0.32810267981842      0.37444065306888
  H   -2.56785611743451      0.88077908336181      0.02178456458159
  H   -1.86425890421556     -0.65642531548054      0.15223789747977
