11
Coordinates from ORCA-job run
  C   0.65274261940477      0.00083632071307     -0.06070013364594
  C   -0.48470750779318      0.64729563525203     -0.41835757815565
  H   -0.41999357136827      1.58034671054296     -0.96841239852694
  N   0.69478727122949     -1.31250562659006      0.46235329534795
  H   -0.14230271735631     -1.84000242518535      0.26375263281723
  H   0.95564154597237     -1.37339503077825      1.43636783252493
  C   1.91339015298733      0.63471849906156     -0.29441008089427
  N   2.95144813337316      1.16732038945181     -0.44784852976225
  N   -1.75833353901563      0.12124957473670     -0.24006842041637
  H   -2.49805980085168      0.79765925156585     -0.33689399064756
  H   -1.86361258658205     -0.42352329877034      0.60421737135886
