11
Coordinates from ORCA-job run
  C   0.54090055584967      0.06205918406876     -0.04707497144719
  C   -0.59050365522455      0.79934335671730      0.08867414987828
  H   -0.53271307208390      1.88186306914394      0.15540501152017
  N   0.42045465615421     -1.36475664451651     -0.14015695623204
  H   1.06489713884803     -1.81892307146349      0.49554053032188
  H   0.63547076024618     -1.68563831806931     -1.07744544254760
  C   1.81794949198725      0.69723780535554     -0.11380882360884
  N   2.89389205718308      1.17452653030246     -0.16115710719428
  N   -1.84222840300007      0.25154387036090      0.06298993748447
  H   -2.56769931929786      0.75442367181674      0.54497003598944
  H   -1.84142021066203     -0.75067945371634      0.19306363583568
