11
Coordinates from ORCA-job run
  C   0.54013099982572     -0.02050785491305      0.08307739578399
  C   -0.55207234078708      0.69303542694906      0.45782873405452
  H   -0.44676307537398      1.54252453835307      1.12631923637824
  N   0.35730738737026     -1.14032116692388     -0.79524334915430
  H   1.01532560312268     -1.10182785151602     -1.56410786463520
  H   0.50872528681924     -2.01378904374188     -0.30393363584094
  C   1.83722554941374      0.33065558907669      0.56573110335224
  N   2.92780864403309      0.59095861641070      0.92688192747559
  N   -1.82468393731316      0.34636077522214      0.09973576096292
  H   -2.50474921755099      1.08658553670518      0.06669479774197
  H   -1.85725489955952     -0.31467456562202     -0.66398410611903
