11
Coordinates from ORCA-job run
  C   0.49876895834317     -0.33317460346067     -0.14435894672993
  C   -0.74430196585354      0.01475236871206      0.27458555135946
  H   -1.37972852376941     -0.78833527080159      0.70976385311212
  N   1.02580077509665     -1.66147059465020     -0.13209916159559
  H   1.39274423319042     -1.90058402790200      0.77766971347133
  H   0.33544605051052     -2.34648168582131     -0.41011698934605
  C   1.34572848793807      0.72501940420502     -0.59205038859072
  N   1.93038252900467      1.72611713372190     -0.80757068141578
  N   -1.24140772158211      1.30675451752912      0.33056015586098
  H   -0.91303638127886      1.92413171091625     -0.39414034395314
  H   -2.24839644159959      1.33227104755142      0.38575723782733
