11
Coordinates from ORCA-job run
  C   0.53912217063711     -0.00889054804384      0.08996606007434
  C   -0.55353209885265      0.75493800215888      0.34472674802487
  H   -0.45082545425407      1.69577539725092      0.87758288532947
  N   0.35877170905697     -1.24843613056192     -0.61078458968664
  H   0.51341993058458     -2.03787555649245      0.00606783186044
  H   1.01781714127934     -1.32335258506558     -1.37616893690290
  C   1.83431500538034      0.40942919342033      0.52088567401347
  N   2.92361924286468      0.71901752435831      0.84551627762800
  N   -1.82474813732805      0.36076708171366      0.03465378398287
  H   -2.50257375765135      1.08869062033018     -0.11424572955697
  H   -1.85538575171690     -0.41006299906847     -0.61820000476695
