11
Coordinates from ORCA-job run
  C   0.54460690472228      0.01302123729334      0.04504836266220
  C   -0.51668678599142      0.84912589353901     -0.08467969714043
  H   -0.36738800606241      1.92491027849262     -0.09309868291059
  N   0.30460765224139     -1.40204735497312      0.04449175276175
  H   0.77790231153872     -1.84330612487447      0.82363656594659
  H   0.65315051167068     -1.82716344334895     -0.80722264725297
  C   1.86843814409397      0.53333307093621      0.16754318128451
  N   2.97648374747997      0.91606971501259      0.28398885022220
  N   -1.79178407277292      0.40475031572253     -0.29459322489976
  H   -1.91095398184259     -0.57753874697171     -0.08906334627919
  H   -2.53837642507767      1.00884515917195      0.00394888560570
