11
Coordinates from ORCA-job run
  C   0.53889906847207      0.01161183143185      0.08679515745865
  C   -0.57108374075928      0.76433799396613      0.29388188874129
  H   -0.48910342946400      1.74314316597131      0.75748777871021
  N   0.38637248275143     -1.27856686176262     -0.52286357028903
  H   0.56210233169825     -2.01804348424748      0.14799095020365
  H   1.04389348851333     -1.39250096773871     -1.28466556468982
  C   1.82556612088210      0.48902001135789      0.48060191919394
  N   2.90909053381043      0.84430720032743      0.77620984520935
  N   -1.83358125320104      0.31673074841167      0.02139578826925
  H   -1.84500467358169     -0.49785079198994     -0.57663077853307
  H   -2.52815092912159      1.01581115427246     -0.18020341427442
