11
Coordinates from ORCA-job run
  C   0.46985226166063     -0.31615285821676     -0.06368578955144
  C   -0.85947968071655     -0.04657941179393     -0.02293239368513
  H   -1.56500178094966     -0.87493223895209     -0.00914033018397
  N   1.03886358440441     -1.60418805441957     -0.24325709235607
  H   1.62425176386568     -1.87316965163692      0.53754012202093
  H   0.32416544445182     -2.30402655887620     -0.38944596396418
  C   1.38750287179889      0.78083660291425     -0.03582051061092
  N   2.09629197761563      1.71885973506778      0.03182504856281
  N   -1.43786116829250      1.20785176433663     -0.15250526563588
  H   -2.28320505327375      1.33106578259786      0.38273017038964
  H   -0.79638022056460      1.98043488897895     -0.03530799498579
