11
Coordinates from ORCA-job run
  C   0.52746793934184     -0.02273007607473      0.14012678428821
  C   -0.63030343105511      0.57936697608456      0.51314099897246
  H   -0.63746110789386      1.28765808895281      1.33651638166408
  N   0.49249065529760     -0.95764296399965     -0.94818832776268
  H   0.63523999532937     -1.90448429461314     -0.61521041003514
  H   1.22552530895488     -0.75365038116598     -1.61662584044408
  C   1.74748738750427      0.25896178045772      0.82617876997861
  N   2.78048074267453      0.46816220149106      1.35240093341329
  N   -1.83919401870644      0.27728623887199     -0.04823572325490
  H   -2.54347857485506      0.99482573647118     -0.02219909956502
  H   -1.75825489659201     -0.22775330647582     -0.91990446725482
