11
Coordinates from ORCA-job run
  C   0.47725687483955     -0.31884462468617      0.03504247419163
  C   -0.84729867388425     -0.03765613282996     -0.06349753298836
  H   -1.55892390154121     -0.85982924198086     -0.09096621252657
  N   1.03355663900664     -1.61456269347567      0.21651130445982
  H   0.30904328466378     -2.29952910770308      0.38555700193423
  H   1.58301288877797     -1.90335466545070     -0.58392848997240
  C   1.39931606960478      0.77358579287833      0.05651494114112
  N   2.10370747443759      1.71735057140311      0.04732826225087
  N   -1.40628518389825      1.22058305846039     -0.21266610985757
  H   -2.30948063036284      1.33321305888647      0.21925880158585
  H   -0.78390484164377      1.99004398449814     -0.00815444021862
