11
Coordinates from ORCA-job run
  C   0.47159093545628     -0.31442200678333     -0.08149795274054
  C   -0.82596191186900     -0.04336598693798      0.21062008083060
  H   -1.49637274901318     -0.86814364039989      0.44137938099032
  N   1.02954989122294     -1.61347617901500     -0.22763328440800
  H   1.73789972941601     -1.79929860791031      0.47190073492124
  H   0.31296135837075     -2.32493436089721     -0.17162953047939
  C   1.34332275840335      0.78154866690559     -0.36901140355202
  N   2.01166453920383      1.72895159501348     -0.57532268274936
  N   -1.39130355343203      1.21668085169969      0.32535517382604
  H   -0.83757850789194      1.96650580478364     -0.06518475127527
  H   -2.35677248986700      1.26895386354132      0.04202423463637
