11
Coordinates from ORCA-job run
  C   0.46290163739998     -0.33026862545614     -0.06632973380943
  C   -0.82467946247390     -0.00893585963613      0.21896028979372
  H   -1.51320122888225     -0.80126907302308      0.50381824297296
  N   0.98675520722373     -1.64970095301883     -0.13631838945740
  H   0.25291447245077     -2.33798241115886     -0.03453960206636
  H   1.69471898237144     -1.81127520996984      0.56942213102609
  C   1.35975076357940      0.72292606524579     -0.42675827576822
  N   2.05224331952469      1.63664597205673     -0.69611858363354
  N   -1.35775839683982      1.26937079299919      0.26139541702612
  H   -0.78932977968539      1.98096645315495     -0.17671120477622
  H   -2.32431551466864      1.32852284880621     -0.01682029130773
