11
Coordinates from ORCA-job run
  C   0.43149369674692     -0.34651355842614     -0.13770029575593
  C   -0.80185323623535     -0.00001487087605      0.30992358516256
  H   -1.40022535219764     -0.74451912078274      0.83090347555322
  N   0.96916373102843     -1.66006049171324     -0.12074610015673
  H   1.80528117761597     -1.72298299819844      0.44634291483814
  H   0.28723408355130     -2.33326317203727      0.20059992118081
  C   1.23022197482897      0.65296284219551     -0.77771137980531
  N   1.86145039179804      1.52380781765495     -1.25746453320817
  N   -1.45986920449136      1.19079191806508      0.03822655976153
  H   -2.05779902658060      1.51144095707717      0.78377752502837
  H   -0.86409823606468      1.92735067704117     -0.31515167259848
