11
Coordinates from ORCA-job run
  C   0.53955073645281      0.01191205100071     -0.08569204681695
  C   -0.56838855564098      0.77395701974434     -0.27035408618843
  H   -0.49110009715274      1.74174448743809     -0.75748052912358
  N   0.39532013734888     -1.25775065512088      0.56748377888936
  H   0.85771829462230     -1.98598931733365      0.03664247667567
  H   0.81350215760371     -1.23892996454031      1.49078207472330
  C   1.81935137952580      0.47462175214017     -0.51732349027369
  N   2.89387323896603      0.80885325577689     -0.86588871460641
  N   -1.79996060274896      0.42270237892986      0.20583989039425
  H   -2.59857280031493      0.79779314681725     -0.27666356855260
  H   -1.86329388866191     -0.54991415485247      0.47265421487908
