11
Coordinates from ORCA-job run
  C   0.45873153564791     -0.33791316446178      0.03465328403866
  C   -0.85287439873804      0.00359104176060      0.10436154871787
  H   -1.59735626049900     -0.78498329441995      0.19106545334534
  N   0.97371221264774     -1.64794982744165      0.21643811058484
  H   0.24349985221789     -2.29793278206442      0.47311279757825
  H   1.45750922617858     -1.98577011581030     -0.60619035343070
  C   1.42526394067677      0.70404307444993     -0.12736011678064
  N   2.17249827529715      1.59731952043857     -0.30222502294615
  N   -1.35187641416642      1.29186469916574      0.22970704466920
  H   -2.24063297279152      1.43676599002515     -0.22321384197543
  H   -0.68847499647107      2.02296485835812      0.01065109619875
