11
Coordinates from ORCA-job run
  C   0.65474230967958     -0.00560111837291     -0.04380872318784
  C   -0.45677419775276      0.73481134450460     -0.28001083601376
  H   -0.35542479682372      1.76120672137317     -0.61760247508826
  N   0.65000967803064     -1.40061217323041      0.18836175899074
  H   0.88318451205145     -1.67420146868934      1.13239966737569
  H   -0.19634068771086     -1.84633321672883     -0.13336088428790
  C   1.93606377131329      0.62583678845524     -0.11327474486666
  N   2.99055114549584      1.14797705147827     -0.13316029528422
  N   -1.74631242122255      0.21898345719669     -0.24364220379687
  H   -2.46892847791427      0.92000332323197     -0.22530954451413
  H   -1.88977083514665     -0.48207070921846      0.46940828067324
