11
Coordinates from ORCA-job run
  C   0.54452059099726      0.02963484772097      0.03400794322624
  C   -0.56343468511804      0.76146015480628      0.31529385641386
  H   -0.46960906767047      1.73908686955234      0.77901005215978
  N   0.37722115943244     -1.25298811482985     -0.58777993600184
  H   0.92086291980036     -1.95733055616722     -0.10384995189845
  H   0.69230086705855     -1.23031775040080     -1.55112902738953
  C   1.84558968006982      0.53430143463467      0.33533308462600
  N   2.93876256477154      0.90147573777517      0.57613122988697
  N   -1.82362372458546      0.36597422852616     -0.03608559717249
  H   -2.58242424361959      0.72163519636717      0.51992773247996
  H   -1.88016606113640     -0.61293204798487     -0.28085938633050
