11
Coordinates from ORCA-job run
  C   0.47265557540991     -0.32358265816966      0.01476689661614
  C   -0.85256229260300     -0.03003769754360     -0.00603367770184
  H   -1.57263481581384     -0.84370504841980      0.04371701070253
  N   1.02674882918313     -1.61766485789472      0.21044697978417
  H   0.30515211858278     -2.29373467964358      0.42226187694602
  H   1.54824833940340     -1.93033715787513     -0.59915144877507
  C   1.40529084457856      0.75689454317860     -0.06432937970006
  N   2.11837729468835      1.68978248520536     -0.15417071745495
  N   -1.40763691847492      1.22963992481488     -0.16599296181146
  H   -0.76447219189540      1.99661911901245     -0.02554426918003
  H   -2.27716678305897      1.36812602733520      0.32402969057454
