11
Coordinates from ORCA-job run
  C   0.51266461901873     -0.01068936705683      0.18837327303065
  C   -0.67802956628643      0.59527630225291      0.42758943494548
  H   -0.76447695430988      1.34038529165523      1.21308795000673
  N   0.58224294473318     -0.99466645846171     -0.85400127266334
  H   1.37120468477602     -0.81345500515606     -1.46299697377929
  H   0.70060640049668     -1.92390876283379     -0.46632131685002
  C   1.66441746411504      0.31552571786370      0.96664744151193
  N   2.64506053794914      0.55916707540320      1.57221353454784
  N   -1.82948131002571      0.25451145957097     -0.22522578798892
  H   -2.53701737535827      0.96565191584175     -0.29767514759821
  H   -1.66619144510849     -0.28879816907935     -1.06169113516285
