11
Coordinates from ORCA-job run
  C   0.47778385900946     -0.31362233775081      0.00158546062725
  C   -0.84365116701758     -0.04430357139233      0.15369719714131
  H   -1.53975759612008     -0.87261062854078      0.26879379680514
  N   1.07165213200353     -1.59651425181390      0.12900767932241
  H   0.39409587567946     -2.28771873769413      0.42100062119451
  H   1.51755870048624     -1.89716964990858     -0.72857816449817
  C   1.37649106893601      0.78156937865733     -0.19630393094675
  N   2.06237244653223      1.71755225490499     -0.39726710732511
  N   -1.40125422129433      1.21367902949303      0.33089745233397
  H   -0.79200483301119      1.98144204224623      0.08245155956735
  H   -2.32228626520375      1.31669647179895     -0.06528456422191
