11
Coordinates from ORCA-job run
  C   0.53316821328980     -0.03127489415109      0.11313439301866
  C   -0.51934761261604      0.81407400695209      0.25283540777102
  H   -0.39199139422295      1.76579532691516      0.76027382675305
  N   0.32513923274815     -1.27692262353971     -0.56861889303492
  H   0.70743999151534     -2.04476291829502     -0.02987561875323
  H   0.78680568540348     -1.27600738222917     -1.47121235855654
  C   1.82013401807966      0.31989511549822      0.62242422604924
  N   2.89685258271762      0.55864172988748      1.03641981290420
  N   -1.74787544046842      0.56821735336523     -0.29311192249750
  H   -1.87157608906693     -0.39310458460135     -0.57920042962320
  H   -2.53874918737971      0.99544887019816      0.15793155596920
