11
Coordinates from ORCA-job run
  C   0.64817092873419     -0.02093146326137      0.10204334632714
  C   -0.48011347568903      0.69278582745464      0.34125377369942
  H   -0.43864904126217      1.55559837295943      0.99795444826645
  N   0.76376932901539     -1.02211340924504     -0.89014412353512
  H   0.05214434707966     -0.95101853100823     -1.60220298140355
  H   0.84797286398957     -1.96422280835957     -0.53540898827241
  C   1.83693863516447      0.29725199427458      0.83055245667460
  N   2.80640846633846      0.52907096847432      1.45592197040878
  N   -1.68623944530979      0.47012270642307     -0.31136606648172
  H   -1.87136731034266     -0.50194795261202     -0.51475084300947
  H   -2.47703529771808      0.91440429490020      0.12614700732588
