11
Coordinates from ORCA-job run
  C   0.64509132113656     -0.02065070861395      0.11822075137894
  C   -0.50813386586720      0.62354553181623      0.42553736252914
  H   -0.47758679773012      1.50797204788868      1.05352111218962
  N   0.70919694595904     -1.28836372961370     -0.50563342773888
  H   -0.15226890982961     -1.80770709800735     -0.42465483253650
  H   1.05519383176695     -1.27753177742532     -1.45457836515292
  C   1.89083546412286      0.55944037034335      0.51399028821936
  N   2.91949333436087      1.05172122723384      0.80419499768374
  N   -1.76922827778678      0.14610786881561      0.09078054622981
  H   -2.50359290664729      0.82930357971815      0.18127870613610
  H   -1.80800013948526     -0.32383731215554     -0.80265713893842
