16

C	-0.17514	0.058399	-1.45709
C	0.026031	-0.055176	0.058078
F	-1.53828	0.364101	-1.710913
H	1.111046	-0.125361	0.178762
N	0.676018	1.0525	-1.947054
H	1.663039	0.880049	-1.500613
H	0.756825	0.993232	-2.957048
C	-0.009768	-1.282348	-2.095419
N	0.14443	-2.312604	-2.640308
C	-0.706334	-1.240325	0.688552
H	-1.772028	-1.205709	0.451789
H	-0.291758	-2.179661	0.317783
H	-0.589681	-1.21845	1.774144
C	-0.414806	1.192063	0.679923
N	-0.799714	2.13407	1.2666
H	2.812558	0.407341	-0.760742
