16

C	-0.174453	0.053185	-1.458214
C	0.025622	-0.052507	0.057299
F	-1.536986	0.354704	-1.716988
H	1.117788	-0.116555	0.177226
N	0.675047	1.047904	-1.952038
H	1.658975	0.879055	-1.504714
H	0.756959	0.984295	-2.96162
C	-0.003906	-1.289845	-2.090141
N	0.152547	-2.323144	-2.628532
C	-0.699856	-1.238741	0.693173
H	-0.279029	-2.177378	0.327721
H	-0.584012	-1.210493	1.778701
H	-1.765734	-1.212367	0.455763
C	-0.420521	1.195349	0.673327
N	-0.809006	2.138868	1.2553
H	2.809463	0.399927	-0.74865
