7
Coordinates from ORCA-job run
  C   0.13686823749136     -0.46686756942756      0.09031939857172
  C   -1.04041325453303      0.14115414211268     -0.12242372827699
  H   0.19454944275922     -1.53583823072571      0.27017811223750
  H   -1.96193842346318     -0.42878991950879     -0.11778814914341
  H   -1.10368999106096      1.20804210470641     -0.30325774170469
  C   1.37628274729793      0.25125731500259      0.09031791594651
  N   2.39834124150864      0.83204215784038      0.09165419236936
