7
Coordinates from ORCA-job run
  C   0.13479649005035     -0.46271583492842      0.11314383491829
  C   -1.04060890651077      0.14150648684642     -0.11977357474117
  H   0.18707456969119     -1.52029993484243      0.35212307614468
  H   -1.96593545571646     -0.42034329639051     -0.07355784827076
  H   -1.09860553829355      1.19735404368493     -0.35812647736531
  C   1.37878561101219      0.24571664635942      0.06323179960650
  N   2.40449322976704      0.81878188927059      0.02495918970778
