7
Coordinates from ORCA-job run
  C   0.14359665559742     -0.47315635789903      0.00371281377864
  C   -1.04473043379788      0.14536632021493     -0.07569544528162
  H   0.21658869101979     -1.55621290499988     -0.00700176281689
  H   -1.12382319949458      1.22651034046376     -0.06503512875277
  H   -1.95947806884514     -0.43031622096034     -0.15178460844846
  C   1.37522440490034      0.25113892522962      0.10589093104134
  N   2.39162195062005      0.83566989795095      0.18991320047975
