7
Coordinates from ORCA-job run
  C   0.12723168816045     -0.46036034229889      0.12538800254396
  C   -1.03773514819058      0.15165574823526     -0.13751537065346
  H   0.16354811716601     -1.51285822958349      0.38862529499190
  H   -1.96960344448214     -0.39906207964904     -0.09151077783549
  H   -1.08038203874763      1.20207242617597     -0.40069923107926
  C   1.38069902855897      0.23130126615485      0.07621462972562
  N   2.41524179753492      0.78825121096533      0.03849745230672
