7
Coordinates from ORCA-job run
  C   0.15458872314637     -0.26042090470207      0.39124408658878
  C   -1.04820047672340      0.11892844791327     -0.06723185199956
  H   0.25196888480244     -0.84635399163426      1.29987341942417
  H   -1.15090731043280      0.70386796706174     -0.97407012731291
  H   -1.95088793029749     -0.15552536101913      0.46546777077568
  C   1.37058958267926      0.08246655297762     -0.28407944881359
  N   2.37384852682562      0.35803728940282     -0.83120384866258
