14

C	-0.509877	-0.015561	-1.412263
C	0.0	0.0	0.0
Br	0.299983	1.334952	-2.543447
H	1.08841	0.0	0.0
H	-0.266831	-0.91776	0.520773
C	-0.218446	-1.315633	-2.011197
N	0.005026	-2.36831	-2.484251
N	-2.0681	0.112087	-1.463702
O	-2.595247	0.893073	-2.232223
O	-2.634474	-0.66325	-0.703311
N	-0.507692	1.105534	0.776448
O	-1.084265	2.041007	0.198936
O	-0.25787	1.071624	1.986282
H	2.480595	0.0	0.0
