14

C	-0.538112	0.111934	-1.383784
C	0.0	0.0	0.0
Br	-2.503474	0.420374	-1.447046
H	1.107768	0.0	0.0
H	-0.233378	0.896687	0.572311
C	0.071371	1.245706	-2.072903
N	0.529246	2.162905	-2.648956
N	-0.193211	-1.127992	-2.261506
O	-1.048885	-1.591444	-2.994047
O	0.975711	-1.463099	-2.17604
N	-0.504592	-1.13297	0.708798
O	-0.481907	-1.07282	1.949633
O	-0.813139	-2.152822	0.060769
H	2.383323	0.0	0.0
