16

C	-0.451207	-0.013205	-1.435388
C	0.0	0.0	0.0
F	-1.847323	0.117614	-1.517167
H	1.089782	0.0	0.0
H	-0.206603	-1.005086	-1.818543
C	0.204116	1.05656	-2.273019
H	-0.032087	0.885456	-3.326235
H	-0.149783	2.044491	-1.981759
H	1.285382	1.011366	-2.115529
N	-0.383989	-1.20307	0.747861
O	-0.811164	-2.181098	0.120937
O	-0.100656	-1.208069	1.947331
N	-0.474681	1.203759	0.703228
O	0.106291	2.247241	0.395053
O	-1.404833	1.12648	1.505778
H	2.503903	0.0	0.0
