16

C	-0.421606	-0.043811	-1.443448
C	0.0	0.0	0.0
F	-1.817097	-0.003063	-1.566704
H	1.089823	0.0	0.0
H	-0.096734	-1.013536	-1.821517
C	0.189804	1.07386	-2.251575
H	-0.244729	2.031506	-1.969915
H	0.006361	0.896728	-3.313951
H	1.264698	1.101092	-2.052246
N	-0.383909	-1.189055	0.766523
O	-0.714459	-2.20508	0.143029
O	-0.185838	-1.144826	1.983292
N	-0.499055	1.213471	0.669248
O	-1.517334	1.151607	1.362323
O	0.140154	2.244541	0.435531
H	2.509957	0.0	0.0
