16

C	-0.479343	0.103793	-1.438458
C	0.0	0.0	0.0
F	-0.059756	-1.05413	-2.095584
H	1.097562	0.0	0.0
H	0.057362	0.943612	-1.886171
C	-1.97565	0.222111	-1.624653
H	-2.477096	-0.65176	-1.205265
H	-2.346639	1.119417	-1.131591
H	-2.202502	0.279073	-2.692552
N	-0.492215	-1.245757	0.623114
O	0.218136	-2.242152	0.496658
O	-1.599045	-1.229595	1.171607
N	-0.35304	1.138011	0.797839
O	-0.545648	2.215145	0.19415
O	-0.208671	1.041333	2.02645
H	2.430696	0.0	0.0
