16

C	-0.441132	-0.045829	-1.437663
C	0.0	0.0	0.0
F	-1.833941	0.102399	-1.539044
H	1.09616	0.0	0.0
H	-0.209022	-1.052433	-1.789222
C	0.238519	0.986257	-2.303469
H	1.314128	0.951034	-2.1117
H	-0.125449	1.984337	-2.066177
H	0.034977	0.76812	-3.355135
N	-0.3931	-1.182336	0.773344
O	-0.057072	-1.186494	1.959591
O	-0.896115	-2.146383	0.181287
N	-0.458884	1.221525	0.679706
O	-1.342842	1.16277	1.534953
O	0.097613	2.259931	0.311085
H	2.489183	0.0	0.0
