16

C	-0.361768	0.025716	-1.459864
C	0.0	0.0	0.0
F	-1.741426	-0.083503	-1.674139
H	1.096614	0.0	0.0
H	0.087119	-0.883726	-1.864827
C	0.196797	1.233591	-2.173519
H	1.258155	1.316654	-1.920817
H	-0.32916	2.135688	-1.868178
H	0.092588	1.104292	-3.253169
N	-0.432687	-1.248693	0.635347
O	-1.054829	-1.227811	1.699224
O	-0.087274	-2.276043	0.042453
N	-0.433439	1.147403	0.799853
O	-1.226041	1.965435	0.312431
O	0.092707	1.257132	1.909613
H	2.471088	0.0	0.0
