17

C	-0.459105	0.045874	-1.459311
C	0.0	0.0	0.0
F	0.329145	0.88606	-2.175322
H	1.094226	0.0	0.0
N	-0.195537	-1.350651	-2.048119
O	-1.076901	-2.190225	-1.882301
O	0.86476	-1.520856	-2.636459
C	-1.909065	0.393987	-1.69202
H	-2.130157	0.326411	-2.75989
H	-2.062526	1.417753	-1.356457
H	-2.558157	-0.287469	-1.144927
C	-0.453105	-1.164947	0.721055
N	-0.746604	-2.145462	1.303229
N	-0.328535	1.198798	0.731772
O	-0.321756	1.122319	1.973699
O	-0.387386	2.268119	0.095485
H	2.332011	0.0	0.0
