17

C	-0.518944	-0.025145	-1.425144
C	0.0	0.0	0.0
F	-1.864615	0.254023	-1.455656
H	1.093308	0.0	0.0
N	0.151238	1.039657	-2.295853
O	-0.541638	1.94785	-2.73441
O	1.335357	0.840995	-2.534339
C	-0.264315	-1.354144	-2.094888
H	-0.884049	-2.114146	-1.618996
H	-0.534714	-1.282277	-3.1507
H	0.79003	-1.615595	-1.996415
C	-0.478205	-1.15324	0.726973
N	-0.825033	-2.152099	1.243706
N	-0.33489	1.229261	0.699169
O	-0.658835	1.167912	1.89318
O	-0.116779	2.275472	0.074612
H	2.385294	0.0	0.0
