17

C	-0.358317	0.002046	-1.477376
C	0.0	0.0	0.0
F	0.111137	-1.176689	-1.979266
H	1.093504	0.0	0.0
N	-1.883641	-0.058589	-1.642259
O	-2.499766	0.876082	-1.138811
O	-2.371323	-0.996275	-2.262745
C	0.171036	1.13457	-2.312547
H	1.238695	1.221171	-2.100795
H	0.010844	0.87448	-3.362574
H	-0.325403	2.067661	-2.066065
C	-0.506627	-1.190488	0.647323
N	-0.832868	-2.191762	1.170915
N	-0.343363	1.200261	0.749398
O	-0.810417	1.070885	1.888379
O	0.012026	2.276398	0.256148
H	2.409427	0.0	0.0
