17

C	-0.498263	-0.135035	-1.427223
C	0.0	0.0	0.0
F	-1.868912	-0.236034	-1.465538
H	1.093559	0.0	0.0
N	-0.144446	1.079614	-2.284335
O	-1.065864	1.687534	-2.813122
O	1.052173	1.28848	-2.432564
C	0.133237	-1.33485	-2.093028
H	-0.24773	-2.244048	-1.628304
H	1.217623	-1.278133	-1.955738
H	-0.124879	-1.343604	-3.156213
C	-0.401658	-1.166431	0.75643
N	-0.640158	-2.170132	1.321114
N	-0.402705	1.216373	0.681578
O	-0.487595	1.175487	1.916591
O	-0.480386	2.2488	0.000523
H	2.390598	0.0	0.0
