17

C	-0.426765	0.094771	-1.468106
C	0.0	0.0	0.0
F	0.283683	1.054925	-2.104467
H	1.091648	0.0	0.0
N	-0.020865	-1.224797	-2.153192
O	-0.681781	-2.213153	-1.844842
O	0.891665	-1.189419	-2.967423
C	-1.902389	0.296962	-1.716323
H	-2.089514	0.309761	-2.793413
H	-2.475743	-0.50555	-1.255434
H	-2.184542	1.259447	-1.292845
C	-0.453382	-1.183832	0.689887
N	-0.732522	-2.155707	1.292186
N	-0.364795	1.174453	0.767075
O	-0.475303	2.258403	0.16508
O	-0.357234	1.060997	2.003927
H	2.349607	0.0	0.0
