17

C	-0.29196	0.191612	-1.481707
C	0.0	0.0	0.0
F	0.108336	-0.960862	-2.095487
H	1.107373	0.0	0.0
N	-1.808315	0.2675	-1.696815
O	-2.380985	-0.70105	-2.181262
O	-2.339001	1.313206	-1.329502
C	0.3788	1.360323	-2.148277
H	0.257624	1.245621	-3.228902
H	1.435472	1.313025	-1.874144
H	-0.042848	2.3012	-1.812418
C	-0.544126	-1.242927	0.493119
N	-0.904109	-2.292794	0.884269
N	-0.35707	1.122931	0.854528
O	-0.998748	0.907249	1.891073
O	0.124238	2.218033	0.543326
H	2.396178	0.0	0.0
