15
Coordinates from ORCA-job run
  C   -0.70080432030370     -0.03424177288253      0.29782103054358
  C   0.73165768159625      0.50393280218581      0.28901063707605
  Cl  -1.25250253146820     -0.26270213442043      1.92295829370919
  H   0.74927944864583      1.42075766331687      0.87953554686079
  N   -1.62796047148276      0.97139942859149     -0.39635368153741
  O   -1.18772827817936      2.10383174159512     -0.54033131172412
  O   -2.72987400822872      0.54367883735691     -0.69487585871877
  N   -0.83362085532507     -1.31882565118995     -0.54289123171871
  O   -0.60654100874360     -1.12473961050066     -1.72815568393050
  O   -1.14174207908773     -2.35147886213615      0.01781886292970
  C   1.29569529845567      0.74415399891368     -1.03090347681157
  N   1.82669066375515      0.98066494359886     -2.05201987088546
  N   1.61698750301070     -0.49033289452758      1.02121994367023
  O   2.16147719167823     -0.08150113221614      2.03753254271720
  O   1.69898576567730     -1.60359735768529      0.51763425781982
