15
Coordinates from ORCA-job run
  C   -0.66309733231812      0.22895300342668     -0.39825822193493
  C   0.78499115949120      0.55284890094458     -0.02897836512142
  Cl  -1.16758769391119      1.24663102625787     -1.71611309093725
  H   0.79868541729086      1.60341086260471      0.28110021278513
  N   -0.82964280288777     -1.24319645806256     -0.77129764740327
  O   -1.81874005482931     -1.54173366553026     -1.41587717604194
  O   0.04903978509567     -1.98372081372873     -0.34402758552579
  N   -1.59461353818601      0.50838189398221      0.80069099447365
  O   -1.50061642423142      1.63950283938965      1.24397572637860
  O   -2.32433779908364     -0.39671048044501      1.16080546248624
  C   1.66792374756497      0.33580987184100     -1.16382128871290
  N   2.35788236065648      0.18989061262911     -2.10319326499105
  N   1.29212518464801     -0.22003772015100      1.18898806474629
  O   2.46537406166901     -0.54774877251365      1.17656357913374
  O   0.48161392903125     -0.37028110064461      2.09044260066490
