15
Coordinates from ORCA-job run
  C   -0.65855856586005      0.25365692393380     -0.38989203474593
  C   0.79807959817292      0.52951780646281     -0.01695013745983
  Cl  -1.13987739710822      1.32074448999777     -1.67735627128632
  H   0.83958499763498      1.57069233745421      0.32118072160667
  N   -0.86665813089824     -1.20167008954633     -0.80373247020752
  O   0.00056422807280     -1.97669603864217     -0.41557987171706
  O   -1.87311236715073     -1.45624228247465     -1.44048725555083
  N   -1.57753598449557      0.52738499400089      0.82074757569889
  O   -2.33993570899433     -0.36047516205742      1.15374682643757
  O   -1.43903322888756      1.63847017704224      1.30096213075602
  C   1.67408002990797      0.32355510571481     -1.15897614210356
  N   2.35841644420623      0.19985410037542     -2.10575071092115
  N   1.28965014209199     -0.28613939031726      1.17900215279202
  O   0.46585489610177     -0.48661713908576      2.05789532666472
  O   2.46848104720604     -0.59503583285836      1.17419016003631
