16

C	-0.103218	0.122811	0.007622
C	-0.54018	0.115723	-1.44714
F	1.254811	0.44891	0.118763
H	-1.607768	-0.133443	-1.407441
H	-0.650393	0.948116	0.486583
N	-0.350703	-1.155337	0.586726
H	-1.398532	-1.197115	0.566111
H	-0.106116	-1.090242	1.571583
N	0.138836	-0.998805	-2.172295
O	1.317776	-0.831824	-2.493729
O	-0.513227	-2.010375	-2.420352
C	-0.260014	1.426463	-2.152675
H	-0.548334	1.373483	-3.205488
H	-0.851564	2.211291	-1.675383
H	0.797862	1.677802	-2.086358
H	-2.988762	-0.443236	0.375569
