16

C	-0.088224	0.080623	-0.083652
C	-0.179697	0.047977	-1.612381
F	1.29721	0.147983	0.210628
H	0.200436	-0.914463	-1.961941
H	-0.531245	1.00707	0.290182
N	-0.686964	-1.017713	0.547895
H	-1.739872	-0.887158	0.637882
H	-0.53311	-1.869785	0.019486
N	0.761206	1.050554	-2.20481
O	0.591197	2.23208	-1.907669
O	1.649723	0.639192	-2.952947
C	-1.591831	0.329058	-2.087628
H	-1.82162	1.384319	-1.929763
H	-2.306859	-0.245134	-1.484669
H	-1.703336	0.092398	-3.149337
H	-3.306617	-0.735547	0.479525
