16

C	-0.047233	0.009542	-0.076791
C	-0.227749	-0.002273	-1.597863
F	1.341621	-0.176976	0.140103
H	-0.049021	-1.016905	-1.960551
H	-0.293367	0.999951	0.314054
N	-0.799806	-0.963055	0.595123
H	-1.803562	-0.641287	0.744131
H	-0.834219	-1.827275	0.065257
N	0.844531	0.814412	-2.248989
O	0.909209	2.006084	-1.950836
O	1.599916	0.250857	-3.042871
C	-1.590045	0.531304	-1.996295
H	-1.803148	0.320232	-3.047806
H	-2.36183	0.09623	-1.348647
H	-1.615378	1.610659	-1.83581
H	-3.32162	-0.20082	0.677465
