15

C	0.0	0.0	0.0
C	-0.533387	-0.063221	-1.446389
Cl	1.776362	0.0	0.0
H	-1.614822	-0.237956	-1.318559
N	-0.515578	1.192276	0.614535
H	-1.541876	1.097334	0.600909
H	-0.211919	1.232202	1.581528
C	-0.362563	-1.250252	0.705508
N	-0.581732	-2.230575	1.316139
C	0.041716	-1.206784	-2.16344
N	0.466432	-2.113187	-2.777437
N	-0.228719	1.183194	-2.1483
H	-0.984001	1.352127	-2.803773
H	-0.276151	1.91816	-1.44795
Br	-3.680943	0.0	0.0
