15

C	0.0	0.0	0.0
C	-0.514767	0.211347	-1.441588
Cl	1.776359	0.0	0.0
H	-1.60109	0.040087	-1.365198
N	-0.527711	1.054296	0.8189
H	-1.553367	0.949973	0.781179
H	-0.228527	0.918087	1.778634
C	-0.363557	-1.362256	0.450763
N	-0.602869	-2.447942	0.832744
C	0.050172	-0.793443	-2.349121
N	0.464641	-1.582853	-3.113532
N	-0.164878	1.557681	-1.895474
H	-0.850909	1.830146	-2.591302
H	-0.297734	2.164095	-1.090803
Br	-3.674815	0.0	0.0
