15

C	0.0	0.0	0.0
C	-0.48123	0.339745	-1.430129
Cl	1.824539	0.0	0.0
H	-1.576765	0.239639	-1.343693
N	-0.485979	0.906421	0.984498
H	-0.41011	1.833827	0.569554
H	-1.487078	0.703784	1.089247
C	-0.364757	-1.382681	0.337044
N	-0.575674	-2.502164	0.623787
C	0.015832	-0.608183	-2.433998
N	0.42604	-1.296229	-3.293916
N	-0.159291	1.726063	-1.728449
H	-0.854423	2.106137	-2.355859
H	0.754105	1.799686	-2.158329
Br	-3.647828	0.0	0.0
