15

C	0.0	0.0	0.0
C	-0.479177	0.151968	-1.461816
Cl	1.818836	0.0	0.0
H	0.206259	-0.41812	-2.09612
N	-0.600849	0.969953	0.818171
H	-0.502408	0.799903	1.808093
H	-0.360665	1.919193	0.566148
C	-0.353958	-1.342201	0.489446
N	-0.523175	-2.404744	0.960043
C	-0.321405	1.579251	-1.847347
N	-0.242902	2.698698	-2.197867
N	-1.792961	-0.409483	-1.56354
H	-2.49672	-0.019399	-0.924786
H	-2.159887	-0.354649	-2.504391
Br	-4.728728	0.0	0.0
