15

C	0.0	0.0	0.0
C	-0.503951	-0.015393	-1.46413
Cl	1.793797	0.0	0.0
H	-1.595182	-0.115575	-1.343647
N	-0.496634	1.114346	0.742616
H	-0.420341	1.916121	0.121953
H	-1.49897	0.938768	0.875127
C	-0.378363	-1.264384	0.653686
N	-0.585551	-2.302445	1.162291
C	0.00476	-1.159848	-2.229119
N	0.416325	-2.025329	-2.910436
N	-0.214767	1.269417	-2.083619
H	-0.947744	1.498657	-2.741048
H	0.673671	1.247223	-2.567605
Br	-3.656581	0.0	0.0
