15

C	0.0	0.0	0.0
C	-0.325507	0.126137	-1.559961
Cl	1.797957	0.0	0.0
H	0.4104	-0.506802	-2.066183
N	-0.562631	0.967773	0.876149
H	-1.571869	0.805019	0.937374
H	-0.400208	1.900551	0.510656
C	-0.406219	-1.352184	0.405427
N	-0.668216	-2.468977	0.657744
C	-0.033089	1.520934	-1.92418
N	0.190752	2.650473	-2.151625
N	-1.628012	-0.242674	-2.029014
H	-2.383258	0.218762	-1.516597
H	-1.774755	-1.233457	-1.874016
Br	-4.135945	0.0	0.0
