15

C	0.0	0.0	0.0
C	-0.2435	-0.182318	-1.547274
Cl	1.789491	0.0	0.0
H	0.450738	0.553287	-1.982456
N	-0.494871	1.198238	0.590876
H	-0.306191	1.977905	-0.030969
H	-1.515228	1.075528	0.654269
C	-0.419011	-1.179476	0.767567
N	-0.614498	-2.13095	1.427059
C	-1.520088	0.201574	-2.173792
N	-2.194034	0.542832	-3.0789
N	0.085187	-1.549787	-1.939366
H	-0.424805	-1.812429	-2.772874
H	1.078533	-1.628883	-2.114879
Br	-3.55602	0.0	0.0
