15

C	0.0	0.0	0.0
C	-0.426101	-0.053637	-1.511507
Cl	1.815622	0.0	0.0
H	0.21918	-0.801572	-1.984162
N	-0.607568	1.082464	0.646293
H	-0.314665	1.983461	0.294576
H	-0.612076	1.038478	1.65375
C	-0.390318	-1.266133	0.630059
N	-0.636065	-2.311162	1.106937
C	-0.072489	1.254863	-2.091465
N	0.214525	2.312927	-2.511738
N	-1.793267	-0.369316	-1.781151
H	-2.47046	0.154628	-1.218728
H	-1.982615	-1.34596	-1.590032
Br	-4.593363	0.0	0.0
