15

C	0.0	0.0	0.0
C	-0.624001	0.357281	-1.355886
Cl	1.849002	0.0	0.0
H	-1.698284	0.122502	-1.182469
N	-0.514354	0.876025	0.952549
H	-0.135352	0.763113	1.878966
H	-0.519667	1.826504	0.609478
C	-0.309768	-1.400324	0.334049
N	-0.485636	-2.534001	0.58522
C	-0.093594	-0.475217	-2.437759
N	0.328014	-1.085319	-3.349844
N	-0.507245	1.786035	-1.599477
H	0.264167	1.995278	-2.21923
H	-1.373516	2.123278	-1.999521
Br	-3.833799	0.0	0.0
