20

C	-0.39865	0.054392	-1.475838
C	0.0	0.0	0.0
Cl	-2.158106	0.33063	-1.684066
H	1.096132	0.0	0.0
C	0.369823	1.096676	-2.263287
H	1.434082	0.989623	-2.044466
H	0.186954	0.976226	-3.333647
H	0.032386	2.089359	-1.96739
N	-0.084914	-1.316522	-2.08458
O	-0.97576	-2.151506	-2.200769
O	1.099511	-1.490239	-2.353605
C	-0.495597	-1.253754	0.710308
H	-0.052879	-2.158331	0.289628
H	-0.192562	-1.206503	1.759127
H	-1.585577	-1.342582	0.663625
C	-0.429325	1.258948	0.749714
H	0.012005	1.227388	1.748532
H	-1.515952	1.325242	0.85009
H	-0.061704	2.16722	0.268386
Br	3.633029	0.0	0.0
