20

C	-0.363317	-0.117966	-1.488187
C	0.0	0.0	0.0
Cl	-0.261413	1.453082	-2.335409
H	1.096441	0.0	0.0
C	0.532782	-1.092462	-2.220661
H	1.559027	-0.732282	-2.116694
H	0.252748	-1.158337	-3.273179
H	0.46963	-2.083993	-1.77621
N	-1.825583	-0.555906	-1.586384
O	-2.692975	0.254536	-1.273279
O	-2.039744	-1.73026	-1.884538
C	-0.462938	-1.242398	0.765284
H	0.007312	-1.230213	1.750952
H	-1.549993	-1.249441	0.903701
H	-0.170062	-2.174143	0.279555
C	-0.48825	1.25966	0.704622
H	-1.576694	1.35208	0.671196
H	-0.04364	2.155432	0.272796
H	-0.171552	1.208604	1.749631
Br	3.611206	0.0	0.0
