20

C	-0.393989	0.110392	-1.477734
C	0.0	0.0	0.0
Cl	-2.105269	0.617011	-1.682114
H	1.096147	0.0	0.0
C	0.506322	1.049659	-2.253429
H	0.337375	2.069596	-1.908494
H	1.547416	0.779853	-2.066062
H	0.282936	1.001108	-3.321313
N	-0.27653	-1.287222	-2.094263
O	0.8456	-1.592726	-2.485836
O	-1.2548	-2.028198	-2.093138
C	-0.508581	-1.262542	0.683042
H	-0.049252	-2.159989	0.265073
H	-0.233801	-1.221854	1.739908
H	-1.596185	-1.355302	0.606155
C	-0.419331	1.241142	0.787768
H	0.12048	1.236341	1.737274
H	-0.156529	2.166626	0.272904
H	-1.492772	1.248848	0.992414
Br	3.610302	0.0	0.0
