20

C	-0.533557	-0.01269	-1.435175
C	0.0	0.0	0.0
Cl	0.379713	-1.174717	-2.431082
H	1.09468	0.0	0.0
C	-2.011943	-0.323636	-1.570616
H	-2.607885	0.328035	-0.931715
H	-2.331225	-0.184655	-2.604372
H	-2.180231	-1.362965	-1.290235
N	-0.274439	1.375042	-2.026066
O	-1.241933	2.1385	-2.058923
O	0.866766	1.663649	-2.343327
C	-0.432624	-1.259734	0.74885
H	-1.501238	-1.25505	0.98973
H	-0.197819	-2.16281	0.181607
H	0.129916	-1.311033	1.683853
C	-0.434347	1.252911	0.761481
H	-1.521826	1.376468	0.799074
H	-0.061952	1.171389	1.785527
H	0.007651	2.155101	0.334913
Br	3.628829	0.0	0.0
