18
Coordinates from ORCA-job run
  C   0.81938360659960     -0.38324337808002     -0.49169937157713
  C   -0.56845735932616      0.27211678156540     -0.50839844975114
  F   0.80970828381305     -1.41572096790668     -1.43534650347961
  H   -0.72292050804019      0.57212172210762     -1.55236332868841
  C   1.24233413610973     -0.98639743067651      0.83539651411027
  H   2.21928377744923     -1.45774328197819      0.71885112229037
  H   0.52427882096319     -1.74812313227020      1.13957091245762
  H   1.31367984841778     -0.22285064331397      1.61092913947193
  C   1.83252926740172      0.59176888315197     -0.94331944528550
  N   2.63188968251789      1.38263285332930     -1.28139684499152
  C   -0.62698389032697      1.51934499811889      0.37033013018934
  H   0.13938929738959      2.24996972163282      0.10216460102255
  H   -1.60039813100263      2.00197580289077      0.25648857492303
  H   -0.50963079058807      1.26581387637038      1.42714254313441
  C   -1.66041674552476     -0.72707911888452     -0.13218207742121
  H   -1.56053710571528     -1.65671844025101     -0.69420150654906
  H   -2.64009359798127     -0.29928745031661     -0.35791377755400
  H   -1.64303859215647     -0.95758079548943      0.93594776769808
