18
Coordinates from ORCA-job run
  C   0.84190702667238     -0.22061716608921     -0.26915496733494
  C   -0.45990182906861      0.40716087418945      0.24939555502769
  F   0.63463214754314     -0.64407632195510     -1.58616830969346
  H   -0.22907944212184      0.80712509170440      1.24536049749432
  C   1.32912623993649     -1.42104020589238      0.52277985175279
  H   1.45260086775186     -1.16228305500568      1.57643033956532
  H   2.28712111731763     -1.76051568869771      0.12653455260210
  H   0.60911334306424     -2.23383789879030      0.43130313991819
  C   1.90269750437267      0.80663015434207     -0.30838580816337
  N   2.74359642896532      1.62597823477176     -0.30029264306306
  C   -1.56794283586453     -0.63750939775909      0.37731864285695
  H   -1.71279893521207     -1.15923992772277     -0.57156015605780
  H   -2.50809049647802     -0.14593822471175      0.63694600902806
  H   -1.35995242811385     -1.37605630234469      1.15335169215447
  C   -0.90090378370363      1.56055521461863     -0.65113786085227
  H   -0.13047197577052      2.33009087033844     -0.73541609435195
  H   -1.79903712833217      2.02921840771371     -0.24282588966060
  H   -1.13261582095847      1.19535534129021     -1.65347855122245
