18
Coordinates from ORCA-job run
  C   0.71813989705809     -0.61123902175522     -0.21928151876593
  C   -0.69853215098603     -0.15980337680121      0.14932098791522
  F   0.62417073547330     -1.89002536231574     -0.77695077940750
  H   -1.05267666294339     -0.91691263247490      0.86122789350489
  C   1.67190369373149     -0.70869388824509      0.95802332009060
  H   2.59323109093457     -1.19318253710408      0.63111739906253
  H   1.21240513071327     -1.31468537193884      1.74195392036185
  H   1.91712556198636      0.27549779523432      1.35695432285556
  C   1.28129004454396      0.27553264104639     -1.25687209168079
  N   1.72287565952955      1.01230717912976     -2.05746007714939
  C   -1.61336577624348     -0.16828912785044     -1.07304864102762
  H   -1.32288348664752      0.61123898118494     -1.78297516148563
  H   -2.64452603054980      0.02428678541364     -0.76735131842242
  H   -1.58367784473606     -1.13060799318985     -1.58502113325961
  C   -0.69694778770840      1.20779124688911      0.82829123961229
  H   -0.24892976054760      1.96624445370170      0.17942230504714
  H   -1.72399604741456      1.51674535616122      1.03548828542638
  H   -0.15760626619375      1.20179487291428      1.77716104732244
