18
Coordinates from ORCA-job run
  C   0.71187168415158     -0.61136887893841     -0.23487179831150
  C   -0.69876488950971     -0.15759750706050      0.15288721070406
  F   0.60553664429388     -1.88064101288378     -0.81238830970376
  H   -1.05118981340894     -0.92223775885744      0.85752910430081
  C   1.67510505757440     -0.73331648396550      0.93246300897870
  H   1.21794727391616     -1.34673567221031      1.71196258719441
  H   2.58967038349055     -1.22002685196403      0.59029403864823
  H   1.93180492331498      0.24315991533503      1.34300934003419
  C   1.27261169572965      0.28835174889586     -1.26250727277978
  N   1.72300002492545      1.03192977704579     -2.05184365275862
  C   -1.62458560770877     -0.14377444373443     -1.06102117035415
  H   -2.65092911333699      0.05556774226832     -0.74372383045224
  H   -1.33300555947841      0.64041451626367     -1.76535668337134
  H   -1.60889290815723     -1.10071163441035     -1.58353059663240
  C   -0.68264509610483      1.20037682237223      0.85090417961040
  H   -0.23782450842912      1.96569582527758      0.20794870334256
  H   -0.13297069382371      1.17831743865336      1.79354434390427
  H   -1.70573949743895      1.51159645791290      1.07370079764613
