12
Coordinates from ORCA-job run
  C   -0.73348450416432      0.20414130479188     -0.03483520853171
  C   0.59839507075127      0.34752384610615     -0.01933404439076
  H   -1.31565250301646      1.11794803758624     -0.12340285604473
  C   -1.44989698677441     -1.09837302886081      0.05654989827278
  H   -2.11464170751123     -1.09611265070290      0.92520269969483
  H   -0.76789482087765     -1.94503265392150      0.13616495502698
  H   -2.08232105276687     -1.23574474742924     -0.82527200356988
  C   1.53113662917902     -0.72767255271541      0.09117451885309
  N   2.24224234288698     -1.65987266770781      0.18174382087149
  N   1.20721137748610      1.69808277040877     -0.10892829823054
  O   0.45457751065227      2.65083593140149     -0.25822083300067
  O   2.43032864415531      1.74327641104314     -0.02084264895088
