12
Coordinates from ORCA-job run
  C   -0.27065746605751     -0.71686445662720      0.36523380712345
  C   0.80585792236442      0.03182501136843      0.07610738811996
  H   -0.05280051289294     -1.64973126726310      0.88227397781131
  C   -1.70365659651104     -0.42662292663651      0.06694675800671
  H   -1.83350274293756      0.33508497198238     -0.69752487566112
  H   -2.19951702300044     -0.07057200641773      0.97591041485085
  H   -2.20596776911632     -1.34630828575690     -0.23804239046640
  C   2.14426742925815     -0.36450428306425      0.38024339081037
  N   3.23385700608852     -0.70423900101683      0.66133037294451
  N   0.71395173327184      1.31782168963661     -0.64281232054572
  O   1.60718135993887      1.54908709340717     -1.45207794791025
  O   -0.23901334040599      2.04502346038792     -0.37958857508367
