12
Coordinates from ORCA-job run
  C   -0.71858654041866      0.13896179583802      0.21508390499499
  C   0.57448207317503      0.38427129585982     -0.03497809466506
  H   -1.30535114844091      0.97599239285741      0.58519772891749
  C   -1.38603979206819     -1.17891505733001      0.02522953305908
  H   -1.81359515572173     -1.51732665743265      0.97334841208437
  H   -0.70297820745888     -1.94257897453374     -0.34671251185105
  H   -2.21770587993992     -1.07566484031081     -0.67770714124118
  C   1.50605262242057     -0.58107034133783     -0.52338444957555
  N   2.21837349626526     -1.42635864817962     -0.92431723729882
  N   1.13633613870120      1.73975431488605      0.18490318742080
  O   2.31311723837615      1.89111345980233     -0.12936332169086
  O   0.39489515511009      2.59282125988100      0.65269998984579
