12
Coordinates from ORCA-job run
  C   -0.65200273779254      0.08111431352088     -0.38706627338345
  C   0.55921581374015      0.39777119682976      0.08968341156753
  H   -1.12860068455053      0.82338274084673     -1.02248741571919
  C   -1.36946397037030     -1.19359887528405     -0.10694512816160
  H   -2.33343849037893     -0.98130541285273      0.36419241367370
  H   -0.79924676834845     -1.85954493824147      0.54078498130784
  H   -1.58360229796952     -1.71217144927923     -1.04595379337293
  C   1.34413485329173     -0.44063523842304      0.93779756036996
  N   1.93682801091922     -1.18131520049525      1.63270725660063
  N   1.18256905676272      1.70023383718642     -0.25304313579846
  O   2.28737771446774      1.91288343727691      0.23709954867884
  O   0.55722950022872      2.45318558891506     -0.98676942576287
