12
Coordinates from ORCA-job run
  C   -0.66076100557323      0.10466034954403     -0.36614964596616
  C   0.57142935047611      0.38176961192577      0.08061524562545
  H   -1.13742912094655      0.87115954921918     -0.97196891617201
  C   -1.40109415857435     -1.15786228446905     -0.09045901816415
  H   -2.34460394184365     -0.93173043354206      0.41455561732188
  H   -0.82833395365243     -1.85097539811017      0.52570595853289
  H   -1.65674797188600     -1.65106454199775     -1.03268273284571
  C   1.35959091232751     -0.49212071958731      0.88895053161068
  N   1.95402696000561     -1.25991367130284      1.55231839429015
  N   1.21626928604930      1.67593394811231     -0.25398593860389
  O   0.58403274860285      2.46342198273819     -0.94426932376700
  O   2.34462089501483      1.84672160746972      0.19736982813788
