12
Coordinates from ORCA-job run
  C   -0.73786975448290      0.15580999363332      0.11453916030736
  C   0.57520332404047      0.38375413905474     -0.02188139653557
  H   -1.35857502795521      1.02350235514866      0.32374626463672
  C   -1.38515013044055     -1.18035758839550     -0.00192301078059
  H   -2.14000085612043     -1.15895109402434     -0.79322117533213
  H   -0.66935723422132     -1.97326157914486     -0.21933797655692
  H   -1.90859765382224     -1.42124150354059      0.92778742742365
  C   1.55165668074314     -0.62132894857156     -0.29506907674955
  N   2.30199477551687     -1.49736653085838     -0.52397481761352
  N   1.11625193778210      1.75794728202221      0.12553390016777
  O   0.31605913236177      2.66778692929092      0.29423252415818
  O   2.33738480659833      1.86370654538538      0.06756817687460
