12
Coordinates from ORCA-job run
  C   -0.22673727875109     -0.81155506240279     -0.12607234383764
  C   0.81042883400993      0.02822114404297      0.02806110678314
  H   0.05124451103201     -1.85050458331326     -0.29226983272853
  C   -1.68452138364620     -0.48788226356422     -0.09766263106527
  H   -2.05061093560123     -0.51622268805939      0.93319818834938
  H   -1.90007805564765      0.50793743102992     -0.48149273289548
  H   -2.23836941137729     -1.22972072753774     -0.67383239016213
  C   2.17460665057929     -0.38977167367928     -0.04831962539829
  N   3.28426260686227     -0.77400128359802     -0.10313928605140
  N   0.63549675545978      1.47831451398081      0.23789852805830
  O   1.50856329887678      2.20382122283914     -0.22856391738224
  O   -0.36428559179660      1.84136397026185      0.85019493633017
