12
Coordinates from ORCA-job run
  C   -0.21599932469433     -0.77253079834333     -0.28592648138898
  C   0.80101404863015      0.00109396176031      0.12858453185121
  H   0.07231927780993     -1.77738572755746     -0.58851131066925
  C   -1.66426757440652     -0.41895857006458     -0.37556647923687
  H   -1.82440047757918      0.63249762715270     -0.60832033155860
  H   -2.14993071370800     -1.03868880648008     -1.12982703076218
  H   -2.15215743541979     -0.60820122566495      0.58538595186492
  C   2.16079202770280     -0.43741855463923      0.14735086439025
  N   3.26529501066868     -0.83963904419294      0.16470498995162
  N   0.61415104799570      1.40185143935022      0.55219002727542
  O   -0.44924123967227      1.68877665316145      1.09379341907479
  O   1.54342535267283      2.16860304551789      0.31814184920768
