12
Coordinates from ORCA-job run
  C   -0.71918026456470      0.16528660272501     -0.19056986674241
  C   0.58889232697686      0.36302919138234      0.02015774815164
  H   -1.28578837676699      1.02333866787939     -0.54318415569834
  C   -1.42904456673309     -1.12693851579403      0.02076378145645
  H   -0.76530964944305     -1.91450796798180      0.37753322575355
  H   -1.89266216647338     -1.45148296084230     -0.91538620350475
  H   -2.23873475180721     -0.99169108054345      0.74360809532480
  C   1.49912846249420     -0.63577786551347      0.48029616836785
  N   2.19367664589443     -1.50533812859742      0.86019318589470
  N   1.19343186383943      1.69636551302642     -0.22482513180377
  O   2.39647841579801      1.79007628469415     -0.00143745104411
  O   0.45811206078551      2.58764025956515     -0.62614939615562
