12
Coordinates from ORCA-job run
  C   -0.70173233403462      0.10033044884198      0.28158389589595
  C   0.57970005777755      0.37695161377758      0.00593186492650
  H   -1.24678425112617      0.85358838801545      0.84503581858133
  C   -1.40819976101337     -1.14689758857807     -0.12272834452358
  H   -1.78886196476070     -1.66102562539681      0.76448539411052
  H   -0.76459602531815     -1.82985385781717     -0.67725105426981
  H   -2.27600727742414     -0.89849879316168     -0.74050252882674
  C   1.45991318863998     -0.48048432342707     -0.72060685215216
  N   2.13383267112578     -1.23591028864033     -1.31906705621939
  N   1.18243609279532      1.65721220892470      0.45345432062758
  O   2.33706075402934      1.86288656892928      0.09180795910506
  O   0.49323884930917      2.40070124853215      1.13785658274474
