12
Coordinates from ORCA-job run
  C   -0.74390753743105      0.16611092309398     -0.04053933764303
  C   0.57752123564864      0.37969103542203      0.01309542331026
  H   -1.37266034395384      1.05082552154757     -0.09954964572881
  C   -1.38921989440722     -1.17598410122848     -0.02418719269586
  H   -2.04345963859924     -1.26218060404446      0.84849025270502
  H   -0.66201751832894     -1.98768321745373      0.00007153221863
  H   -2.02320679323763     -1.29409866349676     -0.90749042520165
  C   1.56587990469044     -0.64745237797062      0.09415305567601
  N   2.32729903324073     -1.54108298231954      0.16041525070499
  N   1.11451759601016      1.76326509597208     -0.00946321497214
  O   2.33688972423724      1.86599616708464      0.02554178214919
  O   0.31036423213070      2.68359320339330     -0.06153748052263
