12
Coordinates from ORCA-job run
  C   -0.72312635701269      0.14316115589892     -0.19640430377662
  C   0.57329822495468      0.38522920510144      0.03877871138298
  H   -1.31883053935985      0.98931763106370     -0.52924716990890
  C   -1.38313059572655     -1.18211625333456     -0.03394624538784
  H   -0.69164522862548     -1.95407002101139      0.30364676019351
  H   -1.82550477509798     -1.49495017884989     -0.98417918940804
  H   -2.20367733527991     -1.10194589626137      0.68490135009241
  C   1.51633304025524     -0.59112391868120      0.48115939718114
  N   2.23925741016047     -1.44443342456187      0.84468464466221
  N   1.12885560538280      1.74761074351275     -0.15632153008113
  O   0.36388811743449      2.62372657184455     -0.53507905964774
  O   2.32528243291477      1.87959438527893      0.08300663469802
