12
Coordinates from ORCA-job run
  C   -0.74039993121553      0.18044627879455     -0.00978501326141
  C   0.58598739258257      0.36756064838765      0.00169144595751
  H   -1.35296940797806      1.07870127855993     -0.00602711059384
  C   -1.41100592215337     -1.14907711731409     -0.01697175269718
  H   -2.04627307473318     -1.24466556356033      0.86860045118526
  H   -0.70093641335412     -1.97568886184109     -0.03376092305310
  H   -2.07288773324942     -1.22887559127613     -0.88438236648198
  C   1.55601962705563     -0.67947927033717      0.00061782232416
  N   2.30202102202861     -1.58873067251097      0.00371721419105
  N   1.14750444129107      1.74116540765095      0.02107478474866
  O   0.35973712861579      2.67673269255950      0.01986326603144
  O   2.37220287111000      1.82091077088721      0.03536218164943
