12
Coordinates from ORCA-job run
  C   -0.66085836556534      0.09937507244783     -0.36711430407539
  C   0.56175492677805      0.39242747513145      0.09517673960456
  H   -1.15041732678259      0.87028765524633     -0.95691262362817
  C   -1.37500263604899     -1.18580169269856     -0.12880401295360
  H   -2.32552158943624     -0.99297142521382      0.37695596857764
  H   -1.61546125390993     -1.65973947275822     -1.08470686598708
  H   -0.79053610745159     -1.88212591629694      0.47262204946597
  C   1.36525377138067     -0.48447148588031      0.88479607774133
  N   1.97332078488753     -1.25548679176351      1.53185671638928
  N   1.18002133988190      1.70833615784310     -0.20352360491848
  O   2.30245670451939      1.89180916080581      0.25744082062624
  O   0.53398975174714      2.49936126313683     -0.87678696084231
