12
Coordinates from ORCA-job run
  C   -0.65623900147759      0.08847274713209     -0.37850684310936
  C   0.55322323013001      0.40215287423044      0.10468129949692
  H   -1.14928769791815      0.85136131795172     -0.97581274620060
  C   -1.35116566976473     -1.20952549003042     -0.15395337053536
  H   -1.56541065905480     -1.68615879808323     -1.11488931816335
  H   -2.31431832826054     -1.03488342884147      0.33413273378603
  H   -0.76535708313083     -1.89627332369251      0.45708085299836
  C   1.35750960295784     -0.46146796528544      0.90808533937265
  N   1.96724717833261     -1.22254545914211      1.56524523844003
  N   1.15334477540111      1.72895865834182     -0.18177562111425
  O   0.50570899713393      2.50906294372810     -0.86612220438626
  O   2.26374465565113      1.93184592369103      0.29983463941519
