12
Coordinates from ORCA-job run
  C   -0.72124107043209      0.10994259468998     -0.21504444589933
  C   0.56690394732854      0.39486524329167      0.01766484881012
  H   -1.32450928539836      0.92264322846342     -0.61100776064016
  C   -1.36062968747665     -1.21208565190232      0.03127817212535
  H   -0.66857527945872     -1.93555614275589      0.46298125060950
  H   -2.21572806026839     -1.08657212827324      0.70277525838603
  H   -1.75346620180054     -1.61369379449495     -0.90738210885086
  C   1.52362291144737     -0.52112076725899      0.55015867727492
  N   2.25751040385592     -1.31670028363326      1.00969237640140
  N   1.09418177964759      1.75182593716826     -0.27459101836749
  O   2.29752359457790      1.90984781477977     -0.09254716544842
  O   0.30440694797741      2.59660394992556     -0.67297808440105
