12
Coordinates from ORCA-job run
  C   -0.20686383251243     -0.74557288050770     -0.35350199254966
  C   0.80899717523928      0.04664812922795      0.02699496911698
  H   0.09834785977954     -1.69911951603825     -0.78011684215217
  C   -1.67223957360266     -0.47417370129089     -0.25872952942023
  H   -1.92995406923955      0.14266952343220      0.60027825011702
  H   -2.00485495078073      0.06783707575449     -1.14942610343453
  H   -2.22035592468262     -1.41598839990744     -0.21307138067156
  C   2.18142540847419     -0.33362129385307     -0.08871307118101
  N   3.29933014001650     -0.67543352882230     -0.21268053701921
  N   0.59959992590594      1.36631510929666      0.65106046408885
  O   -0.39163605342587      2.00124823712754      0.30274297544120
  O   1.43820389482840      1.71819124558082      1.47516279766430
