12
Coordinates from ORCA-job run
  C   -0.25128102774031     -0.81370110301262      0.00325633078828
  C   0.80493460090350      0.01075286950599      0.09865405772150
  H   -0.01087152125107     -1.87100537106823      0.09637504997690
  C   -1.68451631087038     -0.45259283367010     -0.21093354404267
  H   -1.88869093509356     -0.36690478217528     -1.28264624512115
  H   -2.32694468453969     -1.23477467482531      0.19450232402262
  H   -1.94646797655766      0.50401360091881      0.23807017749132
  C   2.13779499351768     -0.44832041412987      0.33191126957528
  N   3.22297856099212     -0.86495061612825      0.50732774292824
  N   0.67829565899289      1.47885850477125      0.02340661549257
  O   1.47746275764405      2.12782459385671      0.69157139443340
  O   -0.21269411599756      1.93080022595689     -0.68949517326629
