12
Coordinates from ORCA-job run
  C   -0.72752373347759      0.15438533354656     -0.16735683755148
  C   0.57818481041053      0.37961203176112      0.03054212654827
  H   -1.32662390610536      1.01370855062819     -0.45798617178854
  C   -1.39398648803530     -1.16943980017860     -0.01952712715712
  H   -2.18953796270590     -1.10324218164966      0.72832436621176
  H   -0.69913020254875     -1.95641824443937      0.27386086574411
  H   -1.87027223361716     -1.45079638124674     -0.96331877473099
  C   1.52601736567568     -0.61627732820636      0.41515761411816
  N   2.25227145503109     -1.48518289583246      0.73195086120751
  N   1.13874270078377      1.74197792648713     -0.14778198998591
  O   0.36969296127304      2.63306857035648     -0.48041832929159
  O   2.34316523331595      1.85860441877371      0.05655339667583
