12
Coordinates from ORCA-job run
  C   -0.71583243300381      0.14749100825734      0.21876822085484
  C   0.56998283196215      0.38558303314842     -0.07310251910260
  H   -1.29922027737709      1.00077475236889      0.55528864581237
  C   -1.37889128026571     -1.18192674936922      0.11337275213721
  H   -1.72292093408882     -1.50363474540576      1.10109967950712
  H   -2.26620124562312     -1.10617809941003     -0.52119770782304
  H   -0.71692061567520     -1.94662360163832     -0.29316497393619
  C   1.49697868397981     -0.60003888839399     -0.52858465742526
  N   2.20516812113479     -1.46049586221575     -0.90409241083410
  N   1.13105819892799      1.75146276673542      0.07467604257024
  O   2.32788339367179      1.86991462381538     -0.17013425777519
  O   0.37091555635723      2.64267176210761      0.42707118601460
