12
Coordinates from ORCA-job run
  C   -0.64092459901447      0.07387210093830     -0.40635196931762
  C   0.56872991159361      0.38774176990544      0.07644729657202
  H   -1.08472373497018      0.78775350750941     -1.09595856937981
  C   -1.39785042096101     -1.16213971669566     -0.06430969549338
  H   -2.35545367998764     -0.89329430632403      0.39175309835713
  H   -1.62972475378490     -1.72124219192612     -0.97537340439971
  H   -0.85155931847968     -1.81139122391865      0.61977018392200
  C   1.31251366222476     -0.41801042995635      0.99080067583263
  N   1.86736075828921     -1.13135107438320      1.74319848971940
  N   1.23355942206161      1.65079377552271     -0.32984599512770
  O   0.63762351783709      2.38027882473186     -1.11031546011043
  O   2.33944923519159      1.85798896459632      0.16018534942546
