12
Coordinates from ORCA-job run
  C   -0.63952174462482      0.06600050802288     -0.40813264119040
  C   0.55223714732045      0.40475365326036      0.10135817491843
  H   -1.10233841609378      0.79069393591973     -1.07375248946879
  C   -1.35335745789264     -1.21096494601739     -0.12831620247135
  H   -1.53876591646038     -1.74395534055803     -1.06521186925318
  H   -2.33201337365914     -0.99728664336731      0.31143078121872
  H   -0.79650120375465     -1.86201832046220      0.54518524957130
  C   1.31892351204367     -0.40826806397062      0.98957645580503
  N   1.89742964137121     -1.12661818031340      1.71906111826312
  N   1.17213429878024      1.70744273613216     -0.24769032386151
  O   2.26480507232469      1.93626105120905      0.26201255672293
  O   0.55596844064514      2.44495961014477     -1.00452081025430
