17

C	-0.39649	0.052521	-1.463187
C	0.0	0.0	0.0
F	-0.190437	-1.228181	-2.052289
H	1.09939	0.0	0.0
H	-1.474929	0.230226	-1.594435
N	0.346637	1.06001	-2.137003
H	1.337639	0.931592	-1.937607
H	0.197122	0.999835	-3.135973
C	-0.514868	-1.257727	0.683897
H	-1.611662	-1.302617	0.660798
H	-0.121763	-2.151728	0.200852
H	-0.195441	-1.267716	1.729561
C	-0.479051	1.260722	0.712979
H	-1.57558	1.318297	0.717125
H	-0.135152	1.258204	1.750869
H	-0.088326	2.154341	0.225971
Br	3.714005	0.0	0.0
