17

C	-0.446391	-0.001425	-1.450921
C	0.0	0.0	0.0
F	-0.001231	1.176837	-2.063285
H	1.095823	0.0	0.0
H	0.07083	-0.803709	-1.99169
N	-1.87453	-0.07121	-1.611821
H	-2.147876	-0.697666	-2.353708
H	-2.339454	-0.336384	-0.757789
C	-0.415036	-1.290801	0.705061
H	0.09979	-1.360528	1.666801
H	-0.126482	-2.169457	0.119425
H	-1.493681	-1.346744	0.900258
C	-0.486802	1.237699	0.743854
H	-0.164634	2.14028	0.22423
H	-0.056728	1.254202	1.748636
H	-1.578983	1.265475	0.837941
Br	3.753608	0.0	0.0
