17

C	-0.539967	-0.039508	-1.415134
C	0.0	0.0	0.0
F	-0.163383	-1.225604	-2.043236
H	1.095847	0.0	0.0
H	-1.643325	-0.103368	-1.370439
N	-0.067165	1.033937	-2.238367
H	-0.134446	1.919905	-1.756361
H	-0.602536	1.08236	-3.096112
C	-0.468911	-1.241406	0.754324
H	-1.562139	-1.264907	0.847103
H	-0.037813	-1.250752	1.757192
H	-0.143368	-2.147137	0.242786
C	-0.470146	1.270489	0.707678
H	0.02239	2.164235	0.316192
H	-1.557266	1.40159	0.630106
H	-0.212575	1.215378	1.767627
Br	3.90035	0.0	0.0
