11
Coordinates from ORCA-job run
  C   -0.37015533688568     -0.49607968415335      0.24569486583419
  C   0.68960520120208      0.40418886686701     -0.36575013011175
  F   0.06756904727690     -1.03366860956174      1.40222582125647
  H   0.95101268914379      1.17721685076173      0.36327088906777
  H   -0.70802861147587     -1.28487242197483     -0.42752877174686
  H   0.28610929895391      0.88726346486600     -1.25776581649639
  N   -1.58815753541308      0.35984130167139      0.52716903791825
  O   -2.15180525111243      0.77552933802456     -0.47993793812715
  O   -1.88875517184736      0.57332671643412      1.69139419809055
  C   1.88112967570410     -0.36674528640061     -0.70840211730973
  N   2.82947599445364     -0.99700053653428     -0.98937003837533
