14

C	0.0	0.0	0.0
C	-0.540185	-0.086856	-1.41627
Br	1.929454	0.0	0.0
H	-1.637271	0.033481	-1.344232
H	-0.275294	-1.039516	-1.861457
C	-0.427564	1.157819	0.775035
N	-0.623818	2.102909	1.447286
N	-0.409323	-1.282181	0.764812
O	-0.511645	-2.297752	0.095416
O	-0.499972	-1.180643	1.9747
N	0.003558	0.977206	-2.291535
O	0.110136	2.1104	-1.826469
O	0.265143	0.654175	-3.451854
Br	-3.526701	0.0	0.0
