13

C	-0.560153	0.043616	-1.430699
C	0.0	0.0	0.0
Br	-0.072536	-1.541688	-2.458702
H	1.094055	0.0	0.0
H	-1.652453	0.048149	-1.387836
C	-0.122184	1.24157	-2.136534
N	0.210999	2.213977	-2.704514
C	-0.490236	-1.199905	0.683389
N	-0.951964	-2.105542	1.273389
N	-0.437999	1.226845	0.669767
H	0.369059	1.646138	1.116607
H	-1.14407	1.042191	1.369403
Cl	3.248444	0.0	0.0
