13

C	-0.557393	0.101832	-1.427894
C	0.0	0.0	0.0
Br	-0.061205	-1.436984	-2.520514
H	1.094093	0.0	0.0
H	-1.649886	0.102024	-1.38815
C	-0.119471	1.330257	-2.078379
N	0.215794	2.32508	-2.604495
C	-0.49503	-1.224768	0.63432
N	-0.960516	-2.153586	1.183849
N	-0.437903	1.199745	0.716841
H	-1.139494	0.988846	1.412934
H	0.369131	1.607565	1.173314
Cl	3.250509	0.0	0.0
