13

C	-0.401213	0.043829	-1.471242
C	0.0	0.0	0.0
Br	-2.341191	0.316004	-1.688087
H	1.096589	0.0	0.0
H	0.066637	0.927591	-1.906102
C	-0.033872	-1.153222	-2.212639
N	0.234848	-2.121112	-2.821518
C	-0.505527	-1.210328	0.660154
N	-0.914975	-2.144427	1.244747
N	-0.39556	1.240897	0.649867
H	-1.321588	1.165082	1.053764
H	0.275159	1.438323	1.384005
Cl	3.226282	0.0	0.0
