13

C	-0.409973	-0.02522	-1.469562
C	0.0	0.0	0.0
Br	-2.34975	0.243318	-1.68598
H	1.099362	0.0	0.0
H	0.058267	0.835344	-1.948925
C	-0.049895	-1.257963	-2.156641
N	0.211048	-2.252578	-2.725269
C	-0.506428	-1.174433	0.719699
N	-0.91334	-2.089478	1.335115
N	-0.387309	1.273272	0.591
H	0.305525	1.519763	1.287365
H	-1.2979	1.217736	1.02817
Cl	3.226056	0.0	0.0
