13

C	-0.557768	0.03867	-1.431586
C	0.0	0.0	0.0
Br	0.045959	-1.47906	-2.491801
H	1.099698	0.0	0.0
H	-1.646951	-0.024733	-1.385795
C	-0.19539	1.28176	-2.102011
N	0.08686	2.277811	-2.657009
C	-0.499615	-1.196377	0.674025
N	-0.912577	-2.130925	1.253645
N	-0.52295	1.20761	0.672118
H	-0.600047	1.021793	1.665796
H	0.197107	1.918577	0.572567
Cl	3.282196	0.0	0.0
