13

C	-0.495214	0.016546	-1.46298
C	0.0	0.0	0.0
Br	0.147047	-1.51677	-2.483918
H	1.095081	0.0	0.0
H	-1.5874	-0.059285	-1.485432
C	-0.111412	1.253447	-2.133457
N	0.129763	2.272626	-2.666054
C	-0.525663	-1.202748	0.655067
N	-1.001264	-2.14401	1.172207
N	-0.413626	1.18467	0.734545
H	-1.334164	1.51092	0.466098
H	0.270481	1.915265	0.586179
Cl	3.255141	0.0	0.0
