13

C	-0.497311	0.028639	-1.459878
C	0.0	0.0	0.0
Br	0.14375	-1.497244	-2.494828
H	1.095073	0.0	0.0
H	-1.589519	-0.050381	-1.481329
C	-0.115492	1.270211	-2.122316
N	0.157995	2.283136	-2.650696
C	-0.524084	-1.208762	0.647146
N	-0.991545	-2.155989	1.160592
N	-0.411854	1.178149	0.745742
H	-1.327964	1.514199	0.475381
H	0.278461	1.905775	0.613161
Cl	3.255851	0.0	0.0
