13

C	-0.423033	-0.006495	-1.49416
C	0.0	0.0	0.0
Br	0.258112	1.576041	-2.405936
H	1.095212	0.0	0.0
H	0.031584	-0.860999	-1.99802
C	-1.872535	-0.029886	-1.643297
N	-3.045951	-0.040368	-1.696627
C	-0.477179	-1.268783	0.564071
N	-0.878411	-2.29433	0.973147
N	-0.470918	1.106436	0.79754
H	0.091372	1.923046	0.59586
H	-1.449319	1.307936	0.626081
Cl	3.286251	0.0	0.0
