13

C	-0.537992	-0.10193	-1.428503
C	0.0	0.0	0.0
Br	-0.201227	1.5275	-2.464092
H	1.099748	0.0	0.0
H	-1.624464	-0.230039	-1.436436
C	0.063435	-1.233141	-2.12782
N	0.486747	-2.141732	-2.739369
N	-0.361183	-1.259866	0.667274
H	-1.069685	-1.130701	1.377733
H	0.488483	-1.599561	1.103501
C	-0.537352	1.165677	0.680819
N	-0.951843	2.100721	1.263594
F	2.52388	0.0	0.0
