13

C	-0.460439	-0.057468	-1.457746
C	0.0	0.0	0.0
Br	0.358224	-1.565439	-2.386477
H	1.093978	0.0	0.0
H	-0.109153	0.832966	-1.983362
C	-1.909583	-0.175056	-1.589492
N	-3.079995	-0.262899	-1.654699
N	-0.431899	-1.173664	0.743971
H	-1.23401	-0.990828	1.331955
H	0.349043	-1.465566	1.317584
C	-0.475589	1.257059	0.570629
N	-0.872398	2.258077	1.046862
F	2.53176	0.0	0.0
