13

C	-0.522195	-0.09523	-1.434733
C	0.0	0.0	0.0
Br	-0.170139	1.541405	-2.453884
H	1.094074	0.0	0.0
H	-1.608276	-0.221345	-1.456442
C	0.086491	-1.223326	-2.132847
N	0.504603	-2.136745	-2.741358
N	-0.36681	-1.259323	0.660896
H	0.477025	-1.600935	1.106858
H	-1.088908	-1.13409	1.358732
C	-0.549484	1.161127	0.679631
N	-1.021857	2.051726	1.287517
F	2.526261	0.0	0.0
