13

C	-0.174912	0.108463	-1.502179
C	0.0	0.0	0.0
Br	-2.048191	-0.192235	-2.138225
H	1.103484	0.0	0.0
H	0.401017	-0.698806	-1.957175
C	0.269526	1.382583	-2.049689
N	0.615967	2.405194	-2.513206
N	-0.39194	-1.274081	0.56906
H	0.388493	-1.909543	0.456368
H	-1.219374	-1.65282	0.122359
C	-0.5998	1.119832	0.703263
N	-1.075855	2.028582	1.278557
F	2.502371	0.0	0.0
