13

C	-0.463679	0.121745	-1.452347
C	0.0	0.0	0.0
Br	0.363482	-1.251994	-2.564911
H	1.10178	0.0	0.0
H	-0.122191	1.073496	-1.864849
C	-1.912343	0.010488	-1.595461
N	-3.083496	-0.059569	-1.665961
N	-0.428038	-1.257342	0.593723
H	0.353687	-1.618877	1.126328
H	-1.23304	-1.153085	1.196867
C	-0.474919	1.175876	0.722773
N	-0.869252	2.109533	1.322307
F	2.530016	0.0	0.0
