16

C	0.0	0.0	0.0
C	-0.541277	0.040167	-1.45853
Br	1.967132	0.0	0.0
H	-1.611255	0.254646	-1.352692
N	-0.473047	1.123428	0.740271
H	-1.495792	1.141603	0.638562
H	-0.254062	1.005724	1.723901
C	-0.331874	-1.324384	0.561836
N	-0.546732	-2.384221	1.025465
N	-0.361415	-1.131316	-2.243748
H	0.561639	-1.531462	-2.13162
H	-1.07523	-1.804124	-1.996545
N	0.061684	1.222254	-2.173303
O	-0.475258	2.313726	-1.994715
O	1.044001	1.015372	-2.88398
Br	-3.640669	0.0	0.0
