16
Coordinates from ORCA-job run
  C   -0.78121591087717      0.04744829588278      0.00329765121555
  C   0.74263152276242     -0.19383671679047      0.01103433947859
  Cl  -1.13559334032127      1.66236565869638     -0.76938494588589
  H   0.91377065982943     -1.20503084234028      0.38184014291062
  N   -1.40473904751331     -1.04632364728016     -0.65747824006867
  H   -2.41055164292207     -0.92232833113711     -0.63945511968055
  H   -1.09440416340604     -1.11245015247375     -1.61927329323571
  N   -1.18226547180675      0.11690907546972      1.38215879845219
  H   -1.63813483194808     -0.74007848463193      1.66290166324675
  H   -1.75114191102911      0.92391401986188      1.58504695114274
  N   1.45026750488684      0.71988094376304      0.95941770044761
  O   1.55004177934562      1.89496770574362      0.63002390766909
  O   1.86646503166758      0.20013508265253      1.98820783246721
  N   1.44603463025914     -0.11038642032717     -1.31793287954473
  O   2.65885531496447      0.04498267988331     -1.27239102980192
  O   0.77097987610830     -0.28016886697238     -2.32801347881288
