16
Coordinates from ORCA-job run
  C   -0.81674382092795      0.22833454805923     -0.03209110545333
  C   0.67320664080378     -0.20094910094976     -0.02229320869396
  Cl  -0.95557379331915      1.81998791223548     -0.83398219004114
  H   0.74064091137535     -1.24995683036266      0.27443651223645
  N   -1.69387298185150     -0.66778978476395     -0.73602573086185
  H   -1.41857241151980     -0.76865094285234     -1.70476388908354
  H   -1.70311778300196     -1.57574436399439     -0.28494496427820
  N   -1.17613147785313      0.39057247931384      1.34747212468026
  H   -2.15403259925224      0.65297785933422      1.39469582876693
  H   -1.03591464900034     -0.46951746170270      1.86817649132267
  N   1.45774512150046      0.56302517856510      0.99699841276333
  O   1.74844198467023     -0.07498484043469      2.00679524069873
  O   1.70801821703232      1.73486050281717      0.76231492849098
  N   1.36892377997548     -0.11766282621522     -1.35550107673801
  O   0.70316371677984     -0.43901477272596     -2.33322879046002
  O   2.55581914458863      0.17451244367662     -1.34705858334931
