16
Coordinates from ORCA-job run
  C   -0.83933199235424      0.19323803146598      0.07999395970438
  C   0.58931762960551      0.55051787234998     -0.36054680264456
  Cl  -1.70630192363160      1.74860412343655      0.29079482193757
  H   0.56959449281843      1.31443612530435     -1.13267999351914
  N   -1.44719912289616     -0.45614488089427     -1.06987178399356
  H   -2.44495917637822     -0.28972174831747     -1.08462678406634
  H   -1.27304438169811     -1.45304634184329     -1.02321380332682
  N   -0.81474190239223     -0.45515107837188      1.35595850126655
  H   -1.75655133158113     -0.63721357695254      1.67976426008976
  H   -0.29333742581884     -1.32208247743284      1.29465947162342
  N   1.31955378958274     -0.62767780313260     -0.92887957963594
  O   0.99942502107483     -1.75172749336350     -0.54871661809685
  O   2.21908790893246     -0.35730800682020     -1.71595243278514
  N   1.42998360630318      1.05530121172542      0.77843806916257
  O   2.09448536305057      0.22938865309089      1.39215809697988
  O   1.35401944538282      2.25758738975542      0.99372061730422
