16
Coordinates from ORCA-job run
  C   -0.83667736336983      0.10991066872653      0.06083584220564
  C   0.69242894629130     -0.09468603418453     -0.10365721359169
  Cl  -1.24504231564615      1.78825599202103     -0.40041685192172
  H   0.91913374399571     -1.16100777175057     -0.03936631407322
  N   -1.64899883915243     -0.75186255808982     -0.75434079892565
  H   -1.50717113182604     -1.72037119618654     -0.49024104728128
  H   -1.44378092542447     -0.63194535827340     -1.73816473343059
  N   -1.09478005068656     -0.04571935523554      1.46350826121679
  H   -2.09051645144147      0.06076109360944      1.61993355166312
  H   -0.80143109808823     -0.96038533500916      1.79205346690116
  N   1.45424791822562      0.55381898094751      1.00801863093744
  O   1.51403801923395      1.77317035422140      1.02524826803746
  O   1.92541097977866     -0.22811756620308      1.83207045133022
  N   1.24672574824247      0.35414559737547     -1.42992878170591
  O   2.35052994921762      0.87856325131529     -1.43352117788438
  O   0.56788287064983      0.07546923671597     -2.41203155347740
