16
Coordinates from ORCA-job run
  C   -0.82814000955425      0.07274413915186      0.02972420203125
  C   0.60924290531545      0.57930974702172     -0.17484949978965
  Cl  -1.77406064570976      0.83308768054055     -1.35623628282172
  H   0.65155749790713      1.64811292014285      0.02026207944966
  N   -0.85658590063812     -1.33820793227286      0.05505547315648
  H   -1.79003876467528     -1.68282112770100      0.23790230375075
  H   -0.48172827646537     -1.74785079447774     -0.79190511624715
  N   -1.35731853880850      0.69351823493813      1.21315830093430
  H   -1.02383150286957      0.19820643957276      2.03139350142235
  H   -2.36862328576140      0.69353953556795      1.18944326851481
  N   1.17415724870828      0.34401599808767     -1.53799450563853
  O   1.91317593040647      1.22879983036592     -1.95853406078212
  O   0.89292135510360     -0.70465340773772     -2.10850372143519
  N   1.53177889944641     -0.10984167725117      0.80566272416425
  O   2.35684140034912     -0.89800382365357      0.36593211086113
  O   1.34965168724579      0.18904423770466      1.97848922242938
