16
Coordinates from ORCA-job run
  C   -0.88572316489706      0.02115509281268     -0.00696594320182
  C   0.56974012738722      0.53126444027813     -0.12481580845376
  Cl  -1.74309540039461      0.95466398092917     -1.36090592073604
  H   0.62605032189098      1.58868822632311      0.12334039236596
  N   -0.92448844534336     -1.37473877904824     -0.09893936101310
  H   -0.50601085680746     -1.73038861023765     -0.94745881156345
  H   -1.87007618966598     -1.70902017033493      0.03069572564836
  N   -1.56045195942311      0.40606086694978      1.19126085761026
  H   -1.65674892050101      1.40956826343229      1.26838368725483
  H   -1.06988050394430      0.03714375287095      1.99708730144234
  N   1.19983822739948      0.37463305511158     -1.47318191184263
  O   1.95941793918727      1.28065573431865     -1.80336316800670
  O   0.94310032951852     -0.63507857074072     -2.11956894860288
  N   1.44028398292233     -0.20882179001793      0.85929549753078
  O   1.25309755327593      0.09770391153630      2.03200463733495
  O   2.22394695939515     -1.04448940418317      0.43313177423290
