16
Coordinates from ORCA-job run
  C   -0.78278756911673     -0.08797007375529      0.06086505195611
  C   0.74725447981387     -0.16788996907835     -0.06411944744797
  Cl  -1.30577174794234      1.60911615492552     -0.52289804788648
  H   1.02940841216024     -1.21974210344875     -0.03939636458810
  N   -1.35164246046256     -1.10938443870110     -0.74296748244378
  H   -2.35844841239617     -0.99845958860248     -0.78148697632931
  H   -0.98614222627232     -1.07232189666696     -1.68646764624250
  N   -1.11755273609390     -0.30636680587281      1.42320885133529
  H   -1.08063018821393      0.54550125768601      1.96493577866080
  H   -2.01907246295163     -0.75406650811043      1.51080927930803
  N   1.49443695329510      0.50065255552863      1.04289414872615
  O   2.58841085950967      0.00199315316215      1.28969071594882
  O   0.99892069242036      1.48333533335333      1.58049743933667
  N   1.26397109373947      0.39853782681970     -1.35758894093051
  O   0.88460486280408     -0.20010694944139     -2.35959838476854
  O   1.99504044970681      1.37617205220221     -1.31837797463467
