16
Coordinates from ORCA-job run
  C   -0.82446048025213      0.09347943194965      0.06117465289428
  C   0.61236348557281      0.55491386978696     -0.23439400883393
  Cl  -1.81555176424852      0.79461085692465     -1.32422971999880
  H   0.68462889730958      1.63189144171328     -0.10373191718372
  N   -0.87982795801108     -1.31280222805120      0.16915908047081
  H   -1.81055405801164     -1.62588921781968      0.41260317812286
  H   -0.55264674981502     -1.77783050503481     -0.66896747430511
  N   -1.28796811631175      0.79297150808632      1.22813217402838
  H   -0.92498941055328      0.34039704786123      2.05853889421349
  H   -2.29922931168211      0.80956574610285      1.25048732347212
  N   1.11202346985739      0.22903677007818     -1.60441450656801
  O   1.85398149421072      1.06892781058806     -2.10430682164303
  O   0.78127027129491     -0.84190967517140     -2.10227848274042
  N   1.56314794324871     -0.09834970583069      0.74375832223243
  O   2.34779935483128     -0.93289883589839      0.31602469413346
  O   1.44201293256012      0.27388568471499      1.90344461170518
