16
Coordinates from ORCA-job run
  C   -0.82150874237018      0.08676364677029      0.12396990245641
  C   0.57563096620047      0.52253141348664     -0.35028950795031
  Cl  -1.74266204284954      1.63259170371710      0.44940259785996
  H   0.51217195200973      1.25885087680663     -1.14790372030778
  N   -1.39747839762617     -0.65179722428251     -0.95669247750080
  H   -1.61720527419760     -0.06020311191307     -1.75021886112984
  H   -2.24249263513701     -1.11928619948570     -0.65320006149458
  N   -0.74744470980619     -0.60474012327012      1.36541702183552
  H   -1.66722740755875     -0.75174397144594      1.75928034197754
  H   -0.25058781296879     -1.47924750698641      1.24762383224660
  N   1.35048772723884     -0.63858649442552     -0.89983486493154
  O   1.95621982955759     -0.41172738204374     -1.94521827279396
  O   1.33975224611029     -1.69371504239914     -0.27901911795419
  N   1.39098975215812      1.14492907668776      0.75040329009864
  O   1.30342877299952      2.36462476405626      0.83158518688610
  O   2.05692577623967      0.39975557472748      1.45569471070225
