16
Coordinates from ORCA-job run
  C   -0.77186552781420      0.12300058219303      0.02039836036602
  C   0.75021642618552     -0.07667461613320     -0.03139469236297
  Cl  -1.27269203985675      1.76732215181572     -0.42520343318052
  H   0.97883751557219     -1.10206038377119      0.25523703259835
  N   -1.30466166705391     -0.75938938641190     -0.99285662289326
  H   -1.17582806846383     -1.72964312150758     -0.72615562839817
  H   -2.29020107368163     -0.58116473888406     -1.14163790402604
  N   -1.13057617423625     -0.05467382955075      1.40921792873074
  H   -1.00084962023848     -1.02020158595225      1.69199498084993
  H   -2.09336589550881      0.21481522204353      1.56898924180708
  N   1.48264444897989      0.77727630339358      0.95711596234456
  O   1.95810612065868      0.16081680503673      1.90831470701331
  O   1.54016515489780      1.98196938310032      0.75590416338663
  N   1.30890508106296      0.07724561400583     -1.41230869500723
  O   1.33815354683339      1.19508548648495     -1.90684829061773
  O   1.68401177266345     -0.97272388586276     -1.92976711061069
