16
Coordinates from ORCA-job run
  C   -0.82212671653643      0.10235857907043      0.10414459851454
  C   0.59301904429113      0.50911776978304     -0.34273138124247
  Cl  -1.72366959164750      1.66704315235203      0.39331547854466
  H   0.56047704101759      1.23876526761091     -1.14832043511902
  N   -1.38656952750939     -0.63778583777820     -0.98101482659383
  H   -1.57547704223823     -0.05217193785149     -1.78679854980263
  H   -2.24724723825078     -1.08576884551269     -0.69255711655462
  N   -0.78762038351717     -0.57712894401392      1.35415713119245
  H   -1.71827590589972     -0.70122136506310      1.72993482278306
  H   -0.30620868861794     -1.46258164080995      1.25551779094117
  N   1.35874917651503     -0.67096545473640     -0.86336337320861
  O   1.31592112545806     -1.71879697980251     -0.23184921325524
  O   1.99150452045177     -0.46566757486963     -1.89708226338146
  N   1.39356369603223      1.12817229963412      0.77042748872685
  O   2.03288045695239      0.37912163044964      1.49582272576150
  O   1.32208003349897      2.34950988153772      0.84039712269365
