16
Coordinates from ORCA-job run
  C   -0.84011773660616      0.18757124288246      0.08724780877140
  C   0.58130626128615      0.55271145943576     -0.36984431194058
  Cl  -1.71602784727216      1.73771698838610      0.29718713780140
  H   0.54838214992583      1.31086816844459     -1.14717349239730
  N   -1.45454215204581     -0.47313470095672     -1.05260635075112
  H   -1.27142975088892     -1.46825787203621     -1.00253665983540
  H   -2.45380094315626     -0.31528247560860     -1.05746127732101
  N   -0.79810252716934     -0.45267654316033      1.36691314990671
  H   -1.73524443964660     -0.63985514706454      1.70121290517549
  H   -0.27108839667446     -1.31621109039500      1.30591890859744
  N   1.31550856306539     -0.62363106864967     -0.93800993876431
  O   2.20666166153870     -0.35046723023565     -1.73367731742306
  O   1.00655047239085     -1.74814538519969     -0.55009612606542
  N   1.42982598667150      1.07107516288598      0.75720703117143
  O   2.10375174922999      0.25315241976468      1.37147662104987
  O   1.34936694935132      2.27456607150686      0.96424191202447
