16
Coordinates from ORCA-job run
  C   0.81857462816628      0.57097805273002     -0.14842288109372
  C   -0.38955335174981     -0.02232439447950      0.55649040981692
  Cl  1.75538957414227      1.52760762649457      1.04434262995799
  H   -0.07376479383511     -0.56445564661388      1.44950220104935
  H   0.46972112103779      1.28532253836013     -0.89589521255099
  C   1.71369790020174     -0.48482366338892     -0.76877064855190
  H   2.61427873943390     -0.01972742148973     -1.17071704446951
  H   2.01583643806279     -1.22490814928913     -0.02416098426921
  H   1.19984094631654     -0.99114800405852     -1.58832345882498
  C   -1.25984219921539     -0.88141996385252     -0.34773927689699
  H   -1.52007070849939     -0.33919923248973     -1.25868771307431
  H   -2.18153811147738     -1.15058745530270      0.17243749798354
  H   -0.74266809489751     -1.80375836469826     -0.61235983037653
  N   -1.24918288752460      1.09513225768446      1.07455898583847
  O   -1.59475181387441      1.94794336161415      0.26034035050824
  O   -1.57496738628769      1.05436845877955      2.25740497495362
