18

C	-0.308528	0.068393	-1.504841
C	0.0	0.0	0.0
Cl	-0.025191	-1.65691	-2.201114
H	1.097124	0.0	0.0
C	-1.744399	0.390841	-1.869999
H	-1.986875	1.39488	-1.514294
H	-2.42628	-0.334184	-1.421826
H	-1.874484	0.363352	-2.955358
N	0.607352	0.998943	-2.048523
H	0.606316	0.969976	-3.060463
H	1.549005	0.800989	-1.683977
C	-0.571281	-1.153724	0.665629
N	-1.074567	-2.035643	1.25946
C	-0.408264	1.282825	0.732474
H	0.056948	1.278541	1.721792
H	-0.022715	2.140762	0.180933
H	-1.491225	1.377878	0.854899
H	2.778204	0.0	0.0
