18

C	-0.450603	-0.002533	-1.468493
C	0.0	0.0	0.0
Cl	0.012587	1.577609	-2.22164
H	1.095855	0.0	0.0
C	0.308629	-1.08214	-2.227026
H	0.003811	-2.064191	-1.851913
H	1.381208	-0.957136	-2.052368
H	0.084359	-1.025957	-3.295933
N	-1.9033	-0.072974	-1.566796
H	-2.159302	-0.103148	-2.549013
H	-2.19713	-0.949665	-1.145589
C	-0.456495	-1.250525	0.592578
N	-0.856061	-2.254906	1.058615
C	-0.485	1.18435	0.832863
H	-0.015839	2.094994	0.45898
H	-0.161499	1.044133	1.866963
H	-1.570813	1.293166	0.797858
H	2.797839	0.0	0.0
