18

C	-0.213609	-0.03487	-1.508487
C	0.0	0.0	0.0
Cl	-2.000583	-0.23275	-1.943622
H	1.099597	0.0	0.0
C	0.247419	1.265688	-2.149029
H	-0.366166	2.11905	-1.854695
H	0.203451	1.171121	-3.238162
H	1.286603	1.422964	-1.836715
N	0.491844	-1.194702	-1.984074
H	1.430007	-1.148713	-1.569137
H	0.583225	-1.152705	-2.993651
C	-0.478912	-1.215437	0.639179
N	-0.868296	-2.150016	1.236875
C	-0.511708	1.2386	0.722292
H	-1.576597	1.406511	0.536268
H	-0.359777	1.120003	1.797456
H	0.057328	2.115069	0.407236
H	2.75248	0.0	0.0
