18

C	-0.577573	-0.025588	-1.419689
C	0.0	0.0	0.0
Cl	0.239696	-1.339268	-2.352964
H	1.094496	0.0	0.0
C	-2.070932	-0.352862	-1.458099
H	-2.420329	-0.344618	-2.494439
H	-2.282768	-1.330696	-1.024147
H	-2.624799	0.407145	-0.896916
N	-0.256326	1.222161	-2.095926
H	-0.814098	1.962143	-1.683218
H	-0.523814	1.137658	-3.070791
C	-0.459095	-1.160607	0.749066
N	-0.841801	-2.083666	1.370287
C	-0.344251	1.286269	0.760259
H	0.05296	1.199574	1.773786
H	-1.417364	1.498286	0.824857
H	0.183068	2.116701	0.287087
H	2.756708	0.0	0.0
