18

C	-0.440696	-0.07574	-1.464821
C	0.0	0.0	0.0
Cl	0.174997	1.475416	-2.296386
H	1.103374	0.0	0.0
C	0.270344	-1.21454	-2.168051
H	-0.086971	-2.160537	-1.754768
H	0.067393	-1.190686	-3.242659
H	1.344087	-1.117403	-1.986279
N	-1.858026	-0.17557	-1.604405
H	-2.105534	-0.198763	-2.587838
H	-2.308643	0.629275	-1.184407
C	-0.429213	-1.220763	0.67132
N	-0.748302	-2.191849	1.252075
C	-0.47228	1.217931	0.79043
H	-0.125208	2.129082	0.303371
H	-1.55948	1.256818	0.916209
H	-0.01593	1.17794	1.782145
H	2.774386	0.0	0.0
