18

C	-0.209141	0.026046	-1.518838
C	0.0	0.0	0.0
Cl	-1.992741	-0.10425	-1.934606
H	1.098827	0.0	0.0
C	0.324584	1.31664	-2.106633
H	0.290277	1.245675	-3.19525
H	1.364002	1.421022	-1.770515
H	-0.257352	2.180136	-1.781642
N	0.470137	-1.079967	-2.161644
H	0.118717	-1.948338	-1.766875
H	1.446207	-0.997498	-1.851651
C	-0.465185	-1.255994	0.561843
N	-0.831738	-2.270209	1.030824
C	-0.515608	1.194137	0.791567
H	-0.339585	1.031791	1.858231
H	0.03715	2.090747	0.504107
H	-1.585834	1.357718	0.632122
H	2.754428	0.0	0.0
