18

C	-0.438312	-0.03315	-1.473929
C	0.0	0.0	0.0
Cl	-0.026083	1.554561	-2.242188
H	1.09576	0.0	0.0
C	0.368186	-1.090585	-2.213756
H	0.154712	-1.051649	-3.28619
H	1.434006	-0.927092	-2.025923
H	0.09362	-2.079156	-1.833086
N	-1.884181	-0.159826	-1.583865
H	-2.152966	-1.024566	-1.123483
H	-2.127756	-0.244451	-2.565262
C	-0.447865	-1.244953	0.609712
N	-0.829563	-2.251039	1.087018
C	-0.500024	1.196819	0.805326
H	-1.579526	1.331619	0.704734
H	0.012887	2.094563	0.459108
H	-0.244722	1.053295	1.858191
H	2.794604	0.0	0.0
