15
Coordinates from ORCA-job run
  C   0.81082497182442     -0.16788853538641      0.47002309857384
  C   -0.58834970322851      0.46349185206984      0.28475285066651
  Br  1.22436089706076     -0.36595978482556      2.36650626635656
  H   -0.60178241769690      1.41634401877962      0.82965274028314
  N   0.80778453851711     -1.46638861827573     -0.15467345763014
  H   1.71178791348562     -1.91437124831874     -0.06729123933589
  H   0.58133277164119     -1.32642164866211     -1.13545442997396
  C   1.81785153119428      0.75981952233313     -0.07435644633720
  N   2.58823697258858      1.49374902719166     -0.57584257924845
  N   -1.56766950460662     -0.40201727287843      0.86979094842476
  H   -1.55183337110267     -1.30723500729751      0.41823609708977
  H   -2.49278216979335      0.00341451433328      0.82674223787588
  N   -0.73995796236605      0.62857896218274     -1.17115390896137
  H   -0.27579467636248      1.47274890427847     -1.49076604519573
  H   -1.72400979115539      0.71113531447576     -1.39416613258773
