15
Coordinates from ORCA-job run
  C   0.82003289107493     -0.17073663334710      0.45164361295474
  C   -0.58360352918616      0.45971554449813      0.30155754130106
  Br  1.27264048834881     -0.38798080002902      2.33699824542642
  H   -0.58754097207221      1.40668980519711      0.85672876130466
  N   0.80660281184218     -1.46305874128533     -0.18617183397288
  H   0.56177928216730     -1.31353432063264     -1.16121231658557
  H   1.71298559767330     -1.91014708854821     -0.12065801403001
  C   1.81446735711138      0.76379733414276     -0.10402030593399
  N   2.57375973221386      1.50303908020400     -0.61453164698455
  N   -1.54912981874129     -0.41401169143197      0.89716774331420
  H   -2.47594723798679     -0.01073959848922      0.87622862576926
  H   -1.53974112458673     -1.31462036373988      0.43633268894003
  N   -0.76527187349867      0.63964288960721     -1.14916904117759
  H   -0.30808311465526      1.48743660686967     -1.46932926582144
  H   -1.75395048970463      0.72450797698448     -1.35056479450436
