15
Coordinates from ORCA-job run
  C   0.76715324069500     -0.17795071003315      0.28778953889283
  C   -0.59953031458509      0.26133173780653     -0.27083652751714
  Br  0.90495086520382      0.26619517646155      2.18898357260561
  H   -0.54080350615032      0.00557504517424     -1.34483653062764
  N   0.89738710493105     -1.61917185902485      0.16631635795788
  H   1.73471043023473     -1.93722545145429      0.64137251551140
  H   0.98957681851685     -1.85473683821634     -0.81866165416877
  C   1.83148464435176      0.56569711969268     -0.40074022240047
  N   2.69620281379015      1.05955407978578     -1.02573754714858
  N   -0.71303374966667      1.69577372568186     -0.19236398736823
  H   -1.36214937853615      2.04487515183452     -0.88480858743601
  H   -1.06070007130137      1.93973304382149      0.72830009534357
  N   -1.64346616417482     -0.44513308490087      0.44479746251493
  H   -2.51330594692076     -0.38335824961288     -0.07001646792140
  H   -1.38847678638812     -1.42115888701627      0.54944198176196
