15
Coordinates from ORCA-job run
  C   0.93114614974774     -0.11118010640631      0.38635312610311
  C   -0.60236114238719      0.12777958717236      0.33479915073848
  Br  1.68668045270330      0.78550276283120      1.94628419165494
  H   -0.99969705906247     -0.27993042823445      1.27001126291877
  N   1.31896176419150     -1.50332271445031      0.44156566390447
  H   1.16162019725185     -1.85161999505814      1.38066078329772
  H   0.69955750269280     -1.99864620205895     -0.19529601548261
  C   1.50451854666242      0.50454727157625     -0.81867657510298
  N   1.85020479351784      0.98786034151787     -1.83289572370005
  N   -1.09735673977479     -0.71470313345534     -0.75663660225862
  H   -0.97407992699949     -0.23860944649502     -1.64459244272210
  H   -2.08635111193051     -0.89646567207526     -0.63795867316818
  N   -0.89702232635183      1.54101096877447      0.29767104541995
  H   -0.60704023066173      1.94928515763681     -0.58449552491461
  H   -1.88978086959937      1.70049160872480      0.41220633331172
