15
Coordinates from ORCA-job run
  C   0.86356497293236     -0.17385075632782      0.09372131049838
  C   -0.56333543922116      0.15339894988395     -0.37959303745054
  Br  0.94381747744986      0.39273363547580      2.09617554996586
  H   -0.55412259759028     -0.10774503892542     -1.44362342633038
  N   1.13915539651315     -1.52567469607823     -0.09990170657390
  H   2.04714561028904     -1.81800242409660      0.23263085651027
  H   0.37938256624073     -2.09460006988938      0.25491008505121
  C   1.86331215895748      0.67840698442801     -0.54068632890318
  N   2.68092143727018      1.32317106340253     -1.08493012719377
  N   -0.80163491038029      1.57273611751342     -0.28653722395584
  H   -1.63769452456158      1.82806594043661     -0.79560317587739
  H   -0.89805982335149      1.86473134620992      0.67833274665452
  N   -1.46448499097285     -0.78538438984452      0.27891538785470
  H   -1.65823530385275     -0.46954500645167      1.22279082570764
  H   -2.33973202972244     -0.84044165573663     -0.22660173595759
