15
Coordinates from ORCA-job run
  C   0.71182803273456     -0.06502632883555      0.51723320290003
  C   -0.70311943807843      0.43395382791686      0.09336542357150
  Br  0.78883945129516     -0.19561124588326      2.47272723583319
  H   -0.88145204295351      1.39023716181777      0.60265180098370
  N   0.91762675950293     -1.36855162457387     -0.04945245239300
  H   1.85039554135723     -1.71387853389518      0.14045362623797
  H   0.77092968887232     -1.28258660272612     -1.05208386273182
  C   1.71566366540312      0.93732369736611      0.13214683471642
  N   2.49847400762138      1.72756233073281     -0.25102845272370
  N   -1.76535021659145     -0.47292876275154      0.43864421071586
  H   -1.46134914389312     -1.42147954715558      0.24429199844348
  H   -1.97225215071874     -0.40737899237664      1.42650547565797
  N   -0.65589362842712      0.52696405684796     -1.36092594217899
  H   -0.20273708738346      1.38289882970567     -1.65911214034632
  H   -1.61160343874091      0.52950173381058     -1.69541695868625
