15
Coordinates from ORCA-job run
  C   0.70843328369553     -0.07273450069262      0.52071252411548
  C   -0.70520048732760      0.43002739586680      0.09676433947978
  Br  0.77307792261336     -0.23942583263303      2.47396016806031
  H   -0.88992757863401      1.37593308917293      0.62286966246001
  N   0.92168457819393     -1.36479873969634     -0.06892880323374
  H   1.85442336692844     -1.71077892451633      0.11997151406150
  H   0.78055977141729     -1.26019116354246     -1.07061935345986
  C   1.71229940897356      0.93933353412303      0.16130357954689
  N   2.49757748801559      1.73640499739283     -0.20283418884649
  N   -1.76668810699279     -0.48659286200330      0.41793243790531
  H   -1.45752228374866     -1.43059755191716      0.21001295198542
  H   -1.98204478998792     -0.43871146005106      1.40499473343864
  N   -0.64855232264737      0.55056265696387     -1.35514214861003
  H   -0.19612715290850      1.41339397065298     -1.63399844207213
  H   -1.60199309759088      0.55617539087989     -1.69599897483109
