15
Coordinates from ORCA-job run
  C   0.89023895847869     -0.14357060763295      0.26809733120028
  C   -0.56745036665486      0.10293444410598     -0.20652505300116
  Br  1.03372231240049      0.40737547402702      2.16921312877085
  H   -0.54680437846118     -0.23164158501271     -1.25805242149605
  N   1.29376693469812     -1.51055403069757      0.15580806828631
  H   0.48737353780608     -2.08616866118476      0.37958535509766
  H   1.63325714679614     -1.71783504844866     -0.77544850406737
  C   1.79701286235428      0.71897427700266     -0.48829581127066
  N   2.47426173098728      1.40818418529658     -1.15762310019775
  N   -0.95785685355154      1.48718580451940     -0.03416742511143
  H   -0.29363763340160      2.12052921821507     -0.46644988393729
  H   -1.86064991377439      1.63985849831393     -0.46773014611619
  N   -1.42976291744061     -0.81240883316917      0.50417198309500
  H   -1.67760948852539     -0.39683684031375      1.39565152929724
  H   -2.27686193171153     -0.98802629502107     -0.02023505054938
