15
Coordinates from ORCA-job run
  C   0.79988532830720     -0.08941164169640      0.47550060201501
  C   -0.69873416637476      0.16377119271648      0.20894023950223
  Br  1.40045318900991      1.03842516712148      1.97868592481434
  H   -1.20594999411575     -0.14832181048431      1.13282435867634
  N   0.96357513544223     -1.46158030403137      0.85759523222985
  H   0.49286310157796     -2.02204630443971      0.15269978622780
  H   1.94329136518255     -1.71270055278250      0.90940771203616
  C   1.58911275729585      0.31695566253729     -0.69721382585241
  N   2.22520157222630      0.54258045803187     -1.66025347471872
  N   -1.08964084911140     -0.75094662890359     -0.84761010376278
  H   -2.06993012421088     -0.98965037983391     -0.77822731690506
  H   -0.92184941461023     -0.30495073818171     -1.74379871889760
  N   -0.91130983443027      1.54368719234418     -0.18419325478517
  H   -1.89911844258763      1.69326262809855     -0.35211187815469
  H   -0.61784962360104      2.18092605950362      0.54675471757468
