15
Coordinates from ORCA-job run
  C   0.85716097864013     -0.16246780137501      0.14610498141169
  C   -0.60431400918065      0.11393091012236     -0.27713941878653
  Br  1.05450714535426      0.32128159804622      2.10656184078846
  H   -0.61403262829940     -0.17117042793075     -1.34032859220900
  N   1.15956839784223     -1.50903624362372     -0.13217766744536
  H   0.43603374538475     -2.09339501320146      0.27401632978930
  H   2.07976696342305     -1.77865962467906      0.18885157408050
  C   1.77397875139860      0.73878849184474     -0.55059558028412
  N   2.46572888040674      1.47695399367373     -1.14915544492999
  N   -0.97033641263155      1.49406346386419     -0.02679911096606
  H   -0.30498028575002      2.13698074530694     -0.44326658375460
  H   -1.87625682626748      1.67580538447837     -0.44241713110675
  N   -1.45410789955237     -0.82182785007432      0.42391154174912
  H   -2.29948051388640     -1.00180779042494     -0.10134033690682
  H   -1.70223628688192     -0.42043983602731      1.32177359857015
