15
Coordinates from ORCA-job run
  C   0.81715782305680     -0.05022778806646      0.26731951140575
  C   -0.67636482187977      0.38199238560648      0.24477560910578
  Br  1.29904068784582     -0.35882515953130      2.23960116282300
  H   -0.78339731750588      1.21975422543526      0.94479644784952
  N   0.99623983893275     -1.17354288360544     -0.54832329294988
  H   0.31159230643882     -1.88245505356920     -0.30841776003757
  H   1.94152815902529     -1.53004138040168     -0.56274470152440
  C   1.67736497294225      1.05681461757950     -0.13888819941947
  N   2.33197199136501      1.96525541906271     -0.49624231394584
  N   -1.46215271790174     -0.79118782026628      0.58418752872406
  H   -2.41410117194279     -0.61305023902551      0.28968162688978
  H   -1.44805113704845     -0.95475004847605      1.58319369102860
  N   -1.09718597485985      0.82677942927294     -1.06176283809710
  H   -0.78122372743259      0.16588138114822     -1.76243116588291
  H   -0.71141891103568      1.73760291483676     -1.27574530596929
