15
Coordinates from ORCA-job run
  C   0.85865663223043     -0.18088131499394      0.11109982754714
  C   -0.61250463261701      0.12829900716397     -0.25201235682903
  Br  1.14358037845219      0.28656103554761      2.06515898406520
  H   -0.66980896874905     -0.14862966162479     -1.31587091442120
  N   1.12173321280003     -1.53130096100091     -0.18608296326213
  H   2.04857597013550     -1.82167092917987      0.09522772136662
  H   0.40311038035249     -2.10354661022160      0.24523352036115
  C   1.76506014112811      0.70621782023826     -0.61674217507582
  N   2.44758324300663      1.43371085554536     -1.23848333504497
  N   -0.94010829533901      1.51372962626468      0.02158166380146
  H   -0.27784015305601      2.14582331134851     -0.41592582071999
  H   -1.85709566397996      1.71700532380279     -0.35824969669868
  N   -1.45293096492373     -0.79519460190900      0.47589695361588
  H   -2.32196432295842     -0.95418415285877     -0.01652242652214
  H   -1.65704695648218     -0.39593874812230      1.38569101781653
