15
Coordinates from ORCA-job run
  C   0.84757217949113     -0.15814867618919      0.19599213796058
  C   -0.51699200430715      0.14921437713121     -0.44443143802818
  Br  0.67129645352520      0.37782045965937      2.20007560988906
  H   -0.37205855019020     -0.09678989685045     -1.50219161742752
  N   1.17266930439041     -1.50120219014463      0.01918201563765
  H   0.38765877594250     -2.08983453799063      0.27227876179885
  H   2.03944319691429     -1.78145653766484      0.45578840669369
  C   1.90003008885996      0.72211707608402     -0.29990437746561
  N   2.77876665444958      1.37718838904513     -0.72315096626770
  N   -0.79268568078632      1.56265831322208     -0.36445145716753
  H   -1.56844800240208      1.80928787357129     -0.96507103868207
  H   -1.00741314871375      1.83988593541404      0.58559305496591
  N   -1.47344564276957     -0.81475075339022      0.08722468872038
  H   -1.78762329357928     -0.51580759096566      1.00379697713475
  H   -2.27877033082475     -0.87818224093156     -0.52273075776225
