15
Coordinates from ORCA-job run
  C   0.72088892947001     -0.08347592896024      0.50209618980561
  C   -0.68001031436289      0.46770797362149      0.09611153042352
  Br  0.83942886942644     -0.16188510256510      2.45833835935354
  H   -0.80288964813213      1.44513615769170      0.58109582027954
  N   0.85350121812053     -1.41084223444363     -0.03038752282051
  H   1.77364530071128     -1.79350227033713      0.14915162863968
  H   0.68766386653315     -1.34659349767078     -1.03164668381775
  C   1.75889214711838      0.86096215245326      0.06435185116550
  N   2.56117877972311      1.61066282352338     -0.35871265797125
  N   -1.77246868130625     -0.38034933378621      0.49216480350210
  H   -1.95673498399133     -0.27210800039359      1.48072873437801
  H   -1.51289575807999     -1.34720602998449      0.32523627562699
  N   -0.66288082218388      0.51760184796214     -1.36107908535400
  H   -1.62524232088700      0.54983697650236     -1.67420229743666
  H   -0.18207658215949      1.34505446638687     -1.69424694577424
