15
Coordinates from ORCA-job run
  C   0.86554904620558     -0.10544656700749      0.26520335809920
  C   -0.57398117312897      0.44721168080772      0.23091726313326
  Br  1.22891037398834     -0.60552173435490      2.23668218177042
  H   -0.63966387083658      1.24898309105873      0.97565891498760
  N   0.97929555993462     -1.18290386284018     -0.61699712650130
  H   0.24863429778931     -1.86186658548310     -0.43796408500046
  H   1.90067640158227     -1.59573084501164     -0.65172634041481
  C   1.84973554397917      0.93474075440560     -0.01362265181982
  N   2.65704443736401      1.75887332296922     -0.23523112426153
  N   -1.47475616913099     -0.67703111953531      0.49311773022183
  H   -1.47874983909830     -0.90403834215560      1.48153829607026
  H   -2.41441682135269     -0.41170807635223      0.22543663971180
  N   -0.75950784213017      1.03428105685254     -1.06905487763814
  H   -0.79610294967885      0.31332144517828     -1.77850562491037
  H   -1.59366699548672      1.60483578146837     -1.10445255344791
