15
Coordinates from ORCA-job run
  C   0.84968300477097     -0.17894280450484      0.16465928827185
  C   -0.52821617791720      0.16777917309415     -0.42459460471887
  Br  0.74707644972719      0.32280672507067      2.18489770746105
  H   -0.42258396570965     -0.05936116005611     -1.49127319240792
  N   1.14253309646932     -1.52380480856173     -0.04637664462278
  H   2.01809018234934     -1.82896294686027      0.35441884043752
  H   0.35469418917361     -2.10302036466841      0.21911647491929
  C   1.90325699851171      0.69133431644735     -0.34663495416396
  N   2.78194645378749      1.33547059789537     -0.78654681671834
  N   -0.77234213844972      1.58448460891761     -0.30827254301868
  H   -1.55781589203951      1.85950480651151     -0.88335880602446
  H   -0.95631527787765      1.84624620494279      0.65254462711718
  N   -1.48580162857780     -0.78830671375865      0.11881413185393
  H   -2.31346522709617     -0.82076670610647     -0.46305255179103
  H   -1.76074006712196     -0.50446092836295      1.05265904340525
