15
Coordinates from ORCA-job run
  C   0.86441186079067     -0.16745369979564      0.08199031454508
  C   -0.57044631643241      0.14936270551785     -0.37291476951747
  Br  0.96660139302098      0.40505253552001      2.08314960340539
  H   -0.57346681385888     -0.11514388886474     -1.43617889003988
  N   1.14605485822585     -1.51743396288215     -0.11173867899246
  H   2.06110571714693     -1.80344516208433      0.20648272221250
  H   0.39526537067637     -2.09147011177991      0.25349547357846
  C   1.85109176491299      0.69009904182680     -0.56517759522549
  N   2.67370023220786      1.32322866689509     -1.11553576514267
  N   -0.81590625209999      1.56761884937805     -0.28097392677012
  H   -0.90224286566558      1.86237618634721      0.68398003818570
  H   -1.65950073956834      1.81663755542206     -0.78062949161486
  N   -1.45757872067092     -0.79217998333891      0.29995911851097
  H   -2.34053127626904     -0.85060406922072     -0.19156396691528
  H   -1.63755821241649     -0.47664466294068      1.24665581378014
