15
Coordinates from ORCA-job run
  C   0.72095523117476     -0.20569603343587      0.28419612826132
  C   -0.67142198514559      0.20336993912355     -0.27967758152758
  Br  0.80415468389816      0.08441087967926      2.21084314715524
  H   -0.62222263499375     -0.11937754949981     -1.33713238801446
  N   0.90311348974749     -1.62379019439635      0.04339104696297
  H   1.74861685893716     -1.95370952322845      0.49509394616828
  H   0.99804789667302     -1.78087106794696     -0.95622663413324
  C   1.76149245348169      0.63661918161846     -0.32197612454404
  N   2.56001604883920      1.27743718957294     -0.90212202449322
  N   -0.88122226368580      1.61997764291744     -0.10434983499542
  H   -1.82982916176165      1.82980402023691     -0.39045136536014
  H   -0.24562575231711      2.16519697103660     -0.67391589828649
  N   -1.78089599281542     -0.48150521892836      0.32361723615708
  H   -1.60490383075593     -1.47932290439130      0.32151532033445
  H   -1.86027504127631     -0.17354333235811      1.28719502631524
