15
Coordinates from ORCA-job run
  C   0.80400799079581     -0.08848505396829      0.29621893355277
  C   -0.66779043357054      0.40803631497563      0.22387433987623
  Br  1.19834227108840     -0.43606885613438      2.28248071212532
  H   -0.76462238849938      1.24313804199345      0.92870273640182
  N   0.96551961628728     -1.21018079966248     -0.52437955340510
  H   1.89442242740443     -1.60723877042344     -0.50952549218920
  H   0.24181559554788     -1.89094073182439     -0.32062286758481
  C   1.72505322403690      0.98493652757875     -0.06401668624981
  N   2.42557916606180      1.87189761320881     -0.38614274817883
  N   -1.51542708888583     -0.73328800294883      0.52041877615730
  H   -1.54191828363715     -0.90936714684171      1.51710943825447
  H   -2.44838411054064     -0.50952488278481      0.19748151426908
  N   -1.02026288655660      0.88314924830181     -1.09218486513625
  H   -0.70843671727679      0.21562023391586     -1.78842392285638
  H   -0.58789838225556      1.77831626461403     -1.28199031503664
