15
Coordinates from ORCA-job run
  C   0.76938247186027     -0.14203032976445      0.24103803130549
  C   -0.76017015100686      0.14444524561161      0.25261115756787
  Br  1.55891463642855      0.81176997932402      1.85196473288861
  H   -1.12781412516864     -0.27983456303379      1.20340684266812
  N   1.01083155936602     -1.53675706336723      0.27003699217252
  H   0.66520303677916     -1.94203870583551      1.13258935375483
  H   1.99074458167527     -1.76600793488569      0.16029081226428
  C   1.40023854280829      0.47313776502957     -0.92284200670241
  N   1.91931494853652      0.97296381884502     -1.85088222864838
  N   -1.27776622482965     -0.47401171712298     -0.94712444001901
  H   -1.08661837713775     -1.46627645693391     -0.96143713853803
  H   -2.27437495817415     -0.30462197298655     -0.99567469716332
  N   -1.15700567765484      1.52268002833248      0.20708754752872
  H   -0.81433175667358      1.94778174802227     -0.64740729607881
  H   -0.81654850680863      2.03780015876518      1.00734233699951
