15
Coordinates from ORCA-job run
  C   0.76543690281932     -0.16543041749564      0.29226578764550
  C   -0.60360561785816      0.25254061576968     -0.27642347345909
  Br  0.87810280124270      0.27144105849805      2.19675601142118
  H   -0.53194614543862      0.00115054333870     -1.35069727305080
  N   0.92196676311494     -1.60341604858638      0.16460441761230
  H   1.76101222281345     -1.90891973911178      0.64490461613348
  H   1.02623130345591     -1.83270250422356     -0.82061123623495
  C   1.82429424520211      0.59970723676411     -0.38089535604018
  N   2.70780808348314      1.09889692951186     -0.97458890989255
  N   -0.74023043361664      1.68494542944515     -0.19516248974826
  H   -1.39244616681993      2.02507576399458     -0.88921510918929
  H   -1.09560306749652      1.92097615924366      0.72467444223238
  N   -1.64191301129983     -0.47313086643779      0.42784059903712
  H   -1.37122566724043     -1.44494063470894      0.53247055880107
  H   -2.50788221236146     -0.42519352600170     -0.09492258526792
