15
Coordinates from ORCA-job run
  C   0.72401252449906     -0.13159484133934      0.47941575418542
  C   -0.69878666241713      0.47228384042420      0.33447689919853
  Br  1.08432818500116     -0.58438164565893      2.34395995767501
  H   -0.74116927987921      1.35419918014696      0.98247012089247
  N   0.82150439737758     -1.34793573912276     -0.31644258126156
  H   1.60007883505471     -1.91229558414956      0.00214236887240
  H   0.99927797701586     -1.09987300780059     -1.28438128001674
  C   1.71417065814042      0.88547478275102      0.09609082924221
  N   2.47326872538011      1.69942489285326     -0.28441175532477
  N   -1.64837805658290     -0.50370615268646      0.79444175055430
  H   -2.57914974486418     -0.17774619118566      0.56582831934736
  H   -1.47610588422089     -1.38337781566411      0.32105125380169
  N   -0.97011704472778      0.92320726568208     -1.02326294895873
  H   -0.96201941678919      0.15082842938514     -1.67775720615522
  H   -0.34091521298765      1.65449258636472     -1.33362148205238
