15
Coordinates from ORCA-job run
  C   0.78661313424248     -0.18363348640910      0.12284920788243
  C   -0.66158855972058      0.23409648445648     -0.28082070198160
  Br  1.05674518130518      0.21051575312132      2.07912945407803
  H   -0.69680494371293     -0.02400403679931     -1.35150519923213
  N   1.00341909398179     -1.54964533473031     -0.19719574802508
  H   1.96502178462388     -1.82438200801190     -0.03976402574215
  H   0.40061173951306     -2.13857853039320      0.36428720035299
  C   1.75269447263429      0.65397434477196     -0.58373411665370
  N   2.48125461719993      1.34518629299270     -1.19476337364807
  N   -0.87043113957864      1.63042569090626      0.01464238442875
  H   -1.84149894105146      1.84339989260630     -0.17459092495170
  H   -0.28561765183907      2.22547154381883     -0.55978377715833
  N   -1.70750135730792     -0.50574545898207      0.36973725595087
  H   -1.76433368664729     -1.46367679478867      0.05545222046907
  H   -1.61658374364270     -0.45340435255926      1.37706014423058
