15
Coordinates from ORCA-job run
  C   0.80682502428655     -0.16764779928494      0.09684164771977
  C   -0.65733440829997      0.08146676985164     -0.35716061735430
  Br  0.91916107992487      0.44167277550114      2.07541291919349
  H   -0.65051194341317     -0.21685375315889     -1.41176901539148
  N   1.15414575971436     -1.50224502077387     -0.09965744047615
  H   2.08266742426198     -1.74913647616438      0.21262214998532
  H   0.43215705700009     -2.11084612254720      0.26772877354418
  C   1.72333333970716      0.74166813266553     -0.58460211043187
  N   2.43627290607463      1.46350033424044     -1.17801341421507
  N   -1.12528912134942      1.44473287214289     -0.29660064536989
  H   -0.99573366889058      1.82877947337781      0.63245369778411
  H   -0.63366180903604      2.03299697863669     -0.95928459848963
  N   -1.48483412429433     -0.86620932081897      0.36065502242165
  H   -1.60726696804318     -0.54374834917723      1.31516265733732
  H   -2.39993054764298     -0.87913049449066     -0.07378902625744
