15
Coordinates from ORCA-job run
  C   0.82328522416848     -0.12812739254471      0.29636287753793
  C   -0.59830978265799      0.17737644418250     -0.28302609488183
  Br  0.85678569656516      0.31244383746236      2.20796614232105
  H   -0.51699467575282     -0.17183967356391     -1.32967494059824
  N   1.25412519339767     -1.49906866037510      0.16519767315010
  H   1.32942795231691     -1.75307124884850     -0.81440047286444
  H   0.60065894770325     -2.11601919402635      0.63247668641175
  C   1.79336455974797      0.73512984225725     -0.38051634591634
  N   2.50381587644771      1.43560497688928     -1.00240658959244
  N   -0.90417250981729      1.57887486787555     -0.14002200513536
  H   -1.85147594741981      1.72930544977910     -0.46309444129647
  H   -0.27500528085836      2.15972437352744     -0.68046362079547
  N   -1.68014333393588     -0.55385705071248      0.31878991485725
  H   -1.72433698874151     -0.35718096841353      1.31181593261687
  H   -1.61102493116350     -1.54929560348891      0.15999528418563
