15
Coordinates from ORCA-job run
  C   0.74569802731944     -0.12872825648441      0.45381315443960
  C   -0.67632746491187      0.44846900433951      0.17932539325147
  Br  0.96438940057825     -0.41152349150563      2.38221070397366
  H   -0.77847246588532      1.36794131940667      0.77068904940529
  N   0.85649874072699     -1.39128679912551     -0.22182854244851
  H   0.63939418158616     -1.22317203951004     -1.20103257040640
  H   1.78622669370614     -1.78199444833730     -0.13044834806574
  C   1.75596397815488      0.86625934320623      0.06684372951273
  N   2.53518214469151      1.66121150965450     -0.31485161427066
  N   -1.74385864911871     -0.44721499800313      0.53723089227161
  H   -1.48918459316027     -1.38857815687825      0.25635202406450
  H   -1.87875162458808     -0.44560013948355      1.53958747636496
  N   -0.73404720807443      0.65167433838191     -1.26364324725404
  H   -1.71122411870149      0.70741930312271     -1.52262850563640
  H   -0.27448704232318      1.51412351121626     -1.53161959520206
