15
Coordinates from ORCA-job run
  C   0.94849458242754     -0.14125650286001      0.33098871582735
  C   -0.58463991434573      0.10102584600164      0.37281665570330
  Br  1.78279998005576      0.63140112176113      1.91700909548581
  H   -0.93767196527170     -0.37904088726285      1.29136566177517
  N   1.33301551836372     -1.53354202622441      0.25970095413221
  H   0.68368629501914     -1.97737081870401     -0.38534900230205
  H   1.21597390106450     -1.95403618463924      1.17487228357494
  C   1.46448018335669      0.56624331785461     -0.84938147545451
  N   1.76163690961214      1.13407942373545     -1.83476130204231
  N   -1.13455778547822     -0.65361710974983     -0.75603758994748
  H   -1.05587940805782     -0.10790580372911     -1.60825094237672
  H   -2.11635913170936     -0.84807936216197     -0.60290940796459
  N   -0.87632740215056      1.51257906349328      0.46070837048160
  H   -1.86303113122802      1.66174836627680      0.62899340295923
  H   -0.62262063165806      1.98977155620850     -0.39776541985195
