15
Coordinates from ORCA-job run
  C   0.72300107671440     -0.17555935421941      0.25651448582162
  C   -0.62277418378719      0.22991725913855     -0.39835253141783
  Br  0.68504362951857      0.25177565886616      2.17477162086853
  H   -0.50352929301315     -0.07033677119317     -1.44976056197334
  N   0.88299416800786     -1.61153095497456      0.14273590818803
  H   1.01382026457729     -1.84334691388140     -0.83885081500612
  H   1.71119698687331     -1.91468144762919      0.64363215720585
  C   1.83334392677678      0.58771973511838     -0.32626126445677
  N   2.75911190687214      1.09612224816257     -0.84387474900303
  N   -0.74342516324156      1.66393101021635     -0.37204471960371
  H   -1.56468792289270      1.93119016074559     -0.90091375237731
  H   -0.86984737323153      1.98577432106090      0.58134770794621
  N   -1.77569780563350     -0.47499057914358      0.11884684512297
  H   -1.94223283499765     -0.18500101711616      1.07674496825611
  H   -1.58631738254309     -1.47198335515107      0.13446470042880
