15
Coordinates from ORCA-job run
  C   0.80800253060296     -0.15608341343927      0.11699648521833
  C   -0.64834626271924      0.07113230839646     -0.37380855750291
  Br  0.86122583358149      0.45486193442591      2.09753882596839
  H   -0.61017029761609     -0.22693267653170     -1.42780932116208
  N   1.18006109741954     -1.48525691900591     -0.07071053616011
  H   0.45766232681778     -2.10461848922843      0.27738224848032
  H   2.10407044722041     -1.71889126884819      0.26422923081820
  C   1.72608060027749      0.76825681422832     -0.54168007398521
  N   2.42990169528234      1.51077906302480     -1.12046144634559
  N   -1.13890066426156      1.42671255389749     -0.32494084125190
  H   -1.04197894855406      1.81094227587951      0.60802051245693
  H   -0.63748440822825      2.02369763309641     -0.97233930390960
  N   -1.47862638984138     -0.88950599350130      0.32323914652575
  H   -1.62717129108174     -0.57088092973742      1.27534290957421
  H   -2.38332626889967     -0.91421289265670     -0.13199927872475
