14

C	-0.323938	-0.05844	-1.492658
C	0.0	0.0	0.0
Br	-0.152866	1.873726	-2.212836
H	1.101892	0.0	0.0
H	-0.41236	0.898438	0.455045
N	0.567378	-0.95458	-2.102163
H	0.481918	-0.999123	-3.10807
H	1.527222	-0.762086	-1.81295
C	-1.715632	-0.395195	-1.799907
N	-2.828375	-0.651534	-2.073733
N	-0.565701	-1.193167	0.639858
H	0.010852	-1.980893	0.361549
H	-0.438904	-1.089647	1.640318
Cl	3.454292	0.0	0.0
