14

C	-0.473834	0.051318	-1.444363
C	0.0	0.0	0.0
Br	-2.574779	0.550679	-1.281514
H	1.0939	0.0	0.0
H	-0.309072	0.946578	0.462275
N	0.216938	0.961483	-2.20548
H	-0.106324	1.117625	-3.146071
H	0.522501	1.7909	-1.718753
C	-0.576376	-1.244866	-2.105633
N	-0.631291	-2.244838	-2.720506
N	-0.510185	-1.175077	0.676879
H	0.231306	-1.584898	1.227523
H	-1.289838	-0.950376	1.276046
Cl	3.419537	0.0	0.0
