14

C	-0.487763	-0.020905	-1.437005
C	0.0	0.0	0.0
Br	-2.677985	-0.288796	-1.218419
H	1.093866	0.0	0.0
H	-0.361541	-0.895904	0.511509
N	-0.199274	1.135168	-2.09447
H	-0.545754	1.236588	-3.034318
H	-0.303276	1.935472	-1.480785
C	-0.183638	-1.226524	-2.191278
N	0.063037	-2.199002	-2.804729
N	-0.418136	1.262405	0.602797
H	-1.293541	1.155648	1.097656
H	0.302056	1.562392	1.246344
Cl	3.399096	0.0	0.0
