14

C	-0.272969	0.097744	-1.493576
C	0.0	0.0	0.0
Br	-2.183973	0.524368	-1.8845
H	1.105232	0.0	0.0
H	-0.401462	-0.929212	0.407458
N	0.540858	1.161131	-2.0242
H	1.501252	1.009176	-1.701859
H	0.52072	1.168603	-3.036784
C	-0.066862	-1.206961	-2.143027
N	0.112319	-2.237445	-2.680749
N	-0.547432	1.154221	0.717916
H	-0.043538	1.204117	1.597186
H	-0.261979	1.977524	0.196209
Cl	3.419444	0.0	0.0
