14

C	-0.27351	0.126277	-1.49222
C	0.0	0.0	0.0
Br	-2.178105	0.572871	-1.877086
H	1.105416	0.0	0.0
H	-0.40232	-0.936047	0.390359
N	0.547033	1.193459	-2.003052
H	0.517135	1.227906	-3.01516
H	1.508259	1.027319	-1.69231
C	-0.070947	-1.168451	-2.163663
N	0.11136	-2.18795	-2.720812
N	-0.548924	1.140346	0.737859
H	-0.235732	1.97409	0.24895
H	-0.068299	1.154198	1.632567
Cl	3.421283	0.0	0.0
