14

C	0.0	0.0	0.0
C	-0.389884	-0.543776	-1.382371
F	1.386438	0.0	0.0
H	0.553932	-0.572338	-1.939528
H	-0.367338	1.009424	0.157519
H	-0.353075	-0.657284	0.792813
N	-1.175376	0.447754	-2.208512
O	-1.878938	0.003131	-3.107601
O	-0.928647	1.636518	-2.031359
C	-1.009829	-1.92462	-1.384112
H	-0.311693	-2.606951	-0.886583
H	-1.958236	-1.898079	-0.848887
H	-1.175536	-2.273827	-2.403453
Cl	-3.350393	0.0	0.0
