14

C	0.0	0.0	0.0
C	-0.511571	-0.126697	-1.414819
F	1.385593	0.0	0.0
H	-1.597325	-0.277369	-1.323456
H	-0.363175	0.933691	0.429636
H	-0.34421	-0.835812	0.604396
N	0.042236	-1.394099	-2.006348
O	0.453603	-1.37216	-3.167863
O	0.023967	-2.401067	-1.301908
C	-0.185793	1.066016	-2.286318
H	-0.557802	0.927704	-3.29999
H	-0.680223	1.938295	-1.853565
H	0.890483	1.243118	-2.328871
Cl	-3.486892	0.0	0.0
