17
Coordinates from ORCA-job run
  C   -0.83934997983542     -0.30058543027551     -0.37944781255483
  C   0.70520792338083     -0.38024103879269     -0.33599375350122
  Cl  -1.28357504527202     -0.19155527551002     -2.12276140050544
  H   1.01422928541770     -1.19151462927330     -0.99587981675059
  C   -1.45078794551586      0.88775120135978      0.35094356133094
  H   -1.10310675225298      1.82016769240498     -0.09343421460860
  H   -1.17232448909178      0.86106204416685      1.40457440425780
  H   -2.53665090528383      0.84452520481549      0.26086558126510
  C   -1.40171812012306     -1.55320451999523      0.12994126158454
  N   -1.85318437973765     -2.54620660294604      0.56790409573710
  N   1.12460822639316     -0.83798707103666      1.03624754654634
  O   1.02191819877165     -0.02847124433858      1.95657796998839
  O   1.54079279084352     -1.98965805512302      1.13303583309986
  C   1.41771830809687      0.91585231312388     -0.66493525112307
  H   2.49474959123958      0.73889890980935     -0.69392057454157
  H   1.21482682025895      1.67432476975216      0.08940220366874
  H   1.10464647271034      1.27884173185854     -1.64411963389350
