18

C	-0.362685	0.027046	-1.49302
C	0.0	0.0	0.0
Br	-2.333824	0.291889	-1.708295
H	1.098808	0.0	0.0
C	0.35709	1.153759	-2.213374
H	1.431356	0.994456	-2.08109
H	0.078977	2.091982	-1.737074
H	0.102864	1.171538	-3.274777
C	-0.097261	-1.256689	-2.13725
N	0.120658	-2.289033	-2.656444
C	-0.499276	-1.230678	0.740786
H	-0.12174	-1.195781	1.765827
H	-1.594259	-1.257116	0.769385
H	-0.136199	-2.153785	0.283913
N	-0.40241	1.26774	0.602482
H	0.299699	1.527445	1.285469
H	-1.294598	1.164901	1.073612
Br	3.551109	0.0	0.0
