18

C	-0.41139	-0.031049	-1.481216
C	0.0	0.0	0.0
Br	0.040344	1.70418	-2.32783
H	1.102786	0.0	0.0
C	0.356157	-1.102946	-2.251368
H	0.04472	-2.094392	-1.91588
H	0.161204	-1.022384	-3.321761
H	1.422832	-0.971919	-2.051511
C	-1.857016	-0.187264	-1.636047
N	-3.007624	-0.387499	-1.772585
C	-0.472304	-1.261469	0.714933
H	-0.097699	-1.233776	1.742268
H	-1.56474	-1.313762	0.742119
H	-0.068817	-2.166182	0.260179
N	-0.598842	1.155705	0.669319
H	-0.428838	1.046924	1.663869
H	-0.082349	1.983153	0.389516
Br	3.622473	0.0	0.0
