18

C	-0.415483	-0.023234	-1.477947
C	0.0	0.0	0.0
Br	0.115152	1.686248	-2.332477
H	1.102792	0.0	0.0
C	0.295747	-1.134305	-2.245788
H	1.367473	-1.059914	-2.044027
H	-0.071153	-2.107574	-1.912437
H	0.108544	-1.042274	-3.316648
C	-1.867179	-0.109531	-1.628676
N	-3.026317	-0.253461	-1.762905
C	-0.474924	-1.26144	0.712708
H	-0.042703	-2.162154	0.276415
H	-0.130093	-1.219814	1.750271
H	-1.566987	-1.330805	0.711572
N	-0.595701	1.15784	0.670556
H	-0.393874	1.065767	1.66089
H	-0.097456	1.987707	0.364864
Br	3.623817	0.0	0.0
