18

C	-0.306798	0.039393	-1.518364
C	0.0	0.0	0.0
Br	-2.266104	0.341038	-1.829989
H	1.099139	0.0	0.0
C	0.462202	1.152798	-2.214899
H	0.158603	2.118515	-1.809125
H	1.526771	0.994875	-2.007742
H	0.279654	1.146415	-3.290614
C	-0.02818	-1.242974	-2.158137
N	0.191328	-2.275373	-2.677097
C	-0.551644	-1.225878	0.70105
H	-0.197338	-1.20662	1.732168
H	-1.646438	-1.212742	0.710096
H	-0.210283	-2.151018	0.232317
N	-0.389877	1.210139	0.707524
H	0.301036	1.934517	0.560487
H	-1.299453	1.541061	0.406286
Br	3.556279	0.0	0.0
