18

C	-0.481091	0.015954	-1.478213
C	0.0	0.0	0.0
Br	0.427891	-1.397687	-2.510471
H	1.095274	0.0	0.0
C	-1.985672	-0.201706	-1.643228
H	-2.259494	-1.194859	-1.287818
H	-2.539302	0.549241	-1.07083
H	-2.271291	-0.113237	-2.692651
C	-0.119898	1.288075	-2.104316
N	0.075002	2.337764	-2.597297
C	-0.500937	-1.220117	0.756851
H	-1.572962	-1.148519	0.971056
H	0.031669	-1.254032	1.707829
H	-0.302022	-2.147455	0.216191
N	-0.39405	1.210924	0.713098
H	-1.351799	1.481996	0.524034
H	0.222823	1.972829	0.458833
Br	3.58672	0.0	0.0
