18

C	-0.363123	0.02767	-1.492981
C	0.0	0.0	0.0
Br	-2.333507	0.29623	-1.707068
H	1.098867	0.0	0.0
C	0.358699	1.152756	-2.213687
H	1.432672	0.990703	-2.082462
H	0.103498	1.17157	-3.274835
H	0.083472	2.091566	-1.736649
C	-0.100738	-1.256504	-2.137413
N	0.114767	-2.289088	-2.656652
C	-0.500127	-1.230335	0.740611
H	-0.137657	-2.153685	0.283773
H	-0.122928	-1.19578	1.765797
H	-1.595157	-1.255981	0.768856
N	-0.401425	1.267915	0.602862
H	-1.292663	1.165359	1.075865
H	0.302108	1.528132	1.284208
Br	3.551683	0.0	0.0
