18

C	-0.481098	0.018627	-1.477775
C	0.0	0.0	0.0
Br	0.433926	-1.385127	-2.516159
H	1.095257	0.0	0.0
C	-1.984597	-0.20804	-1.640738
H	-2.273302	-0.115788	-2.688806
H	-2.251795	-1.204623	-1.29006
H	-2.542279	0.535649	-1.062946
C	-0.126239	1.295388	-2.098024
N	0.097574	2.345678	-2.576808
C	-0.502504	-1.221222	0.754154
H	-1.573282	-1.146666	0.971357
H	0.032196	-1.259027	1.703505
H	-0.307212	-2.147855	0.210987
N	-0.391972	1.211689	0.714049
H	-1.335988	1.507428	0.497337
H	0.247912	1.960733	0.48138
Br	3.581535	0.0	0.0
