14

C	0.0	0.0	0.0
C	-0.277226	0.210948	-1.506503
Cl	1.77622	0.0	0.0
H	0.115721	-0.697849	-1.971511
H	0.366116	1.033355	-1.820392
N	-0.350094	1.294693	0.790514
O	-0.49181	1.154702	1.999248
O	-0.391354	2.349836	0.172861
N	-0.549494	-1.156241	0.541202
H	-0.391748	-1.161279	1.5431
H	-1.572262	-1.080442	0.383874
C	-1.571676	0.494624	-2.132886
N	-2.293373	0.788575	-3.014348
Cl	-3.398767	0.0	0.0
