14

C	0.0	0.0	0.0
C	-0.514915	0.160003	-1.439185
Cl	1.755738	0.0	0.0
H	-1.607145	0.269432	-1.351865
H	-0.085184	1.045652	-1.905807
N	-0.388098	1.309256	0.741978
O	-0.737355	1.226835	1.906986
O	-0.258735	2.341771	0.092815
N	-0.503472	-1.086039	0.747051
H	-0.258515	-1.952239	0.280384
H	-1.526711	-0.987507	0.75855
C	-0.196347	-1.028538	-2.213653
N	0.058637	-1.993346	-2.832436
Cl	-3.514463	0.0	0.0
