14

C	0.0	0.0	0.0
C	-0.508384	0.129963	-1.424733
Cl	1.822885	0.0	0.0
H	-1.605682	0.190141	-1.355934
H	-0.126535	1.047698	-1.869772
N	-0.29665	1.353449	0.741266
O	-0.328204	2.382102	0.078486
O	-0.420251	1.272266	1.956146
N	-0.521156	-1.105596	0.656386
H	-0.275757	-1.082562	1.638788
H	-1.545913	-1.057407	0.558655
C	-0.112255	-1.01584	-2.232529
N	0.204208	-1.905742	-2.92928
Cl	-3.505278	0.0	0.0
