14

C	0.0	0.0	0.0
C	-0.505112	-0.624177	-1.30942
Cl	1.755595	0.0	0.0
H	-0.080833	-0.115055	-2.174082
H	-1.598674	-0.502035	-1.298402
N	-0.388801	1.502214	-0.049486
O	-0.623688	2.061023	1.007494
O	-0.355495	2.026497	-1.15755
N	-0.506724	-0.536596	1.203071
H	-0.251469	-1.515736	1.265057
H	-1.530477	-0.454047	1.155336
C	-0.165182	-2.040074	-1.340087
N	0.114699	-3.180444	-1.354318
Cl	-3.499459	0.0	0.0
