14

C	0.0	0.0	0.0
C	-0.553735	-0.470736	-1.342872
Cl	1.754294	0.0	0.0
H	-0.477754	-1.561261	-1.333907
H	-1.622567	-0.213141	-1.353879
N	-0.332602	1.527387	0.16542
O	-0.495327	2.193687	-0.84691
O	-0.361525	1.940724	1.318784
N	-0.538668	-0.765259	1.042523
H	-1.562539	-0.734378	0.929146
H	-0.302242	-0.33312	1.928421
C	0.130686	0.035569	-2.523889
N	0.670273	0.365873	-3.512533
Cl	-3.532332	0.0	0.0
