14

C	0.0	0.0	0.0
C	-0.514934	0.277321	-1.404531
Cl	1.77423	0.0	0.0
H	-0.133734	1.236452	-1.754009
H	-1.612623	0.322458	-1.342832
N	-0.333525	1.254537	0.887895
O	-0.413433	2.34698	0.341927
O	-0.431812	1.036891	2.088299
N	-0.518582	-1.183802	0.51986
H	-0.229509	-1.309918	1.481437
H	-1.544655	-1.114113	0.467756
C	-0.098114	-0.779809	-2.318463
N	0.22406	-1.605735	-3.087516
Cl	-3.503678	0.0	0.0
