14

C	0.0	0.0	0.0
C	-0.533896	0.185882	-1.417053
Cl	1.766692	0.0	0.0
H	-1.609952	0.393143	-1.330074
H	-0.417672	-0.784306	-1.907854
N	-0.330363	1.280534	0.841241
O	-0.551037	2.324273	0.243499
O	-0.30137	1.131434	2.057644
N	-0.538223	-1.157272	0.574893
H	-1.562164	-1.079833	0.480524
H	-0.303883	-1.180124	1.561589
C	0.138308	1.198482	-2.218985
N	0.656839	1.972935	-2.932019
Cl	-3.526052	0.0	0.0
