16

C	0.0	0.0	0.0
C	-0.471649	0.006055	-1.457036
F	1.397324	0.0	0.0
H	-0.190169	0.925362	-1.967777
H	-1.571323	-0.118002	-1.39449
C	-0.457196	1.299141	0.628741
H	-0.007245	2.151073	0.111888
H	-1.551616	1.333048	0.570682
H	-0.140394	1.296485	1.673235
N	-0.48049	-1.091905	0.786642
H	-0.324155	-1.951728	0.270791
H	-1.504211	-0.950199	0.802574
N	0.121665	-1.083989	-2.258043
O	0.770171	-0.775888	-3.262327
O	-0.063228	-2.248732	-1.893009
H	-3.116143	0.0	0.0
