16

C	0.0	0.0	0.0
C	-0.461036	0.057173	-1.457596
F	1.39413	0.0	0.0
H	-0.182156	-0.86455	-1.96804
H	-1.555233	0.193421	-1.413494
C	-0.439956	1.204025	0.802436
H	-1.532016	1.262307	0.753361
H	0.012558	2.113618	0.408285
H	-0.118956	1.046065	1.834111
N	-0.517704	-1.18264	0.619104
H	-1.544321	-1.019932	0.63486
H	-0.358808	-1.978253	0.006321
N	0.166651	1.147012	-2.240128
O	-0.214499	2.301996	-2.038936
O	1.045853	0.83941	-3.051355
H	-3.110776	0.0	0.0
