14

C	-0.449126	0.001543	-1.438711
C	0.0	0.0	0.0
Br	0.002069	-1.633495	-2.364173
H	1.093194	0.0	0.0
H	-0.012634	0.816874	-2.015233
H	-0.358776	-0.910487	0.48519
N	-1.942513	0.198889	-1.530078
O	-2.329296	1.215684	-2.108627
O	-2.665164	-0.624992	-0.978149
C	-0.494077	1.247226	0.730007
H	-1.581206	1.259215	0.851669
H	-0.036829	1.280331	1.720646
H	-0.192137	2.155885	0.202299
Br	3.624852	0.0	0.0
