14

C	-0.582221	0.016382	-1.391711
C	0.0	0.0	0.0
Br	0.130564	1.422611	-2.517115
H	1.091648	0.0	0.0
H	-1.661862	0.154473	-1.389431
H	-0.329356	-0.938178	0.465925
N	-0.376999	-1.304878	-2.087773
O	0.764057	-1.703884	-2.265365
O	-1.413852	-1.904092	-2.38994
C	-0.495996	1.185209	0.821728
H	-1.589073	1.230145	0.871658
H	-0.106083	1.107531	1.837586
H	-0.128793	2.123495	0.404411
Br	3.691538	0.0	0.0
