14

C	-0.580548	0.019987	-1.394139
C	0.0	0.0	0.0
Br	0.099913	1.459284	-2.495888
H	1.091676	0.0	0.0
H	-1.665067	0.116821	-1.399184
H	-0.331712	-0.942888	0.454653
N	-0.32452	-1.290583	-2.091815
O	-1.330865	-1.926178	-2.42153
O	0.83373	-1.646556	-2.241943
C	-0.504142	1.177936	0.827557
H	-0.135937	1.085254	1.851207
H	-0.122316	2.118928	0.428446
H	-1.59841	1.227634	0.856657
Br	3.666147	0.0	0.0
