14

C	-0.452537	0.025193	-1.44585
C	0.0	0.0	0.0
Br	0.107004	-1.512737	-2.462939
H	1.093039	0.0	0.0
H	-0.07356	0.90484	-1.963655
H	-0.317248	0.958865	0.427185
N	-1.959814	0.158062	-1.486159
O	-2.667154	-0.837451	-1.580113
O	-2.366735	1.310054	-1.327957
C	-0.540522	-1.159188	0.824221
H	-0.107083	-1.114149	1.825592
H	-0.252646	-2.115847	0.386236
H	-1.629824	-1.136423	0.919357
Br	3.617722	0.0	0.0
