14

C	-0.418703	-0.025545	-1.454922
C	0.0	0.0	0.0
Br	-2.303938	-0.487423	-1.715715
H	1.094611	0.0	0.0
H	0.148296	-0.758732	-2.027521
H	-0.316455	-0.955683	0.427358
N	-0.110646	1.307473	-2.1013
O	1.031789	1.38211	-2.538172
O	-0.939655	2.227184	-2.024028
C	-0.538248	1.169497	0.809604
H	-0.222272	1.05463	1.848644
H	-1.628877	1.231741	0.779549
H	-0.12561	2.114002	0.450044
Br	3.524792	0.0	0.0
