12

C	-0.499639	-0.039446	-1.435093
C	0.0	0.0	0.0
Br	0.001796	1.632202	-2.311093
H	1.091378	0.0	0.0
H	0.004386	-0.835529	-1.982087
H	-0.393399	0.847059	0.558108
C	-1.946479	-0.201665	-1.534754
N	-3.112708	-0.332389	-1.596585
N	-0.434357	-1.23171	0.708966
O	-0.60469	-1.15369	1.921753
O	-0.555277	-2.25844	0.038703
Cl	3.266055	0.0	0.0
