12

C	-0.469713	0.019108	-1.436901
C	0.0	0.0	0.0
Br	-2.436165	0.100616	-1.565791
H	1.093315	0.0	0.0
H	-0.111677	0.923288	-1.928804
H	-0.396507	-0.839703	0.566374
C	-0.029148	-1.166367	-2.156802
N	0.298264	-2.122595	-2.755416
N	-0.432721	1.239987	0.690121
O	-0.387399	2.28921	0.051955
O	-0.76911	1.139569	1.867432
Cl	3.233707	0.0	0.0
