12

C	-0.613294	-0.04036	-1.390481
C	0.0	0.0	0.0
Br	0.400799	-1.136947	-2.645643
H	1.091364	0.0	0.0
H	-1.601612	-0.500765	-1.355397
H	-0.335045	0.882445	0.548704
C	-0.742321	1.305651	-1.934023
N	-0.898534	2.392476	-2.351291
N	-0.444373	-1.166194	0.814231
O	-0.231858	-1.090696	2.018761
O	-0.971637	-2.124471	0.246748
Cl	3.259743	0.0	0.0
