12

C	-0.482648	0.049049	-1.430224
C	0.0	0.0	0.0
Br	-2.439015	0.276625	-1.526159
H	1.093733	0.0	0.0
H	-0.073417	0.963969	-1.86455
H	-0.346983	0.877808	0.542925
C	-0.100457	-1.06521	-2.288296
N	0.22715	-1.903347	-3.042696
N	-0.494805	-1.174445	0.754594
O	-0.701878	-2.216942	0.138206
O	-0.634591	-1.027491	1.966328
Cl	3.233092	0.0	0.0
