12

C	-0.499	-0.021443	-1.435835
C	0.0	0.0	0.0
Br	0.002458	1.661855	-2.287924
H	1.091421	0.0	0.0
H	0.006538	-0.809823	-1.99243
H	-0.393546	0.840006	0.568813
C	-1.945419	-0.183707	-1.540217
N	-3.110965	-0.317722	-1.60888
N	-0.434597	-1.23992	0.694156
O	-0.551854	-2.260228	0.013097
O	-0.608709	-1.174609	1.907269
Cl	3.264738	0.0	0.0
