12

C	-0.512463	-0.098346	-1.422994
C	0.0	0.0	0.0
Br	0.121205	1.333479	-2.583841
H	1.088245	0.0	0.0
H	-0.059705	-1.002071	-1.838992
H	-0.325551	-0.880546	0.561282
C	-1.963287	-0.215358	-1.528634
N	-3.123484	-0.378061	-1.615909
N	-0.523509	1.165791	0.757189
O	-0.177597	1.237338	1.931633
O	-1.266299	1.962427	0.182574
Cl	3.275125	0.0	0.0
