12

C	-0.478936	0.160626	-1.421936
C	0.0	0.0	0.0
Br	-2.434518	0.40374	-1.503809
H	1.096674	0.0	0.0
H	-0.065168	1.104288	-1.784549
H	-0.345346	0.831828	0.611342
C	-0.10609	-0.885407	-2.366454
N	0.172662	-1.651841	-3.211692
N	-0.493255	-1.23015	0.659211
O	-0.689101	-2.223785	-0.036592
O	-0.641843	-1.177115	1.877178
Cl	3.233148	0.0	0.0
