15
Coordinates from ORCA-job run
  C   -0.56440237595895     -0.45934580468595     -0.51375483069872
  C   0.45142871441574      0.55873532345724      0.02603831226659
  F   -0.07397046407570     -0.83263170121336     -1.79604938878510
  H   0.35164717818120      1.44073660784333     -0.62878679041651
  N   -1.86732574528961      0.05747001692422     -0.57324561174564
  H   -2.50299648311617     -0.57084472443529     -1.04551188070033
  H   -1.89220167088129      0.97874950594962     -0.98658968122341
  C   -0.55194625012574     -1.69140852893108      0.29791380740607
  N   -0.56722476669497     -2.65894454322923      0.96154939011833
  N   1.76446579048403     -0.06806757604520     -0.03206254012366
  H   2.46565883406887      0.59076187695574      0.28355206414616
  H   1.98837270779514     -0.34395139451926     -0.98043077791242
  N   0.08303791061958      0.96213182442868      1.35787152453287
  H   0.57275196783065      1.80760492198814      1.62030883887616
  H   0.34370465274720      0.22900419551241      2.00919756425963
