15
Coordinates from ORCA-job run
  C   -0.57172873575008     -0.44329950047723     -0.53928805289442
  C   0.56942656657411      0.48360698008335     -0.09289385565320
  F   -0.36288697485845     -0.75073952471114     -1.88396512866155
  H   0.53972439964132      1.32962274709725     -0.80093513996623
  N   -1.83362825497805      0.18592059868544     -0.33773782680601
  H   -2.59444691159659     -0.44985596788748     -0.54356287341579
  H   -1.90692558478481      0.98972388244526     -0.95206964901782
  C   -0.52217462838929     -1.71258283877523      0.20914554051815
  N   -0.47762228688801     -2.73381116662156      0.78492911096849
  N   1.83100719906502     -0.19029733626470     -0.27696937600531
  H   2.57826023553403      0.46719348110991     -0.44926764377068
  H   2.04351661418872     -0.71931723031699      0.56142011996155
  N   0.32947565907136      0.83263375062924      1.29581075319618
  H   -0.61352179444779      1.17699605214937      1.42677336536719
  H   0.99252449761851      1.53520607285452      1.59761065617946
