15
Coordinates from ORCA-job run
  C   -0.49157244335405     -0.66127963891861     -0.39703631411708
  C   0.71170614273705      0.00052111817878      0.28343984113034
  F   0.02410547880781     -1.28305640308142     -1.56560507529934
  H   1.44718300347643     -0.79222468550299      0.47288200212511
  N   -1.47207025066593      0.30408766210596     -0.68357477825743
  H   -1.05095963766130      1.05907148310541     -1.21177878451791
  H   -2.27738952627223     -0.08544443091995     -1.15390690916304
  C   -1.05095557786112     -1.74644325642755      0.42560336992974
  N   -1.51782579168313     -2.62364809517174      1.04926105993196
  N   0.27927819298577      0.52010821560663      1.54841864601397
  H   1.05749206301359      0.83459715099678      2.11186295090341
  H   -0.37808876508311      1.27669380382710      1.40735096214816
  N   1.19399568978613      1.02158857171155     -0.65378081608116
  H   1.64332197010169      0.57413350491946     -1.44552736799844
  H   1.88277945167239      1.59929499957058     -0.18760878674830
