15
Coordinates from ORCA-job run
  C   -0.56378516922616     -0.44556784016938     -0.54681041463945
  C   0.56693702147334      0.48702557685450     -0.08587402200960
  F   -0.34007541898941     -0.74723102107059     -1.89002972253323
  H   0.53851850344866      1.33541596701572     -0.79122261964170
  N   -1.83141146304048      0.17557737059608     -0.35522704168401
  H   -2.58637851266838     -0.46332392885091     -0.57309746226128
  H   -1.90239526255693      0.98251252447628     -0.96583318600047
  C   -0.51366199289059     -1.71661290304187      0.19877557163613
  N   -0.46770527000061     -2.73874257875625      0.77289938258916
  N   1.83500864871331     -0.17756306183931     -0.26022494163971
  H   2.04379143812973     -0.70706687193327      0.57885720696462
  H   2.57882242133815      0.48637152727562     -0.42275382389861
  N   0.31144418603542      0.82939241021795      1.30158673975530
  H   -0.63567405507642      1.16430977769966      1.42571923112269
  H   0.96556492531037      1.53650305152577      1.61223510224018
