15
Coordinates from ORCA-job run
  C   -0.52905403067719     -0.65501306857245     -0.19832797199200
  C   0.37861371354439      0.53138178357187      0.17685328930259
  F   0.24436940112860     -1.82544457645959      0.00503819185780
  H   -0.28409297744464      1.40438087913363      0.22681476370036
  N   -0.98506617806391     -0.56572608742880     -1.50867866837511
  H   -1.95356745455684     -0.73804818558077     -1.70326790270031
  H   -0.49536693310033      0.10972012550996     -2.07325329598218
  C   -1.64404866682006     -0.75505309858070      0.76564551912699
  N   -2.52859093186802     -0.80059305906898      1.53605158534832
  N   1.28314166368942      0.75630128738951     -0.94020556045912
  H   1.75654446781467      1.64188091010085     -0.80686057191627
  H   1.99623931665714      0.03482011126403     -0.89764349736049
  N   1.05479489299171      0.27881087820350      1.43877937727741
  H   0.67451721260329     -0.51054469994689      1.94201461651188
  H   1.03256650410176      1.09212680046485      2.03704012566013
