15
Coordinates from ORCA-job run
  C   -0.53641736085318     -0.67836182347719     -0.17162574115940
  C   0.24692459990276      0.57889159769650      0.23135797717609
  F   0.38105483001859     -1.75434818879760      0.02173046361377
  H   -0.46702774588647      1.40813792392261      0.24528045854486
  N   -0.97632295912496     -0.62909109595573     -1.49139912799186
  H   -1.92080165936722     -0.89860146747203     -1.69506265179536
  H   -0.56582314219952      0.10351240575938     -2.04623247053185
  C   -1.64778268743254     -0.93079345576988      0.76193335914061
  N   -2.57952874389228     -1.12314054470627      1.44887243493093
  N   1.19209599011029      0.84617108216453     -0.84876509669333
  H   1.89254200023504      0.11319110722273     -0.87385791130419
  H   1.66203171045615      1.72879364274607     -0.69051237930431
  N   0.73591297085973      0.39219929936776      1.57960006983428
  H   1.38423574267667     -0.38435451609878      1.61304158598757
  H   1.19890645449693      1.22679403339790      1.91563902955220
