15
Coordinates from ORCA-job run
  C   -0.45200616397276     -0.65234787638011     -0.36318761766138
  C   0.76561270068469      0.07769515535106      0.24225022809302
  F   0.04713336078078     -1.41119936085533     -1.45157405601209
  H   1.50202644878439     -0.69739240490572      0.49453592887275
  N   -1.43212837233442      0.27920239567626     -0.74230403639047
  H   -1.00116035274445      0.99467760870829     -1.31683848525115
  H   -2.22686791340444     -0.14849084609740     -1.19715650446264
  C   -0.99827820375239     -1.62614464136654      0.59895663230742
  N   -1.39215571733479     -2.38998463349220      1.39833218457163
  N   0.46401536447394      0.82444144754270      1.43752208731449
  H   0.33713832680535      0.20519806988700      2.22761514438220
  H   -0.39123193897743      1.35020675975312      1.29743791005520
  N   1.21860736925029      1.01491069064399     -0.77403204836239
  H   1.86467595921199      1.65700468939821     -0.33265500936899
  H   1.69561913252926      0.52222294613668     -1.51890235808760
