13

C	0.0	0.0	0.0
C	-0.321278	-0.980066	-1.159508
Br	2.021005	0.0	0.0
H	-0.022058	-1.98263	-0.837388
H	-0.273156	-0.409628	0.972474
H	0.328774	-0.718225	-1.999384
N	-0.526473	1.316354	-0.111874
H	-1.490949	1.296857	0.216941
H	-0.528896	1.612436	-1.080676
N	-1.67826	-1.008596	-1.647193
H	-2.390248	-1.057876	-0.919563
H	-1.905664	-0.15994	-2.147115
Cl	-4.238072	0.0	0.0
