16

C	0.0	0.0	0.0
C	-0.519631	-0.058719	-1.424347
Br	2.017018	0.0	0.0
H	-1.626207	-0.083034	-1.293455
H	-0.182	0.801496	-1.997708
C	-0.409028	1.353504	0.566018
H	-0.062385	1.441523	1.599251
H	-0.003308	2.186813	-0.013877
H	-1.508926	1.351864	0.54415
N	-0.494351	-1.114852	0.736934
H	-1.524187	-1.065613	0.596933
H	-0.319153	-0.951595	1.723518
N	-0.098002	-1.254413	-2.185245
O	-0.62577	-2.330621	-1.91562
O	0.749287	-1.091569	-3.070156
H	-3.080033	0.0	0.0
