16

C	0.0	0.0	0.0
C	-0.50876	-0.043623	-1.427536
Br	2.022415	0.0	0.0
H	-1.616405	-0.023086	-1.309806
H	-0.122873	0.79151	-2.00916
C	-0.408817	1.341726	0.587781
H	-0.005197	2.186985	0.023169
H	-1.509685	1.337478	0.567967
H	-0.061219	1.412018	1.622203
N	-0.503532	-1.126052	0.71525
H	-0.387201	-0.94772	1.708928
H	-1.527802	-1.091515	0.528891
N	-0.139061	-1.273382	-2.166051
O	-0.750633	-2.308557	-1.909616
O	0.754303	-1.177492	-3.015155
H	-3.078419	0.0	0.0
