16

C	0.0	0.0	0.0
C	-0.581194	0.004232	-1.382647
Br	2.048389	0.0	0.0
H	-1.718524	-0.066191	-1.125295
H	-0.337186	0.921396	-1.914649
C	-0.386657	1.302275	0.667176
H	-1.487124	1.322186	0.639707
H	0.050113	2.155235	0.143502
H	-0.037118	1.313747	1.702642
N	-0.432263	-1.092705	0.753558
H	-0.326553	-1.970425	0.267929
H	-0.035905	-1.110428	1.680519
N	-0.158259	-1.092215	-2.251561
O	0.124676	-0.821395	-3.424894
O	-0.147931	-2.244642	-1.797255
H	-3.042329	0.0	0.0
