16

C	0.0	0.0	0.0
C	-0.631231	-0.040828	-1.360658
Br	2.042595	0.0	0.0
H	-1.765491	-0.119141	-1.055863
H	-0.432169	0.867485	-1.927103
C	-0.419147	1.30361	0.646177
H	-0.066519	1.347605	1.679571
H	-1.521424	1.276917	0.628693
H	-0.029046	2.165994	0.101564
N	-0.423464	-1.080238	0.790112
H	-0.339372	-1.9666	0.316612
H	0.011654	-1.088605	1.701462
N	-0.221649	-1.152276	-2.211758
O	-0.232601	-2.299746	-1.739136
O	0.074125	-0.906953	-3.386789
H	-3.075723	0.0	0.0
