16

C	0.0	0.0	0.0
C	-0.550884	-0.01271	-1.410948
Br	2.02712	0.0	0.0
H	-1.658812	0.100828	-1.241759
H	-0.321493	-0.951283	-1.913988
C	-0.486052	1.164952	0.824613
H	-1.588575	1.098583	0.772914
H	-0.134964	2.113284	0.425521
H	-0.142545	1.055838	1.857824
N	-0.433373	-1.215668	0.577921
H	-0.419628	-1.195127	1.587031
H	0.051521	-2.025317	0.220908
N	-0.027167	1.055816	-2.280468
O	0.585799	0.71676	-3.298459
O	-0.24711	2.226661	-1.963968
H	-3.231744	0.0	0.0
