16

C	0.0	0.0	0.0
C	-0.50729	0.05256	-1.440431
Br	1.969551	0.0	0.0
H	-1.607628	0.16723	-1.313286
H	-0.260676	-0.869598	-1.965542
C	-0.434234	1.200294	0.82181
H	-0.123505	1.037245	1.85518
H	-1.530474	1.226543	0.763393
H	-0.011041	2.128386	0.44313
N	-0.528608	-1.176442	0.632177
H	-1.559404	-1.001614	0.620531
H	-0.359923	-1.985609	0.037956
N	0.016896	1.147184	-2.28352
O	0.677467	0.834684	-3.27964
O	-0.247315	2.308922	-1.964725
H	-3.072738	0.0	0.0
