16

C	0.0	0.0	0.0
C	-0.522533	0.115594	-1.426142
Br	1.962309	0.0	0.0
H	-1.625417	0.208518	-1.295527
H	-0.250837	-0.774622	-1.987804
C	-0.418898	1.166964	0.886021
H	-0.096928	0.964037	1.912152
H	-1.515264	1.191203	0.84234
H	0.001407	2.117331	0.560965
N	-0.530045	-1.263577	0.447031
H	-1.562595	-1.112767	0.371343
H	-0.329975	-1.352241	1.439901
N	-0.02288	1.273292	-2.193484
O	0.652685	1.041304	-3.201824
O	-0.329166	2.405404	-1.812252
H	-3.078198	0.0	0.0
