12
Coordinates from ORCA-job run
  C   1.04292460692921     -0.30682200990665      0.55271004675414
  C   -0.40409025744469      0.02720600011739      0.19857802443234
  Cl  1.11574548493640     -1.91968973254023      1.29706901058356
  H   -1.01771106184155      0.04302496413003      1.09872464315727
  H   1.65467321219122     -0.31778463939307     -0.34968273830223
  H   1.44260978694384      0.41289314963851      1.26820904680996
  N   -1.03948926860614     -0.76404084319728     -0.80750321387996
  H   -0.42164940470014     -0.92848062361197     -1.59164786929583
  H   -1.34623878077358     -1.64703796269806     -0.42482638152427
  N   -0.36720569567335      1.45213538599673     -0.29334660876569
  O   -0.75600412712505      2.33140268022707      0.46922357076909
  O   0.09743550516382      1.61619363123754     -1.41850753073837
