12
Coordinates from ORCA-job run
  C   0.86713657780892     -0.39131421842315      0.89571252548754
  C   -0.37194387683964      0.00080076771533      0.11844867291146
  Cl  2.28624738991689     -0.57035839391629     -0.15247547139521
  H   -1.17523983810771      0.17093122618262      0.85465181931928
  H   1.08692581536701      0.37139080228338      1.63798138445209
  H   0.68924928773491     -1.34643143560384      1.39321863499842
  N   -0.66934276990363     -0.90903874375480     -0.94010578056685
  H   -0.70673461035035     -1.85887057873634     -0.59706191899116
  H   -1.53453319552205     -0.67282021939162     -1.40389316782723
  N   -0.18123344322289      1.38982369249638     -0.47286933854124
  O   0.34589178207133      2.22215790406307      0.25755964046301
  O   -0.63542311895279      1.59472919708527     -1.59116700031011
