12
Coordinates from ORCA-job run
  C   0.96556344553283     -0.43201626666921      0.77787480898193
  C   -0.39081610365218     -0.14334991980730      0.17185923370453
  Cl  1.33214217134083      0.69249936396745      2.10259784305428
  H   -1.17348094396384     -0.14312421407301      0.93001788132833
  H   1.74178208446445     -0.32753119405635      0.01993502070189
  H   0.95585118454117     -1.44572878172842      1.17323822983507
  N   -0.66999072042412     -1.09318818360679     -0.85272047184213
  H   -0.02203296826290     -0.98888389067334     -1.62389789325157
  H   -1.61699510006060     -1.00426857970659     -1.19712185494858
  N   -0.37515810373499      1.28731577497285     -0.35826853886831
  O   0.44735104991067      1.52100280823467     -1.24191498663029
  O   -1.19321599569130      2.07927308314602      0.09940072793485
