12
Coordinates from ORCA-job run
  C   0.91185299566900     -0.44285900988750      0.81720607075303
  C   -0.34140405678577     -0.03620831062957      0.08251624898839
  Cl  1.08264783070640      0.47905322385641      2.32554840251475
  H   -1.19190774983536      0.03577469706226      0.76963538452221
  H   0.84920388511330     -1.49910614111246      1.08175899816471
  H   1.78251128659315     -0.25992280128094      0.19273040419811
  N   -0.53875585267101     -0.87496125641126     -1.07672555768598
  H   -1.42750248478220     -0.65414058596466     -1.51064775123992
  H   -0.55271332309749     -1.84988221011482     -0.80551370972158
  N   -0.20838354259595      1.36584403639161     -0.47003345981876
  O   0.90964638673015      1.82998052211551     -0.65240590893184
  O   -1.27519537504421      1.90742783597543     -0.75306912174312
