12
Coordinates from ORCA-job run
  C   1.04824794690145     -0.54037550930572      0.54616444374954
  C   -0.30947219216681      0.00217366503775      0.17494325618050
  Cl  1.73475189790909      0.36680323528007      1.90968647500717
  H   -0.92248630450545      0.16840231666942      1.06768001906170
  H   0.94941292576168     -1.58066085161580      0.85862758823387
  H   1.72211627025921     -0.46154920322022     -0.30312875349712
  N   -0.90910309086528     -0.80692713953159     -0.85865362343938
  H   -1.86388583072316     -0.50900362768103     -1.01987038165137
  H   -0.92089363077562     -1.78069913721335     -0.58433957270141
  N   -0.18479870479436      1.38314867019520     -0.43339387471940
  O   -1.21558023079246      2.05242787549721     -0.39984914576206
  O   0.87269094379170      1.70725970588809     -0.95786643046203
