12
Coordinates from ORCA-job run
  C   0.87486608852460     -0.36999407087786      0.80985878623246
  C   -0.45472411180059      0.01616610056417      0.16705184338925
  Cl  2.15502291962207     -0.55828517361207     -0.41106168649114
  H   -1.18313039236077      0.14051726865445      0.97235340487362
  H   1.19029148579449      0.39483172810413      1.51818282845282
  H   0.75766870050830     -1.32744149142809      1.31817060838515
  N   -0.99806587512456     -0.82676605330401     -0.84258381770413
  H   -0.30877533126128     -1.07219719216763     -1.54018546663575
  H   -1.40043442569289     -1.66085988117176     -0.43906540634025
  N   -0.27174349587895      1.41473061616025     -0.39278880261771
  O   -0.22110344978238      1.54802405469327     -1.60764828496248
  O   -0.13887211254806      2.30327409438515      0.44571599341815
