15

C	-0.529721	-0.04291	-1.418922
C	0.0	0.0	0.0
Br	0.368128	-1.374262	-2.455252
H	1.09108	0.0	0.0
H	-0.313425	-0.937945	0.472742
N	-2.032647	-0.338012	-1.468449
O	-2.541078	-0.468868	-2.572562
O	-2.619567	-0.4066	-0.392093
N	-0.388273	1.337928	-2.059067
O	-1.401747	2.024702	-2.100464
O	0.736468	1.656463	-2.401674
N	-0.465445	1.202257	0.664941
H	0.286059	1.574142	1.229125
H	-1.276623	1.02375	1.237917
Br	3.541084	0.0	0.0
