15

C	-0.523421	-0.00621	-1.424641
C	0.0	0.0	0.0
Br	0.096395	-1.553857	-2.369245
H	1.097859	0.0	0.0
H	-0.321937	-0.947224	0.444813
N	-2.051166	-0.047342	-1.474456
O	-2.634919	-0.313771	-0.42941
O	-2.574867	0.147446	-2.563159
N	-0.136809	1.274792	-2.155786
O	0.910741	1.273993	-2.781216
O	-0.896093	2.220109	-1.98038
N	-0.459611	1.177318	0.709875
H	0.314595	1.572002	1.221962
H	-1.217383	0.961153	1.341034
Br	3.52183	0.0	0.0
