15

C	-0.520769	-0.016651	-1.420804
C	0.0	0.0	0.0
Br	0.297469	-1.376436	-2.476594
H	1.093008	0.0	0.0
H	-0.366903	0.915346	0.465013
N	-2.044443	-0.185368	-1.373052
O	-2.60662	0.752137	-0.813922
O	-2.572382	-1.178888	-1.835639
N	-0.349859	1.318859	-2.136091
O	0.284102	2.188771	-1.556094
O	-0.890802	1.411447	-3.232633
N	-0.55257	-1.17817	0.678625
H	-0.720637	-0.940356	1.647139
H	0.160834	-1.898195	0.677136
Br	3.548563	0.0	0.0
