15

C	-0.493208	-0.033004	-1.431419
C	0.0	0.0	0.0
Br	-2.416882	-0.057861	-1.573159
H	1.10364	0.0	0.0
H	-0.347255	-0.930041	0.456083
N	0.013629	1.142436	-2.256878
O	-0.385064	1.21076	-3.413296
O	0.80096	1.897748	-1.703589
N	0.07105	-1.289368	-2.094232
O	-0.431826	-2.346442	-1.73938
O	1.021652	-1.139386	-2.848699
N	-0.52549	1.175013	0.685087
H	0.249624	1.80774	0.836387
H	-0.891765	0.907959	1.586969
Br	3.530147	0.0	0.0
