11

C	-0.610254	0.0058	-1.37598
C	0.0	0.0	0.0
Cl	-0.128454	-1.421067	-2.331856
H	1.087578	0.0	0.0
H	-0.240945	0.884139	-1.903285
H	-1.697078	0.013525	-1.325624
H	-0.338459	0.898689	0.530193
N	-0.5246	-1.142225	0.802837
O	-1.728493	-1.387412	0.686812
O	0.241895	-1.729261	1.556183
Br	3.530174	0.0	0.0
