14
Coordinates from ORCA-job run
  C   -0.75678351805255      0.07548221985533     -0.22337572895146
  C   0.53735110425066     -0.52743035965308      0.31466636112772
  Cl  -1.10658398742604     -0.49228583808211     -1.86323297089280
  H   0.42727513886736     -1.61281833002941      0.25019812621477
  H   0.59132668086605     -0.25517114799487      1.37496446643498
  C   -0.73500199297955      1.53275630913114     -0.21008750438714
  N   -0.63165190022008      2.70335296090485     -0.22495679532951
  N   -1.88874897027065     -0.40978396138372      0.70422403851422
  O   -2.37396190217559      0.42441565798680      1.45756427027798
  O   -2.14438891041575     -1.60176524557804      0.65249428646367
  C   1.77896000182872     -0.04587165726236     -0.42299934263457
  H   1.73916619718937     -0.30779475005674     -1.48082023738300
  H   2.66333770723437     -0.51865141279533      0.00775234391473
  H   1.89970435130369      1.03556555495753     -0.33639131336958
