14
Coordinates from ORCA-job run
  C   -0.76192309797027      0.17036213582128     -0.43905045440037
  C   0.73284111572557      0.45479869203457     -0.28108614023479
  Cl  -1.08349692952524     -0.96730961742844     -1.74487350766396
  H   0.82344756208434      1.27888933679411      0.43183470469545
  H   1.08702572880025      0.81228080825510     -1.25143228662427
  C   -1.52009837751097      1.39575022397864     -0.66465446786019
  N   -2.09407023493798      2.39897509014384     -0.87706834359394
  N   -1.23774554101789     -0.41980929897301      0.90885852345824
  O   -1.26280398634087      0.40191194919900      1.81641420714986
  O   -1.46183618180887     -1.61472973934664      0.98105046502251
  C   1.53304869916270     -0.75322150007022      0.18888782125728
  H   1.27209826836682     -1.03189414655425      1.21155572469562
  H   1.37598496143767     -1.61844759499957     -0.45599061346408
  H   2.59652801353475     -0.50855633885441      0.17555436756265
