14
Coordinates from ORCA-job run
  C   -0.86939790205922      0.12189797081229     -0.40993425846438
  C   0.50515639014421     -0.44516353347029     -0.73960758414637
  Cl  -2.06632536873116     -0.37994081277880     -1.61375007877264
  H   0.38163287005254     -1.52457739247861     -0.85463714070625
  H   0.79497099003900     -0.03526257123484     -1.71078308785511
  C   -0.86025465049369      1.57620204850249     -0.31024159587520
  N   -0.79408398578474      2.74946284099025     -0.29542723354495
  N   -1.28645965937039     -0.46409781128052      0.95159654819153
  O   -1.41151199660918     -1.67802130600840      0.98511019838782
  O   -1.38912939048388      0.32012129766419      1.88615472080505
  C   1.54299490909211     -0.11707657147935      0.32812207144572
  H   1.63257506272044      0.95932148842192      0.48836878769955
  H   2.51828810226604     -0.49174645209333      0.01275527476189
  H   1.30254462921798     -0.59011919556701      1.28227337807340
