14

C	-0.550106	0.044663	-1.393564
C	0.0	0.0	0.0
F	-1.909549	0.276844	-1.425933
H	1.090382	0.0	0.0
H	-0.337176	0.931491	0.478395
C	0.091946	1.062687	-2.237624
N	0.513703	1.930614	-2.906653
N	-0.336223	-1.307279	-2.073679
O	-1.319427	-2.010572	-2.253408
O	0.821584	-1.567746	-2.363935
N	-0.450664	-1.219415	0.661871
H	0.337886	-1.567986	1.191354
H	-1.226959	-1.05937	1.287252
F	2.590463	0.0	0.0
