14

C	-0.531508	0.059535	-1.397136
C	0.0	0.0	0.0
F	-1.911301	-0.045079	-1.4477
H	1.090663	0.0	0.0
H	-0.371274	-0.938429	0.430347
C	-0.162992	1.280391	-2.124349
N	0.053438	2.273245	-2.711237
N	-0.011513	-1.147566	-2.172611
O	0.890111	-0.972773	-2.982362
O	-0.538784	-2.217191	-1.885104
N	-0.443291	1.202579	0.704484
H	0.361308	1.555411	1.207093
H	-1.181628	1.003869	1.3644
F	2.595588	0.0	0.0
