14

C	-0.469324	0.083789	-1.431007
C	0.0	0.0	0.0
F	0.06341	-0.898519	-2.195181
H	1.099882	0.0	0.0
H	-0.381201	0.876917	0.530124
C	-1.937608	0.039645	-1.579617
N	-3.109412	0.001952	-1.654229
N	-0.026087	1.421449	-2.027309
O	-0.517276	2.412753	-1.496021
O	0.762039	1.404855	-2.958612
N	-0.479347	-1.271833	0.544674
H	-1.071692	-1.124132	1.349841
H	0.342243	-1.780347	0.847387
F	2.604897	0.0	0.0
