14

C	-0.54005	0.00321	-1.411855
C	0.0	0.0	0.0
F	-0.231445	-1.167722	-2.041894
H	1.091218	0.0	0.0
H	-0.35939	-0.94072	0.439097
C	-2.002736	0.181671	-1.477699
N	-3.17722	0.213642	-1.471374
N	0.088027	1.126845	-2.231927
O	1.100537	0.849956	-2.855389
O	-0.469426	2.219203	-2.172538
N	-0.451814	1.195377	0.701666
H	0.362236	1.599999	1.145968
H	-1.142773	0.988571	1.409042
F	2.599784	0.0	0.0
