14

C	-0.524429	0.096525	-1.400766
C	0.0	0.0	0.0
F	-1.902604	0.13033	-1.4536
H	1.090643	0.0	0.0
H	-0.390067	-0.936133	0.420862
C	-0.032497	1.263364	-2.143801
N	0.264831	2.210602	-2.769054
N	-0.109154	-1.160093	-2.165321
O	0.965038	-1.13322	-2.748208
O	-0.872895	-2.114983	-2.078129
N	-0.419325	1.206749	0.712329
H	0.392723	1.535218	1.217694
H	-1.167704	1.029091	1.366594
F	2.587204	0.0	0.0
