14

C	-0.474763	-0.006137	-1.411962
C	0.0	0.0	0.0
F	-0.283477	1.202505	-2.034737
H	1.092778	0.0	0.0
H	-0.394375	0.898681	0.483224
C	0.138114	-1.071089	-2.218225
N	0.640065	-1.904555	-2.874117
N	-2.008155	-0.20531	-1.485618
O	-2.664949	0.372673	-0.625729
O	-2.47155	-0.855576	-2.418193
N	-0.45094	-1.261757	0.593471
H	-1.181463	-1.111327	1.275344
H	0.350595	-1.673564	1.05424
F	2.601988	0.0	0.0
