14

C	-0.571214	0.040415	-1.386297
C	0.0	0.0	0.0
F	-1.93153	0.26451	-1.395579
H	1.090378	0.0	0.0
H	-0.336168	0.930779	0.480348
C	0.050915	1.062055	-2.241921
N	0.475464	1.920373	-2.921566
N	-0.359407	-1.311541	-2.066309
O	-1.345338	-2.00829	-2.258482
O	0.800012	-1.578315	-2.344011
N	-0.44846	-1.217333	0.668404
H	-1.202411	-1.048536	1.318115
H	0.350934	-1.578578	1.17215
F	2.59487	0.0	0.0
