14
Coordinates from ORCA-job run
  C   -0.49366774519722     -0.14584815716534     -0.10187926481843
  C   0.77454216435731     -0.04848507101167      0.39123870569116
  C   -0.96846766317948      0.69570918108054     -1.24388212651007
  H   -1.84468233989629      1.28080210850356     -0.94465635609701
  H   -1.26751894574909      0.05534091584390     -2.07835278326142
  H   -0.17880260322256      1.36998534127053     -1.56398440150681
  N   -1.39294189244612     -1.08777050101894      0.34897926845018
  H   -2.36453679758825     -0.84104464263065      0.25077962580123
  H   -1.17564467836601     -1.53657305795926      1.22724707314798
  N   1.73115133332783      0.85273259798215     -0.17636040957267
  H   2.52067763528535      0.34526707607478     -0.55731266758135
  H   2.08536582328595      1.48890392789603      0.52755990841064
  C   1.14342564313014     -0.87548129477259      1.49927396269095
  N   1.43010006625845     -1.55353842409304      2.42034946515565
