14
Coordinates from ORCA-job run
  C   -0.39256428157534     -0.15057211583987     -0.21504115280809
  C   0.86113373935713     -0.23622189744770      0.31401533382505
  C   -1.11823679226526      1.15312130564740     -0.35647364689154
  H   -0.99030117009550      1.56576612893603     -1.36193487906546
  H   -0.77391728350475      1.88680604408222      0.37219195810862
  H   -2.19147597870850      1.00866912462461     -0.20189244367247
  N   -1.02558192465544     -1.23374741679000     -0.81662083753332
  H   -2.02449385826871     -1.25705404160582     -0.67579608959557
  H   -0.59486947674574     -2.13137944736229     -0.63840365514037
  N   1.70746201232244      0.85483395043098      0.64429407241574
  H   1.82473563217046      0.98110669456744      1.64137266604180
  H   1.41523973248228      1.71768775095037      0.21219645958160
  C   1.44315032534280     -1.53451952718118      0.46834960058251
  N   1.86071932414412     -2.62649655301220      0.61274261415148
