14
Coordinates from ORCA-job run
  C   -0.40509425116515     -0.13412411011569     -0.21666618034950
  C   0.84874727146572     -0.28037598930661      0.29962993584213
  C   -1.07331207620687      1.20490183762722     -0.31000245904662
  H   -0.73996750207782      1.88210396016352      0.47729483215276
  H   -2.15983220363791      1.10158282135413     -0.22609833890651
  H   -0.86689883191203      1.67006658899566     -1.28140394186715
  N   -1.07717166633513     -1.16889865292379     -0.85903021027393
  H   -2.07430257446096     -1.17010343086468     -0.70572602940706
  H   -0.67284882628445     -2.08553734659876     -0.71677100865290
  N   1.72414267174058      0.77371529046990      0.66681955193026
  H   1.46594686133981      1.66039609701411      0.26404773913584
  H   1.86788783966799      0.85407443787506      1.66500033385455
  C   1.38789253822749     -1.60061300424097      0.41214999726461
  N   1.77481074963871     -2.70718849944910      0.52975577832353
