14
Coordinates from ORCA-job run
  C   -0.51133235326753     -0.08195312724886     -0.07996516240684
  C   0.75121692763468     -0.05049824622632      0.43619985258819
  C   -0.90071300164954      0.72247772510572     -1.27940781382968
  H   -0.04854342316417      1.28979235510275     -1.64369606840367
  H   -1.71889452470286      1.40125065404606     -1.02332486983543
  H   -1.25683203431181      0.05993538767420     -2.07548135918623
  N   -1.53551014437295     -0.78561940483385      0.51425879773749
  H   -1.27368993153569     -1.47602966861159      1.20314403719962
  H   -2.27737446329688     -1.08236791829857     -0.09866530394129
  N   1.77259145312154      0.77518396139545     -0.13527667314231
  H   2.09979276033740      1.46043586001020      0.53610498213197
  H   2.56910344136283      0.21417005321263     -0.41196884849068
  C   1.04739836778828     -0.87307045963898      1.56880928614128
  N   1.28178692605669     -1.57270717168884      2.48826914343761
