14
Coordinates from ORCA-job run
  C   -0.51622882442900     -0.09439611391974     -0.00724552685693
  C   0.81064965674108     -0.05652327400997      0.30889250833397
  C   -1.10176638318374      0.76441351365111     -1.08305731764501
  H   -1.45117407817277      0.14661784388334     -1.91788834200340
  H   -1.96123359490261      1.31114425646237     -0.68648482866594
  H   -0.35578930624857      1.46493740824200     -1.45154778890814
  N   -1.42432345751187     -0.84665143369208      0.70435629512479
  H   -1.04530922630605     -1.56481723124206      1.30515852805322
  H   -2.24281563978510     -1.13458872132279      0.19384043798723
  N   1.71473053302076      0.82401466982106     -0.36953889105854
  H   2.15310127372272      1.45682196861395      0.28929702045790
  H   2.45117994088002      0.29330040601592     -0.81953086930018
  C   1.29355424060706     -0.91924981661844      1.34328735927044
  N   1.67542486556805     -1.64402347588467      2.19146141521059
