14
Coordinates from ORCA-job run
  C   -0.50251688489718     -0.05336267433875     -0.11281598712787
  C   0.78243454758158     -0.00992297312120      0.33915116678172
  C   -0.98273193563375      0.69856721688779     -1.31368769440097
  H   -0.17330661352653      1.24325361807050     -1.79785050512430
  H   -1.76165467825567      1.40835889753731     -1.02284542514057
  H   -1.41771651042529      0.00787579105635     -2.04331303897414
  N   -1.45604224843458     -0.73961798910280      0.59759387608402
  H   -2.23283284572056     -1.09820382115717      0.06594449979126
  H   -1.05980826409680     -1.37609546430918      1.27652058595493
  N   1.12163701630977     -0.77108096470393      1.50923081201070
  H   1.95789642514083     -1.31912737948245      1.34602546951101
  H   1.30539406105336     -0.15995739112067      2.29733275095575
  C   1.77772229067472      0.77458467998648     -0.31550116072200
  N   2.64052564023007      1.39472845379773     -0.82578534959956
