14
Coordinates from ORCA-job run
  C   -0.50614540138442     -0.17971419556559     -0.13775477168746
  C   0.68302529055367     -0.18904777542054      0.53036159982518
  C   -0.56117217601540      0.42888010504966     -1.50738396231631
  H   -0.63531894687376      1.52131090947431     -1.44485493971078
  H   -1.42483262850742      0.07008364849934     -2.07427752046796
  H   0.35202386128530      0.19614315101993     -2.05262209408314
  N   -1.68197885323772     -0.70877527772705      0.37052731807914
  H   -2.52588141139292     -0.29202534800657      0.01065715737333
  H   -1.70662598773327     -0.84625677451046      1.36972343435736
  N   1.85201852364625      0.36632247789240     -0.08364149275435
  H   1.77813904077450      1.36866562735353     -0.20760356035189
  H   2.67988526738576      0.15941498599118      0.45924037794487
  C   0.80545352079815     -0.74241910406638      1.83227830470358
  N   0.89040990070125     -1.15158242998377      2.93535014908843
