14
Coordinates from ORCA-job run
  C   -0.51020782588200      0.01612390292646     -0.08622590562364
  C   0.78981325150809     -0.10967228775193      0.30273867457949
  C   -0.92594907073795      0.48961052431401     -1.44304036632298
  H   -1.50779610135524     -0.28640105804953     -1.94753104285275
  H   -0.06618188669385      0.74296767210192     -2.06192847217479
  H   -1.56069050123564      1.37736791696075     -1.35533306672662
  N   -1.51939519706561     -0.38827486771882      0.75300197618048
  H   -2.40173645683475      0.08501617796603      0.64258031371749
  H   -1.20957356454764     -0.51237309880696      1.70783544485804
  N   1.06357016769546     -0.57941884887974      1.63242389736495
  H   1.45388308466854     -1.51493029157960      1.61106370265651
  H   1.73749659214952      0.02265112836867      2.09008739776476
  C   1.86591960192334      0.20054523814918     -0.58068346917830
  N   2.78984790640773      0.45478789199956     -1.26698908424265
