14
Coordinates from ORCA-job run
  C   -0.48464919182381     -0.11827559688321     -0.13708598689157
  C   0.77104480689860      0.06566623758357      0.35953689074122
  C   -0.98166498073995      0.52965730600678     -1.39064145823456
  H   -0.23383123951525      1.19097387295935     -1.82634447337784
  H   -1.24718330193581     -0.23534377150986     -2.12520924801494
  H   -1.88129277789779      1.11772454853208     -1.18226873240025
  N   -1.33699733721900     -1.00976037878172      0.46668259189876
  H   -1.03804289326441     -1.27013373261280      1.39736950403587
  H   -2.32095505573465     -0.81917101604170      0.36461183351734
  N   1.13494808011706     -0.61768166199778      1.56949570538397
  H   1.56106358648961      0.02558448304378      2.22583273282912
  H   1.80819280893693     -1.35203928105019      1.38018264563978
  C   1.71842151022909      0.90270547839575     -0.30135795952724
  N   2.53294598545938      1.59209351235593     -0.80180404559966
