14
Coordinates from ORCA-job run
  C   -0.51373009304106      0.00330938126105     -0.06210103348770
  C   0.80565539592190     -0.08821054573694      0.26661648748618
  C   -1.01639419661174      0.72130874259188     -1.27455354245195
  H   -1.60348337493711      0.04215096373086     -1.90115575284933
  H   -0.19934695594846      1.12004734634609     -1.87445631798030
  H   -1.66926377139528      1.54560935197551     -0.97520091839085
  N   -1.46854637464910     -0.49822240636414      0.78796622429825
  H   -2.33055505935546     -0.79462510106457      0.35901500894080
  H   -1.08613426982253     -1.13038986514155      1.47898935856647
  N   1.16500399084098     -0.79857023867720      1.46227972550309
  H   1.49808919753554     -0.15880529118095      2.17514332078111
  H   1.90952718946837     -1.45873574381442      1.27253819786974
  C   1.81757408624112      0.51348158143397     -0.53893821861917
  N   2.69160423575283      0.98165182464042     -1.17614253966633
