14
Coordinates from ORCA-job run
  C   -0.49608962782467     -0.06415669643400     -0.13554813705408
  C   0.76370154036812      0.01319447686400      0.37804775759163
  C   -0.92539814342505      0.64130783419441     -1.38289251540194
  H   -0.10097571055507      1.18571492589103     -1.84142573711904
  H   -1.31037769446457     -0.07865311747158     -2.11218877337329
  H   -1.72991772153181      1.34545494938402     -1.15464436445958
  N   -1.47554560965015     -0.74051774793548      0.54955744778637
  H   -1.10322542656283     -1.34826506433209      1.26740272634481
  H   -2.21531942996610     -1.13374069887186     -0.01011010274296
  N   1.05473261870398     -0.70506057611636      1.58765350377661
  H   1.90471629550116     -1.24625202445723      1.48304476127224
  H   1.19230867955055     -0.06591302137635      2.36282632991028
  C   1.78073162527264      0.79036039387386     -0.25166830983298
  N   2.66065860458379      1.40552636678765     -0.73805458669807
