14
Coordinates from ORCA-job run
  C   -0.33470611851528     -0.17360223212397     -0.35523978971924
  C   0.61365900808666      0.10719350291822      0.58244670812542
  C   -1.40703041630320      0.78792304070077     -0.76016884863856
  H   -1.30728958195394      1.74227977552177     -0.24470010385780
  H   -1.36140698524711      0.97371642877701     -1.83799660307944
  H   -2.39095987057618      0.36689518237642     -0.53622809919665
  N   -0.39750454352485     -1.42654666801106     -0.91363145565863
  H   0.44456522426812     -1.96598463934743     -0.76079869143550
  H   -0.78077952643587     -1.47620943891298     -1.84394660487589
  N   1.59095432644981     -0.90011790734260      0.88903611925901
  H   2.52435815153286     -0.50692476410092      0.86845749577811
  H   1.43959953943774     -1.27906149730194      1.81740680337348
  C   0.64516398578590      1.36291385285469      1.25842378280970
  N   0.72237680699536      2.38752536399203      1.83593928711599
