14
Coordinates from ORCA-job run
  C   -0.51331416673626     -0.09899778121946     -0.03951598642260
  C   0.78809289436985     -0.03688395348815      0.36530182612893
  C   -1.02407443054767      0.69846270884535     -1.19729552677367
  H   -1.81547110998473      1.37475754854598     -0.86282403211160
  H   -0.21486640880049      1.27258968883090     -1.64033084639880
  H   -1.45309035334896      0.03455833920660     -1.95541828555417
  N   -1.46653533708643     -0.82330895982982      0.64324924190225
  H   -2.24160982614435     -1.14794356988998      0.08781993334265
  H   -1.12626272913658     -1.50912676189060      1.30217888418249
  N   1.73465581125847      0.81878856403821     -0.28381724475506
  H   2.09171993975783      1.51367833000712      0.36107513020856
  H   2.52332846589937      0.28392008197761     -0.62655992382111
  C   1.19790900652714     -0.84799599412356      1.47086247962385
  N   1.51951824397281     -1.53249824101020      2.37527435044831
