14
Coordinates from ORCA-job run
  C   -0.49855717912918     -0.07589311014824     -0.11490419360972
  C   0.78334875496655      0.01777575577040      0.33815533588233
  C   -0.95221559029917      0.46755061061764     -1.43290716404192
  H   -1.77215159663016      1.17827137316727     -1.28720336933833
  H   -0.14571357022540      0.97774820416255     -1.95773001815786
  H   -1.32497214017949     -0.34499196707895     -2.06214693651826
  N   -1.43097511263869     -0.77998793020432      0.60640862608588
  H   -1.13877436517246     -0.95941449480348      1.55811870923860
  H   -2.38895176230182     -0.48910684152735      0.49469920167324
  N   1.09922055588034     -0.55080138249374      1.61898270583120
  H   1.67565993787533     -1.37849936322591      1.51435608664771
  H   1.61668007217662      0.11249076988757      2.18361112915162
  C   1.80227510651313      0.65092296624987     -0.43346515875799
  N   2.67612688916441      1.17493540962669     -1.02597495408650
