14
Coordinates from ORCA-job run
  C   -0.47105984257925     -0.14533489367420     -0.15702410712589
  C   0.75361158999566      0.10365559219233      0.38646654142587
  C   -0.97279429298220      0.51414338499208     -1.40260953373375
  H   -1.92007182708793      1.02620321612488     -1.20552040163512
  H   -0.26167079605967      1.24419769049473     -1.78677468242369
  H   -1.15772358059692     -0.23876747634028     -2.17357863133266
  N   -1.27801546683434     -1.11482309221889      0.38584308698108
  H   -0.99015437233007     -1.38994639066798      1.31576613096117
  H   -2.26917720264344     -0.98637411661790      0.25960716595716
  N   1.12667861357072     -0.59909627697258      1.58260116233054
  H   1.48816425048315      0.04577010335120      2.27522527181147
  H   1.85343915518880     -1.27928599394074      1.38898242077336
  C   1.66048337752483      1.02845224165151     -0.21123416043623
  N   2.44029039435065      1.79120601162584     -0.65775026355329
