14
Coordinates from ORCA-job run
  C   -0.50408964463243     -0.05542018944566     -0.10498661161615
  C   0.78681858188081     -0.00494331641458      0.32884204689912
  C   -1.00571862310588      0.69329084184895     -1.29917107495562
  H   -1.42904973340533     -0.00285675404955     -2.03071980835117
  H   -0.21026925581950      1.25781842475702     -1.78401211079943
  H   -1.79844797626688      1.38460043955208     -1.00055809415265
  N   -1.44384067835698     -0.74834519863375      0.61797386224634
  H   -2.22196358165171     -1.11545434305025      0.09393472220810
  H   -1.03255678006161     -1.38490512715890      1.28811664317304
  N   1.14815377535083     -0.76692910184965      1.49171744737307
  H   1.98685207447262     -1.30699713902679      1.31495694441379
  H   1.33805842569718     -0.15636216121769      2.27881209123114
  C   1.76671767426170      0.78952066828473     -0.33709105325581
  N   2.61633574163719      1.41898295640404     -0.85781500441378
