14
Coordinates from ORCA-job run
  C   -0.48378123540706     -0.10687194689301     -0.15064073301106
  C   0.76761640225811      0.03550637030951      0.36983416930400
  C   -0.96660429466387      0.63369130730548     -1.35758346037003
  H   -1.86480948907501      1.20992020422015     -1.11321370675814
  H   -0.21170079866301      1.32082583052379     -1.73741405193450
  H   -1.23040499376203     -0.07323097475278     -2.14861394949830
  N   -1.34485377560807     -1.03680055795733      0.37813039645683
  H   -2.32704273506589     -0.83426795429390      0.28275369193589
  H   -1.05506048933286     -1.36598664463528      1.28974441379777
  N   1.11732731505471     -0.73491076950609      1.53079564713509
  H   1.53757668795274     -0.14177962922208      2.23640511094941
  H   1.79091903540988     -1.45581716855657      1.29647304173123
  C   1.72431854624071      0.91523501723666     -0.21809393856197
  N   2.54649982466163      1.63648691622143     -0.65757663117621
