14
Coordinates from ORCA-job run
  C   -0.48002508192242     -0.13783239618257     -0.13480143983510
  C   0.76166767491182      0.11325006603503      0.36764840345412
  C   -0.96990641067666      0.40521991874008     -1.43990295733230
  H   -1.89619732449220      0.96979616440136     -1.29221596890297
  H   -1.18760955907577     -0.41692476650513     -2.12704043166807
  H   -0.23669581799054      1.06509195855537     -1.90189035703601
  N   -1.32018067616779     -1.00761813153257      0.51618751419454
  H   -1.03033309491745     -1.19506951328786      1.46715988762479
  H   -2.30667556338693     -0.84882559147233      0.38747736912899
  N   1.12137906622754     -0.47479199681440      1.62769301629759
  H   1.81085610292876     -1.20736111782996      1.50108922417253
  H   1.52527320579911      0.22144017850273      2.24256062739512
  C   1.70129106220042      0.92164797875057     -0.33813905805400
  N   2.50815641656208      1.59197724863966     -0.87582582943923
