14
Coordinates from ORCA-job run
  C   -0.46252280138857     -0.13792988364794     -0.18758931420814
  C   0.72724092141708      0.09212199894624      0.43576441334356
  C   -0.86620506481424      0.52102768281166     -1.46867236240964
  H   -1.81010790341389      1.05960958603441     -1.33562637483499
  H   -1.02071127952443     -0.23397194562411     -2.24408168855008
  H   -0.11353274253110      1.22953612743808     -1.81196810788847
  N   -1.32371404803365     -1.08661961515283      0.30674235421969
  H   -2.30140824380066     -0.93876526983007      0.11372873263975
  H   -1.10471894664545     -1.35889828456808      1.25607865110743
  N   1.00481327920354     -0.60652667147115      1.65977457681662
  H   1.73028897306842     -1.30154376927936      1.52205395724714
  H   1.33020154640058      0.03794195571729      2.37039507024554
  C   1.69193370452600      0.99181124602461     -0.10745949724245
  N   2.51644260553638      1.73320684260123     -0.50714041048595
