14
Coordinates from ORCA-job run
  C   -0.49289719714421     -0.09142014989729     -0.12871741204391
  C   0.77061523315004      0.04574570299964      0.36303926126125
  C   -1.00036844773940      0.64962278208293     -1.32527229002441
  H   -1.34266706032117     -0.05704914625688     -2.08842882224145
  H   -0.23026728398952      1.28210731017940     -1.76481347384532
  H   -1.85267053093589      1.27394478227208     -1.04475202730276
  N   -1.40599848854002     -0.87310317671933      0.53559833974207
  H   -2.13058491093489     -1.28510935485792     -0.03007900920495
  H   -0.97433970939279     -1.49254972949885      1.20888236736778
  N   1.14132384300974     -0.71923944505885      1.52051720673862
  H   2.02508114084840     -1.18957831472619      1.36653622518354
  H   1.25147090964010     -0.11948220740034      2.33079822330614
  C   1.71206706797564      0.93278224742303     -0.23851457146838
  N   2.53023543437396      1.64232869945857     -0.70379401746821
