14
Coordinates from ORCA-job run
  C   -0.49824745424223     -0.06681279607014     -0.12456705773176
  C   0.79307449895964     -0.04462282801977      0.31054143761610
  C   -1.02898708489634      0.84411485226240     -1.18597998660950
  H   -0.26965261855332      1.54315846744462     -1.53394823649613
  H   -1.87651497986572      1.42041504654406     -0.80098342622601
  H   -1.38569297834499      0.25780344840206     -2.03702885170166
  N   -1.36468547635984     -1.02225423482220      0.34653389643350
  H   -1.02744337731548     -1.48096230713555      1.18262817872597
  H   -2.33970221237312     -0.76890446738728      0.35493922936208
  N   1.18661259836872     -0.97317866897711      1.33352970877799
  H   1.81125720104304     -1.67890666343684      0.95897158371259
  H   1.67969150033707     -0.49312632695667      2.07710508907518
  C   1.74849083219722      0.86289758424335     -0.23580601811327
  N   2.57279955104535      1.59937889390910     -0.64493554682511
