14
Coordinates from ORCA-job run
  C   -0.49257840567149     -0.09903551062811     -0.12557686931588
  C   0.76805718904100      0.06969885620300      0.36391423659431
  C   -0.98506568015825      0.54574855361924     -1.38251090275175
  H   -0.20558061322000      1.13310439631176     -1.86605097583125
  H   -1.83267950444024      1.19922095385193     -1.15932610851134
  H   -1.32957493392869     -0.21670698159171     -2.08871629879534
  N   -1.41627037814198     -0.81824330360201      0.59212491962115
  H   -0.99558012563168     -1.38392704949233      1.31759972388126
  H   -2.13913130821750     -1.26996735764772      0.05517525043279
  N   1.12292122449881     -0.59821195192034      1.58507780966082
  H   1.22908882073793      0.06687237220078      2.34315029936029
  H   2.00473393553252     -1.08549381497892      1.47982606332579
  C   1.72146403213039      0.89738082653593     -0.30018322839952
  N   2.54919574746915      1.55956001113850     -0.81550391927134
