14
Coordinates from ORCA-job run
  C   -0.40510336449048     -0.05023140267125     -0.10799103879656
  C   0.86286307312884      0.10384723670342      0.36388639660314
  C   -0.90831161898199      0.58784734674626     -1.36469087230463
  H   -0.11786664792709      1.12427479785945     -1.88776463188469
  H   -1.71056746531650      1.29512219342245     -1.13185920648087
  H   -1.31736013319617     -0.17140640888823     -2.03958011782810
  N   -1.36373369716239     -0.71354944310415      0.65350125791084
  H   -0.99136572144158     -1.45876342778751      1.22501056463018
  H   -2.16980692044357     -1.01263899290771      0.12649889016600
  N   1.28129903723191     -0.31841029630895      1.65203741717052
  H   0.53210975870185     -0.31252587819427      2.32811689662215
  H   1.79955206465680     -1.18527952695600      1.67186830956556
  C   1.84363149414431      0.79026235608467     -0.41768216963200
  N   2.66566014109605      1.32245144600183     -1.07135169574153
