14
Coordinates from ORCA-job run
  C   -0.37509337568590      0.00175389983113     -0.19346952676639
  C   0.82055258073122     -0.13024127983218      0.44490277175994
  C   -1.23741975643879      1.22112148437601     -0.10222398387528
  H   -2.18861382133910      0.97279380624892      0.37866812746105
  H   -0.75705431883881      2.01149969152998      0.47264870832656
  H   -1.45977965084648      1.60722723744122     -1.10237766067935
  N   -0.93506720173775     -1.08072896388168     -0.86726958838517
  H   -1.66062576010151     -0.82639046818814     -1.52001727258727
  H   -0.25552259352252     -1.70083176085243     -1.28476647174515
  N   1.53338697930337     -1.35314157925882      0.53869494575675
  H   0.92801337634927     -2.16042450585561      0.51624868164534
  H   2.30957894826197     -1.44760921951372     -0.10114294045389
  C   1.39227409564454      0.98128973565869      1.13891212513804
  N   1.88537049822049      1.90268192229663      1.68119208440486
