14
Coordinates from ORCA-job run
  C   -0.31137386450455     -0.00482936368244     -0.27930932674998
  C   0.70253469160911     -0.07916135522276      0.62821707444040
  C   -1.21419981939743      1.17762423586428     -0.42309129511756
  H   -2.21909053394064      0.91421442670257     -0.08206140532218
  H   -1.28650477752424      1.49502922940647     -1.46635913883084
  H   -0.85416855392462      2.02306070586164      0.16094123151770
  N   -0.67155476317581     -1.12260373233325     -1.01518000465778
  H   0.07836641511966     -1.78337307037994     -1.16564639795228
  H   -1.20451626294774     -0.93385110123365     -1.84894284127983
  N   1.43486770542699     -1.27659934687282      0.89381680186510
  H   2.25702639950732     -1.39690676822350      0.31705085154800
  H   0.84910654007547     -2.09985840346052      0.86261740849932
  C   1.06373040480737      1.06675245602883      1.40122071071752
  N   1.37577641886913      2.02050208754510      2.01772633132239
