14
Coordinates from ORCA-job run
  C   -0.40688734498939     -0.03709803136503     -0.10058681677942
  C   0.89440855947156     -0.01979651460012      0.29987140055901
  C   -0.86893143819154      0.40836375303125     -1.45224475926118
  H   -1.62652091979006      1.19378155483555     -1.35721878723037
  H   -0.04675409014293      0.78910840682840     -2.05558999067160
  H   -1.32787664779426     -0.43074528076021     -1.98412455943922
  N   -1.38439529977564     -0.61935507770504      0.70351983472439
  H   -2.32306093612895     -0.33375821261487      0.47130956403366
  H   -1.20152013185881     -0.53585350365967      1.69360645165285
  N   1.36220407064718     -0.63613447432438      1.48957502736484
  H   1.51207915833458     -0.00906479263812      2.26760288102874
  H   0.80839832341206     -1.43682978414455      1.75595331279333
  C   1.89484482002338      0.57347828131817     -0.53255685450395
  N   2.71501187678282      1.09490367579863     -1.19711670427108
