14
Coordinates from ORCA-job run
  C   -0.40863511887580     -0.03803559854867     -0.09561073460131
  C   0.87527009999974      0.08780918785669      0.34006266316405
  C   -0.91452563877858      0.54896773755518     -1.37583042530062
  H   -1.68992748830371      1.29270980503216     -1.16740769125610
  H   -1.36002570848762     -0.23072257491493     -2.00246397905104
  H   -0.11787248323820      1.03113836010199     -1.94036829060917
  N   -1.37541914114629     -0.61832242570398      0.72157034559616
  H   -1.02170923604796     -1.34994460823243      1.32183334527660
  H   -2.20631860474111     -0.90832890762128      0.22890336216095
  N   1.30624840294253     -0.27940882354707      1.64108629015513
  H   0.57124578238196     -0.20611792028262      2.32910592957417
  H   1.78580406132387     -1.16699038693313      1.69872303572806
  C   1.86461941153130      0.68875399548227     -0.49918015071472
  N   2.69224566143987      1.14949215975579     -1.19842370012216
