14
Coordinates from ORCA-job run
  C   -0.38896877218973     -0.09003777940531     -0.13177650121600
  C   0.86986305127644      0.08747668100023      0.35630531591488
  C   -0.84190309796595      0.40818287272557     -1.46826824014089
  H   -1.12407839400306     -0.43489314013460     -2.10646065935677
  H   -0.06122374778559      0.97598663366876     -1.97216377220602
  H   -1.72091358949692      1.05163416539470     -1.35762485371718
  N   -1.30303605873413     -0.88707770472978      0.55140978976327
  H   -1.19659702155043     -0.87053695151560      1.55573922491354
  H   -2.26167389759555     -0.74461174708458      0.27271545072352
  N   1.36236600959633     -0.55791998289254      1.52092606387319
  H   1.36133082290116      0.01090542788615      2.35637992639153
  H   0.92772012657968     -1.45495747891532      1.68050693849291
  C   1.80730946527265      0.90316529266762     -0.35038702153202
  N   2.57180510369510      1.60268371133470     -0.90930166190396
