14
Coordinates from ORCA-job run
  C   -0.45355722987193     -0.12639349512502     -0.04023455991346
  C   0.72336770665750      0.14847018920636      0.59059275364450
  C   -0.57141604275157     -0.18711855257831     -1.53324543512807
  H   -0.48655301435821     -1.21732221376436     -1.89232165051451
  H   -1.55003249063900      0.18501640231453     -1.85006080550461
  H   0.18853520775664      0.42175242576764     -2.02273586575206
  N   -1.59165451647755     -0.53856585815414      0.64706119798905
  H   -2.45560688213518     -0.19834356474079      0.25164255292165
  H   -1.55487858162794     -0.40456854816649      1.64894216203554
  N   1.99920872292642      0.25073186478829     -0.02275635192581
  H   2.01686130485011     -0.14166731699565     -0.95134819125621
  H   2.36341463295465      1.19459524985948     -0.03125916091062
  C   0.71857638914992      0.25000873418842      2.01802825038106
  N   0.65473479356613      0.36340468340005      3.18869510393355
