14
Coordinates from ORCA-job run
  C   -0.46275355477176     -0.10849993056037     -0.22235445897529
  C   0.75417291778584     -0.18526422635935      0.38924694113941
  C   -1.15192644462704      1.19778145607278     -0.45919211198297
  H   -0.54238507361517      2.01514078070291     -0.08315344620525
  H   -1.32792426273791      1.34263224076042     -1.53048481313319
  H   -2.12515220422776      1.20159656338373      0.03935611304303
  N   -1.18428176961369     -1.22752100410810     -0.57790484438336
  H   -1.81974118923879     -1.10597192944954     -1.34977568434968
  H   -0.67845505168966     -2.10161639718793     -0.60360390908952
  N   1.43250335745036      0.98438514572482      0.85966596658384
  H   1.55672553161319      0.94712833866888      1.86453685890801
  H   2.35182505100013      1.05490783631806      0.44060123881928
  C   1.35468852076480     -1.47352417464022      0.55604190014858
  N   1.84270417190745     -2.54017469932609      0.67502024947711
