16

C	0.034153	-0.043406	-1.493319
C	0.108629	0.059756	0.028461
Cl	0.220295	1.588508	-2.211075
H	1.15537	0.328388	0.201374
H	0.004558	-0.971337	0.3861
N	0.970464	-0.912564	-2.095687
H	0.733101	-1.84686	-1.774698
H	1.897444	-0.65351	-1.581721
N	-1.39719	-0.536552	-1.824572
O	-1.581476	-1.735377	-1.612062
O	-2.271954	0.245793	-2.178626
C	-0.914496	0.964226	0.699302
H	-1.942477	0.638673	0.511029
H	-0.758612	0.959862	1.782168
H	-0.821197	1.993716	0.350138
F	2.87351	-0.245189	-0.559583
