15
Coordinates from ORCA-job run
  C   0.86071284258556      0.16116165025160      0.14860108786941
  C   -0.52791165795806      0.46103244298115     -0.40296576144885
  H   1.56028566756443      0.80853283413540     -0.39071351759578
  H   -0.60230349735090      0.19168943822574     -1.45754550774234
  H   0.87460028032423      0.47095885797283      1.19906041908431
  C   1.27220480173741     -1.30192723252010      0.01953371138496
  H   0.64710750934463     -1.94637482356043      0.64053044245363
  H   2.30732223854860     -1.43878189212068      0.33826441958479
  H   1.18742562420649     -1.64868263705583     -1.01334960408976
  N   -1.02102207885362      1.79659152704759     -0.21229699871376
  H   -0.71142517151608      2.17775633175093      0.67177667234277
  H   -0.72438091642231      2.39960011126376     -0.96589883634169
  N   -1.48441817938910     -0.47522720474273      0.29420949061670
  O   -1.68257391215017     -0.25117019945263      1.48495448104104
  O   -1.95562355067111     -1.40615920417658     -0.35416049844543
