15

C	-0.374044	0.019445	-1.455621
C	0.0	0.0	0.0
Br	-2.347972	-0.087391	-1.761828
H	1.095325	0.0	0.0
H	-0.343932	-0.911806	0.487759
C	0.198959	1.211808	-2.171197
H	1.283512	1.191546	-1.996079
H	-0.215102	2.121427	-1.735344
H	-0.016064	1.179989	-3.237484
N	0.136625	-1.273041	-2.091696
O	0.099195	-2.287178	-1.40861
O	0.51224	-1.216665	-3.257624
C	-0.485237	1.17219	0.697586
N	-0.84752	2.132765	1.271569
H	2.660966	0.0	0.0
