15

C	-0.424164	-0.28361	-1.422181
C	0.0	0.0	0.0
Br	0.120136	1.223323	-2.550888
H	1.10477	0.0	0.0
H	-0.362742	0.97528	0.328874
C	0.188149	-1.552769	-1.95259
H	1.269165	-1.454017	-1.809735
H	-0.173406	-2.40415	-1.371872
H	-0.055858	-1.706468	-3.002904
N	-1.952489	-0.309442	-1.520175
O	-2.472423	-1.286148	-2.056029
O	-2.563529	0.633269	-1.028698
C	-0.487879	-1.036514	0.891049
N	-0.859719	-1.885078	1.616038
H	2.678721	0.0	0.0
