15

C	-0.363446	-0.075621	-1.45408
C	0.0	0.0	0.0
Br	-2.331448	0.044675	-1.779763
H	1.101282	0.0	0.0
H	-0.277166	0.999989	0.350457
C	0.363174	1.003682	-2.21694
H	0.034258	1.981281	-1.862522
H	0.183928	0.920044	-3.286679
H	1.430721	0.882201	-1.97795
N	0.03028	-1.426363	-2.051862
O	0.304477	-2.334156	-1.277525
O	0.041634	-1.505954	-3.276764
C	-0.59482	-0.974591	0.891983
N	-1.076601	-1.707979	1.673882
H	2.676422	0.0	0.0
