15

C	-0.523418	-0.104952	-1.416826
C	0.0	0.0	0.0
Br	0.238131	-1.717484	-2.278683
H	1.105281	0.0	0.0
H	-0.209999	1.020452	0.349942
C	-2.024935	-0.157631	-1.588087
H	-2.414204	-1.028674	-1.05919
H	-2.469876	0.742328	-1.151221
H	-2.290933	-0.213286	-2.642447
N	0.00761	1.08563	-2.201971
O	-0.531696	1.30414	-3.290564
O	0.949284	1.716931	-1.728772
C	-0.667776	-0.912657	0.893649
N	-1.306977	-1.547268	1.651466
H	2.64768	0.0	0.0
