15

C	-0.334229	0.01386	-1.465824
C	0.0	0.0	0.0
Br	-2.299069	0.002553	-1.842742
H	1.104078	0.0	0.0
H	-0.35745	-0.905324	0.489703
C	0.327397	1.162026	-2.175791
H	1.399206	1.087333	-1.94367
H	0.158936	1.125446	-3.249946
H	-0.059317	2.098374	-1.770889
N	0.137999	-1.317294	-2.058072
O	0.610758	-1.296375	-3.190244
O	-0.024566	-2.321997	-1.375955
C	-0.484797	1.183186	0.677158
N	-0.845658	2.150864	1.239618
H	2.653871	0.0	0.0
