16

C	-0.412603	0.037141	-1.478212
C	0.0	0.0	0.0
F	0.029106	-1.168889	-2.03685
H	1.093735	0.0	0.0
N	-1.825982	0.174606	-1.609097
H	-2.277465	-0.674215	-1.288081
H	-2.031502	0.311515	-2.591533
N	0.236782	1.08847	-2.202709
H	1.236753	0.897488	-2.15762
H	0.084583	1.933447	-1.660472
C	-0.54045	-1.19497	0.663122
N	-1.059165	-2.092978	1.216907
N	-0.408705	1.252448	0.626453
H	-1.389922	1.230457	0.871008
H	0.148447	1.400754	1.458032
Br	3.491697	0.0	0.0
