16

C	-0.403759	0.219171	-1.469299
C	0.0	0.0	0.0
F	-0.109291	-0.976379	-2.144593
H	1.101116	0.0	0.0
N	-1.801718	0.459706	-1.71395
H	-2.293526	-0.410023	-1.539031
H	-2.106694	1.125928	-1.011622
N	0.360245	1.31274	-1.938385
H	0.147641	1.478131	-2.913013
H	1.352741	1.123485	-1.808947
C	-0.553193	-1.251367	0.505167
N	-1.024307	-2.235453	0.938349
N	-0.536023	1.130444	0.783199
H	-0.243924	1.000389	1.746401
H	-0.032645	1.944831	0.4427
Br	3.50694	0.0	0.0
