16

C	-0.343931	-0.058081	-1.498226
C	0.0	0.0	0.0
F	-0.035183	1.213268	-2.026561
H	1.096582	0.0	0.0
N	0.44093	-1.070476	-2.103415
H	1.418793	-0.961286	-1.833743
H	0.360439	-1.02832	-3.113172
N	-1.767786	-0.180879	-1.710331
H	-1.974268	0.031196	-2.679652
H	-2.033845	-1.140844	-1.525746
C	-0.505088	-1.219856	0.638216
N	-0.950454	-2.1691	1.166901
N	-0.508334	1.174942	0.683541
H	0.135825	1.931805	0.491959
H	-1.405315	1.411858	0.272933
Br	3.503599	0.0	0.0
