16

C	-0.410899	0.0585	-1.477914
C	0.0	0.0	0.0
F	0.026593	-1.141587	-2.051933
H	1.093726	0.0	0.0
N	-1.823189	0.203546	-1.606938
H	-2.026494	0.357851	-2.587188
H	-2.278528	-0.648507	-1.300511
N	0.243958	1.11641	-2.187293
H	0.094083	1.954313	-1.633421
H	1.243038	0.919591	-2.143564
C	-0.541659	-1.204086	0.645478
N	-1.058256	-2.112006	1.185559
N	-0.409854	1.244099	0.642075
H	0.136217	1.376079	1.484662
H	-1.395083	1.22139	0.872132
Br	3.492266	0.0	0.0
