16

C	-0.408507	-0.027681	-1.483358
C	0.0	0.0	0.0
F	-0.095071	1.275502	-1.946023
H	1.101695	0.0	0.0
N	0.338238	-1.026969	-2.138534
H	1.328064	-0.925563	-1.923203
H	0.18406	-0.964437	-3.137206
N	-1.807077	-0.191068	-1.762589
H	-2.063851	-1.138526	-1.511191
H	-2.313905	0.448353	-1.159178
C	-0.490702	-1.212853	0.65116
N	-0.89965	-2.163762	1.205615
N	-0.602872	1.174571	0.643708
H	-0.131459	1.97864	0.242745
H	-0.346598	1.154315	1.62538
Br	3.520574	0.0	0.0
