16

C	-0.234662	0.076991	-1.515623
C	0.0	0.0	0.0
F	-1.59547	0.113506	-1.787112
H	1.104624	0.0	0.0
N	0.338162	1.31182	-1.969226
H	0.356358	1.279296	-2.98274
H	1.300052	1.358821	-1.637435
N	0.28818	-1.058947	-2.234982
H	1.282433	-1.125016	-2.029656
H	-0.155888	-1.9084	-1.901887
C	-0.514668	-1.267057	0.523782
N	-0.923968	-2.284795	0.943338
N	-0.569972	1.13678	0.724933
H	0.128046	1.450604	1.390746
H	-0.687553	1.883338	0.047164
Br	3.457165	0.0	0.0
