12

C	0.0	0.0	0.0
C	-0.281892	-0.39988	-1.466498
Br	1.927844	0.0	0.0
H	0.454501	0.134383	-2.071427
H	-0.40055	0.951057	0.332385
H	-0.021656	-1.460467	-1.539029
N	-0.403468	-1.040107	1.013858
O	-0.530273	-0.635683	2.16167
O	-0.46135	-2.205164	0.642372
C	-1.544621	-0.203339	-2.188693
N	-2.216934	-0.130646	-3.153962
Cl	-3.056756	0.0	0.0
