12

C	0.0	0.0	0.0
C	-0.410148	-0.100632	-1.469155
Br	1.925566	0.0	0.0
H	-1.48439	-0.303869	-1.515741
H	-0.406856	0.856489	0.527372
H	0.150443	-0.913573	-1.93548
N	-0.407736	-1.231424	0.764144
O	-0.511989	-1.099603	1.975888
O	-0.512239	-2.274397	0.130625
C	-0.099761	1.140894	-2.170895
N	0.168951	2.124537	-2.752794
Cl	-3.219814	0.0	0.0
