17

C	0.0	0.0	0.0
C	-0.647774	-0.008934	-1.379293
Cl	1.764764	0.0	0.0
H	-1.741131	0.1386	-1.045695
N	-0.394117	1.30427	0.709291
O	-0.685269	2.268084	0.010529
O	-0.333336	1.313846	1.932022
C	-0.489427	-1.162207	0.835926
H	-0.078333	-1.08565	1.841423
H	-1.5825	-1.07488	0.826867
H	-0.163117	-2.083664	0.358201
N	-0.514934	-1.337355	-1.980779
H	0.23852	-1.348424	-2.657578
H	-1.381156	-1.558976	-2.456496
C	-0.16037	1.025435	-2.28682
N	0.240625	1.747717	-3.125741
F	-2.879536	0.0	0.0
