17

C	0.0	0.0	0.0
C	-0.427382	0.070726	-1.477679
Cl	1.796026	0.0	0.0
H	0.009353	-0.847718	-1.891345
N	-0.448031	1.197018	0.809696
O	-0.64627	2.249112	0.214897
O	-0.506506	1.05611	2.025699
C	-0.413258	-1.288367	0.685667
H	-1.500306	-1.278858	0.739016
H	-0.047396	-2.123526	0.083299
H	0.042129	-1.340634	1.673551
N	0.211471	1.168983	-2.214958
H	-0.234301	2.025571	-1.908271
H	-0.065619	1.033441	-3.181756
C	-1.888246	-0.008886	-1.787771
N	-2.623594	-0.063586	-2.720278
F	-2.608185	0.0	0.0
