17

C	0.0	0.0	0.0
C	-0.685643	0.234465	-1.350921
Cl	1.763272	0.0	0.0
H	-1.71662	0.519738	-0.99113
N	-0.359866	1.198414	0.896437
O	-0.571995	2.270411	0.340647
O	-0.348028	1.023338	2.108719
C	-0.505881	-1.257799	0.660383
H	-1.595906	-1.136697	0.690461
H	-0.219532	-2.102633	0.035872
H	-0.070382	-1.358735	1.652352
N	-0.816364	-1.036336	-2.077959
H	-1.791629	-1.296285	-1.968123
H	-0.607773	-0.909232	-3.060176
C	-0.046937	1.251658	-2.172493
N	0.406785	2.025942	-2.932613
F	-2.918232	0.0	0.0
