17

C	0.0	0.0	0.0
C	-0.456362	0.106171	-1.497943
Cl	1.795674	0.0	0.0
H	0.41959	-0.232086	-2.067904
N	-0.407175	1.127627	0.917128
O	-0.735232	0.842141	2.057233
O	-0.277713	2.272575	0.490891
C	-0.360112	-1.340484	0.61953
H	-1.445135	-1.340911	0.713246
H	0.141845	-1.457005	1.579781
H	-0.019716	-2.131575	-0.05366
N	-0.840441	1.397953	-2.027896
H	-0.103794	2.056691	-1.809699
H	-1.658006	1.666205	-1.489989
C	-1.513285	-0.86798	-1.834027
N	-2.119696	-1.705108	-2.397113
F	-2.491119	0.0	0.0
