17

C	0.0	0.0	0.0
C	-0.363341	-0.056558	-1.539281
Cl	1.773953	0.0	0.0
H	0.364965	0.605034	-2.017311
N	-0.380331	1.390245	0.505463
O	-0.307697	2.314537	-0.300504
O	-0.66027	1.50771	1.691056
C	-0.640187	-1.049845	0.851782
H	-0.32291	-0.953148	1.889476
H	-1.728225	-0.868778	0.748888
H	-0.367448	-2.035967	0.472958
N	-1.677552	0.297157	-1.983608
H	-2.405922	0.044678	-1.240149
H	-1.702375	1.307961	-2.037432
C	-0.025951	-1.422854	-1.991475
N	0.236256	-2.500255	-2.378913
F	-3.179456	0.0	0.0
