16

C	-0.324966	0.287599	-1.478687
C	0.0	0.0	0.0
F	-0.208838	-1.006527	-2.098278
H	1.10021	0.0	0.0
N	-1.657899	0.757102	-1.665766
H	-1.733486	1.218877	-2.563554
H	-2.304174	-0.020979	-1.617092
N	0.630293	1.163456	-2.043871
H	1.524802	1.014366	-1.565342
H	0.745854	0.910461	-3.01823
C	-0.572677	-1.244842	0.45932
N	-0.998854	-2.283327	0.809461
N	-0.394619	1.112596	0.878666
O	0.019736	2.226317	0.563783
O	-1.028418	0.860109	1.910233
H	2.537996	0.0	0.0
