16

C	-0.329393	0.027246	-1.504435
C	0.0	0.0	0.0
F	-0.172348	-1.346772	-1.898023
H	1.090982	0.0	0.0
N	-1.674985	0.420353	-1.76247
H	-1.764877	0.719936	-2.724991
H	-2.300093	-0.354822	-1.575918
N	0.601223	0.825655	-2.21462
H	0.744237	0.392001	-3.118825
H	1.493897	0.793915	-1.712009
C	-0.574885	-1.148161	0.664663
N	-1.007239	-2.114601	1.175927
N	-0.402844	1.246713	0.672553
O	-1.05819	1.17552	1.718411
O	0.021469	2.289207	0.178898
H	2.550708	0.0	0.0
