16

C	-0.270736	-0.129669	-1.513608
C	0.0	0.0	0.0
F	-0.095373	1.161371	-2.051372
H	1.100465	0.0	0.0
N	0.707822	-1.037032	-1.977974
H	0.739617	-1.035569	-2.990284
H	1.62844	-0.790989	-1.57772
N	-1.629386	-0.467611	-1.856304
H	-1.761127	-0.265295	-2.841619
H	-1.747138	-1.462748	-1.709704
C	-0.541729	-1.120244	0.734352
N	-0.92657	-2.046865	1.346429
N	-0.558569	1.274694	0.529833
O	0.232145	2.19094	0.731816
O	-1.773707	1.328945	0.718592
H	2.673655	0.0	0.0
