16

C	-0.219141	0.006907	-1.52181
C	0.0	0.0	0.0
F	-1.570739	0.145594	-1.813665
H	1.100362	0.0	0.0
N	0.463165	1.062764	-2.222628
H	1.438536	0.999384	-1.926906
H	0.111107	1.946727	-1.875204
N	0.226335	-1.27969	-1.969244
H	1.129775	-1.464405	-1.533988
H	0.380289	-1.196417	-2.969312
C	-0.505774	-1.181918	0.66242
N	-0.86462	-2.162704	1.20321
N	-0.43221	1.19556	0.727009
O	-0.603467	1.083991	1.944867
O	-0.504771	2.272062	0.121604
H	2.489753	0.0	0.0
