16

C	-0.368298	-0.015547	-1.491533
C	0.0	0.0	0.0
F	-1.78051	-0.198499	-1.567769
H	1.090736	0.0	0.0
N	0.058566	1.128539	-2.18338
H	-0.272254	1.971949	-1.738779
H	-0.23783	1.045722	-3.145814
N	0.201688	-1.160465	-2.147782
H	-0.153112	-2.005609	-1.714713
H	1.205838	-1.115755	-1.981548
C	-0.435786	-1.23186	0.627244
N	-0.733799	-2.284191	1.057495
N	-0.426793	1.133318	0.802914
O	-0.561559	0.952825	2.020616
O	-0.494248	2.251703	0.267335
H	2.437966	0.0	0.0
