16

C	-0.341119	-0.011087	-1.498974
C	0.0	0.0	0.0
F	-0.274522	-1.374433	-1.877314
H	1.099151	0.0	0.0
N	-1.703296	0.361969	-1.788317
H	-1.911016	0.074329	-2.737836
H	-1.749215	1.371061	-1.727961
N	0.650313	0.740869	-2.172082
H	1.569817	0.536845	-1.764436
H	0.638658	0.525652	-3.162029
C	-0.514695	-1.148391	0.711333
N	-0.893047	-2.09775	1.291304
N	-0.386952	1.231422	0.702711
O	-0.650097	2.241967	0.042671
O	-0.316567	1.204979	1.934915
H	2.523724	0.0	0.0
