14

C	0.0	0.0	0.0
C	-0.483113	0.335088	-1.401692
Br	1.922473	0.0	0.0
H	-1.567284	0.456663	-1.293897
H	-0.323399	0.784211	0.701293
H	-0.058139	1.30938	-1.670933
N	-0.614383	-1.220241	0.545337
O	-1.772098	-1.429203	-0.0257
O	-0.381164	-1.441472	1.760799
C	-0.165224	-0.705371	-2.466258
H	0.910156	-0.82436	-2.618955
H	-0.595496	-1.661772	-2.174625
H	-0.609363	-0.405444	-3.420788
H	-2.848191	0.0	0.0
