14

C	0.0	0.0	0.0
C	-0.391568	-0.080095	-1.474471
Br	1.934891	0.0	0.0
H	-1.422014	-0.421547	-1.483801
H	-0.371636	0.863036	0.538425
H	0.254476	-0.810802	-1.966393
N	-0.428522	-1.210145	0.774558
O	-0.49705	-2.272819	0.156677
O	-0.46931	-1.097815	1.999458
C	-0.298314	1.281504	-2.14621
H	0.718685	1.685869	-2.127693
H	-0.610739	1.204723	-3.192213
H	-0.973601	1.978706	-1.643438
H	-2.562194	0.0	0.0
