14

C	0.0	0.0	0.0
C	-0.239454	0.129975	-1.533036
Br	1.931506	0.0	0.0
H	0.203214	1.093981	-1.811011
H	-0.285274	0.827988	0.632524
H	0.401888	-0.635927	-1.974806
N	-0.572831	-1.219034	0.573719
O	-0.592056	-1.29745	1.820986
O	-0.584196	-2.225191	-0.17643
C	-1.604261	-0.007204	-2.203868
H	-2.077998	-0.942827	-1.91337
H	-1.428673	-0.02221	-3.29209
H	-2.280873	0.812724	-1.968448
H	-2.004739	0.0	0.0
