14

C	0.0	0.0	0.0
C	-0.470157	0.161742	-1.437834
Br	1.925413	0.0	0.0
H	-0.027764	1.08907	-1.82273
H	-0.323226	0.865181	0.5987
H	-1.553641	0.308415	-1.360445
N	-0.615469	-1.144533	0.685337
O	-1.774764	-1.411884	0.142349
O	-0.379469	-1.222922	1.916877
C	-0.155906	-1.007896	-2.361784
H	0.919936	-1.185343	-2.452432
H	-0.6359	-1.906903	-1.976431
H	-0.548701	-0.80669	-3.364881
H	-2.841886	0.0	0.0
