14

C	0.0	0.0	0.0
C	-0.241405	0.119652	-1.534292
Br	1.931464	0.0	0.0
H	0.393765	-0.655428	-1.969315
H	-0.280045	0.831343	0.630069
H	0.206585	1.077578	-1.8244
N	-0.572372	-1.215761	0.580298
O	-0.596633	-2.224473	-0.166233
O	-0.583098	-1.28932	1.82872
C	-1.608557	-0.019074	-2.200696
H	-2.082959	-0.949668	-1.895598
H	-2.282294	0.804019	-1.975222
H	-1.43812	-0.049322	-3.287485
H	-1.992173	0.0	0.0
