14

C	0.0	0.0	0.0
C	-0.51909	-0.154886	-1.414618
Br	1.924943	0.0	0.0
H	-0.112835	0.708585	-1.956728
H	-0.354784	0.922568	0.451889
H	-1.607504	-0.021686	-1.277952
N	-0.397159	-1.073392	0.982555
O	-0.51074	-0.716354	2.150372
O	-0.46455	-2.230429	0.582533
C	-0.206337	-1.444884	-2.16423
H	-0.361545	-1.280967	-3.235277
H	-0.875632	-2.239964	-1.840399
H	0.82254	-1.78726	-2.024224
H	-2.973184	0.0	0.0
