19

C	-0.423217	-0.035318	-1.48331
C	0.0	0.0	0.0
Br	-0.050374	1.726517	-2.314781
H	1.096299	0.0	0.0
N	0.36221	-1.003719	-2.228042
H	1.345188	-0.770182	-2.082253
H	0.217349	-1.880964	-1.730207
C	-1.900558	-0.319367	-1.68951
H	-2.113834	-0.353716	-2.758429
H	-2.52634	0.445013	-1.224222
H	-2.130297	-1.29306	-1.248558
N	-0.373539	-1.32433	0.546645
H	-1.186344	-1.237899	1.146539
H	0.397692	-1.651937	1.116193
C	-0.536165	1.142093	0.847279
H	-0.211139	2.112206	0.473323
H	-0.156138	1.029394	1.866483
H	-1.632854	1.13199	0.885959
Cl	3.46827	0.0	0.0
