19

C	-0.305823	-0.083718	-1.519065
C	0.0	0.0	0.0
Br	-0.117525	1.838964	-2.348664
H	1.097553	0.0	0.0
N	0.639249	-0.95207	-2.084249
H	1.589028	-0.73226	-1.779937
H	0.584753	-1.002215	-3.092819
C	-1.722795	-0.466528	-1.906006
H	-1.847638	-0.421761	-2.990001
H	-1.919219	-1.490841	-1.579942
H	-2.449039	0.211492	-1.454811
N	-0.407835	-1.236091	0.674899
H	-1.40856	-1.376571	0.582577
H	0.064128	-2.016009	0.23203
C	-0.574137	1.182325	0.751463
H	-0.348834	1.038917	1.809738
H	-1.663942	1.244669	0.636024
H	-0.137684	2.121657	0.419264
Cl	3.503686	0.0	0.0
