19

C	-0.431645	-0.00388	-1.480488
C	0.0	0.0	0.0
Br	-0.022046	1.761364	-2.287411
H	1.101439	0.0	0.0
N	0.32687	-0.978822	-2.243921
H	0.167859	-1.858896	-1.756164
H	1.315651	-0.767274	-2.10373
C	-1.91691	-0.249648	-1.681129
H	-2.521263	0.528608	-1.210762
H	-2.135687	-0.275223	-2.749133
H	-2.170587	-1.218798	-1.241892
N	-0.376531	-1.333182	0.523642
H	0.401281	-1.680645	1.072299
H	-1.177195	-1.251609	1.140423
C	-0.530746	1.126776	0.871075
H	-0.13137	1.004824	1.881696
H	-0.22101	2.104497	0.503631
H	-1.626457	1.106123	0.929251
Cl	3.470348	0.0	0.0
