19

C	-0.553019	0.014384	-1.432726
C	0.0	0.0	0.0
Br	0.343372	1.442585	-2.456367
H	1.097565	0.0	0.0
N	-0.193153	-1.237999	-2.071335
H	-0.696923	-1.966148	-1.572582
H	-0.499699	-1.227561	-3.038093
C	-2.050013	0.304898	-1.491434
H	-2.558157	-0.438411	-0.869708
H	-2.403525	0.212028	-2.521397
H	-2.298518	1.305384	-1.134026
N	-0.471958	-1.271045	0.606738
H	-0.661705	-1.109906	1.589266
H	0.313775	-1.91414	0.573888
C	-0.470303	1.177777	0.838875
H	-1.537966	1.10775	1.072896
H	-0.279343	2.124261	0.331087
H	0.09309	1.188884	1.775283
Cl	3.608994	0.0	0.0
