19

C	-0.495008	0.035683	-1.444274
C	0.0	0.0	0.0
Br	0.184353	-1.733994	-2.328614
H	1.098832	0.0	0.0
N	-1.902577	0.074886	-1.4839
H	-2.26233	-0.070933	-2.417598
H	-2.260556	-0.630499	-0.8475
C	0.164916	1.114783	-2.275972
H	-0.196482	2.09026	-1.93946
H	1.248539	1.059676	-2.152622
H	-0.087127	0.999292	-3.332787
N	-0.591271	-1.165744	0.677799
H	-0.401455	-1.066342	1.669457
H	-0.073722	-1.984655	0.37351
C	-0.443184	1.257807	0.745869
H	-0.052271	2.158639	0.271692
H	-0.023671	1.226116	1.756499
H	-1.531831	1.321543	0.806604
Cl	3.549761	0.0	0.0
