12

C	0.0	0.0	0.0
C	-0.534974	-0.037129	-1.410219
Cl	1.782594	0.0	0.0
H	-1.67256	-0.098551	-1.165881
H	-0.358998	0.929831	0.44187
H	-0.283876	0.868602	-1.958815
C	-0.460952	-1.105722	0.853447
N	-0.64241	-1.986708	1.611748
N	-0.058131	-1.161529	-2.200124
O	0.123068	-2.24579	-1.634747
O	0.070737	-0.98536	-3.420682
H	-2.704222	0.0	0.0
