17
Coordinates from ORCA-job run
  C   0.85880376588634      0.15296274527386      0.12494853180756
  C   -0.66416499530806     -0.03345631259577      0.05521913953942
  Cl  1.46535763993951      1.40342056259044     -0.94716777393294
  H   -0.89464031626674     -0.91323723477751      0.65961979770570
  N   1.39720588037945     -1.23853386079038     -0.40576430500254
  O   1.28174806676369     -2.14105347099037      0.41960126328930
  O   1.83640257589127     -1.34080548680078     -1.54024224325635
  N   1.27410875722623      0.41146281441281      1.44144675341320
  H   2.27493304888744      0.53846696283609      1.51361304734380
  H   0.94732473163113     -0.29635404971068      2.08656112081069
  C   -1.23946342040524     -0.14640690814152     -1.33844001241470
  H   -1.06457499012694      0.76734348146436     -1.90219767627515
  H   -2.31523865700541     -0.31904316165694     -1.27394904392199
  H   -0.78928551992964     -0.98576766787274     -1.87039621469388
  N   -1.29998347574685      1.10258492223889      0.80383641483923
  O   -1.45667771501832      2.15982555299330      0.20226690265528
  O   -1.61185537679786      0.87759111152692      1.97104429809338
