17
Coordinates from ORCA-job run
  C   0.78637410754666     -0.20875190851628      0.32792486117238
  C   -0.58309242310265      0.45493773303550      0.25173272332622
  Cl  1.11154107874259     -0.48111939209742      2.12013073099537
  H   -0.60977944628144      1.29459765135062      0.94593884355302
  N   1.88619793567362      0.78578048031957     -0.05951513270686
  O   1.68921444948246      1.95058921599179      0.24899633825483
  O   2.88730022287349      0.32193985447486     -0.58536758756863
  N   0.90897554981486     -1.35172683416900     -0.46023532556740
  H   0.39254531397156     -2.13288348581436     -0.08099361854258
  H   1.88041498759655     -1.59505437712484     -0.60882334663972
  C   -1.72161486647594     -0.51810057667922      0.50715161580931
  H   -1.77457469082945     -1.25924293500688     -0.29266898177943
  H   -1.58476241110034     -1.02066397935542      1.46474274983106
  H   -2.66359425449372      0.02638991669347      0.53030801440772
  N   -0.80186319383780      1.08307125224297     -1.10855555489361
  O   0.08803165477525      1.01784518193382     -1.94887902513072
  O   -1.88931401435571      1.63239220272083     -1.25288730452096
