17
Coordinates from ORCA-job run
  C   0.78464339917564     -0.17028956957064      0.42725706171883
  C   -0.59380596701085      0.46389272164318      0.24005879426925
  Cl  1.18971450708352     -0.09330003511501      2.16048965603264
  H   -0.61047819792546      1.42169983235830      0.75599641999728
  N   1.83715308020722      0.78279916679667     -0.23685061982394
  O   1.58235171721318      1.98041492972409     -0.23516268495955
  O   2.84332653840963      0.24560784959723     -0.67732503088212
  N   0.88553217627922     -1.49529955970150     -0.01507203589460
  H   1.80646977491278     -1.86986224071381      0.17509420514278
  H   0.69732335362315     -1.53280364424426     -1.01020362430324
  C   -1.72946181048823     -0.43888405198903      0.68807219371260
  H   -1.74918412350178     -1.35409356657660      0.09715498818685
  H   -1.59370930957498     -0.70928022782723      1.73494652833365
  H   -2.67582465021475      0.09305566570370      0.58024168026662
  N   -0.82036571533919      0.81410038957988     -1.20401467894293
  O   -1.61030915851613      1.72266526387794     -1.42283678616233
  O   -0.24537561433295      0.13957707645709     -2.05984606669178
