17
Coordinates from ORCA-job run
  C   0.86105501242985      0.03654070597544      0.38774133178947
  C   -0.65267007975261      0.28850894528744      0.34581245580133
  Cl  1.63326070086022      1.45318668130487      1.18198033686212
  H   -0.96800475005925      0.39605306409355      1.38637973993733
  N   1.45904308085572     -0.09654453278195     -1.03711267626684
  O   2.22030436369372      0.76350100498238     -1.44526411550302
  O   1.10027183633575     -1.10431229647821     -1.63290518293303
  N   1.10574506532570     -1.19327979789338      1.03979300590281
  H   0.74914103651424     -1.17091184219279      1.98724173783093
  H   2.09524116654670     -1.41025155971787      1.06562140727746
  C   -1.48416063993375     -0.75982137982478     -0.37121575348893
  H   -1.28289749240194     -0.75299579783475     -1.44000935758450
  H   -2.54087818767122     -0.54007641323811     -0.20180085715067
  H   -1.25286398565037     -1.74877819115430      0.02086549840245
  N   -0.93474527803636      1.62388558006311     -0.27005387865246
  O   -1.56966179715193      2.43019261019509      0.40306935074771
  O   -0.53818005190446      1.78610321921428     -1.42114304297217
