16

C	-0.407937	-0.049409	-1.468968
C	0.0	0.0	0.0
Cl	-2.214139	-0.290097	-1.635905
H	1.096432	0.0	0.0
C	-0.103585	1.221943	-2.128948
N	0.14421	2.239037	-2.663059
C	0.31606	-1.195246	-2.153889
H	0.086801	-1.219178	-3.22115
H	0.00797	-2.124838	-1.677488
H	1.38936	-1.046331	-1.982798
N	-0.334768	-1.245811	0.674861
H	0.457301	-1.481996	1.265422
H	-1.165898	-1.154623	1.242673
C	-0.506999	1.186648	0.677126
N	-0.918186	2.112132	1.27676
H	2.642654	0.0	0.0
