16

C	-0.441468	-0.002682	-1.474274
C	0.0	0.0	0.0
Cl	0.203468	-1.484511	-2.258279
H	1.095023	0.0	0.0
C	-1.901423	-0.06686	-1.583784
N	-3.075453	-0.097938	-1.644196
C	0.136495	1.213169	-2.188723
H	1.215057	1.214253	-2.004551
H	-0.30244	2.127969	-1.783231
H	-0.065586	1.160888	-3.25997
N	-0.425197	-1.187321	0.716575
H	-1.220443	-1.009662	1.315805
H	0.361305	-1.498327	1.279389
C	-0.447017	1.238174	0.631428
N	-0.787623	2.224897	1.176227
H	2.680715	0.0	0.0
