16

C	-0.544148	-0.031915	-1.432384
C	0.0	0.0	0.0
Cl	-0.030403	1.468413	-2.293252
H	1.099454	0.0	0.0
C	0.034919	-1.17358	-2.14742
N	0.44031	-2.076025	-2.779465
C	-2.064506	-0.121716	-1.488029
H	-2.496339	0.757142	-1.003315
H	-2.41155	-0.166817	-2.522573
H	-2.3764	-1.025722	-0.959801
N	-0.335705	-1.268736	0.653772
H	-1.005369	-1.145575	1.40172
H	0.536047	-1.617127	1.048943
C	-0.508037	1.151891	0.721337
N	-0.926877	2.058558	1.345987
H	2.616801	0.0	0.0
