16

C	-0.440409	0.098408	-1.471202
C	0.0	0.0	0.0
Cl	0.165633	-1.351915	-2.343171
H	1.101931	0.0	0.0
C	-1.900896	0.085044	-1.586592
N	-3.075194	0.114496	-1.636891
C	0.176231	1.336702	-2.109828
H	-0.232821	2.237946	-1.647506
H	-0.026907	1.357896	-3.181849
H	1.25355	1.291668	-1.925965
N	-0.432229	-1.228769	0.640318
H	0.373877	-1.616838	1.121339
H	-1.177685	-1.072742	1.304495
C	-0.441172	1.19505	0.71144
N	-0.794989	2.137411	1.322248
H	2.675373	0.0	0.0
