16

C	-0.328077	-0.06019	-1.496492
C	0.0	0.0	0.0
Cl	-2.116992	-0.38085	-1.769076
H	1.097428	0.0	0.0
C	-0.047896	1.224024	-2.138153
N	0.182843	2.254761	-2.653875
C	0.477805	-1.163808	-2.160298
H	1.53041	-0.987469	-1.901078
H	0.170981	-2.130313	-1.759371
H	0.326829	-1.160781	-3.241384
N	-0.337987	-1.190698	0.753742
H	-1.162378	-1.654113	0.395477
H	0.463381	-1.812072	0.73161
C	-0.557329	1.192361	0.625187
N	-0.991942	2.155886	1.140531
H	2.644988	0.0	0.0
