20

C	0.0	0.0	0.0
C	-0.239253	-0.01122	-1.551091
Br	2.073891	0.0	0.0
H	0.569267	0.577227	-1.994732
C	-0.585936	1.209201	0.677981
H	-0.290643	2.133329	0.179932
H	-0.274267	1.25605	1.726308
H	-1.679693	1.034546	0.596859
N	-0.466448	-1.161695	0.621567
H	0.068602	-1.994026	0.441695
H	-0.71792	-1.046117	1.590478
C	-1.570704	0.61082	-1.977729
H	-1.713629	0.405684	-3.046668
H	-2.417712	0.234658	-1.358999
H	-1.540655	1.699709	-1.859528
C	-0.146704	-1.433993	-2.096306
H	-1.002582	-2.010727	-1.738125
H	0.783014	-1.933989	-1.804832
H	-0.180858	-1.410082	-3.189648
F	-3.3386	0.0	0.0
