15
Coordinates from ORCA-job run
  C   -0.37414414665466     -0.13606288912259      0.46707681747133
  C   1.13196005329844     -0.26663056370195      0.26087765000010
  Br  -0.55291293760070     -0.50661476031584      2.48304291353661
  H   1.48760194680139     -1.24821713973275      0.56898173810462
  H   1.66601268479511      0.52239869084035      0.78714713296258
  N   -1.05148793209844     -1.07159516202601     -0.32861677526416
  H   -2.05593001493609     -1.02557167699332     -0.22434126512175
  H   -0.72644645272439     -2.02246996120352     -0.21275385237863
  C   -0.92138476553056      1.26164267442241      0.25757046857223
  H   -0.80718265905772      1.53667947265357     -0.79199939659655
  H   -0.39342136887229      1.98424440851755      0.87883041810496
  H   -1.97991676311647      1.28989402034384      0.52400174047553
  N   1.45231921861613     -0.13761266501977     -1.19314582729714
  O   1.64312210820970     -1.17800131765259     -1.81777880916223
  O   1.48181102887056      0.99991686899061     -1.65889295340750
