15
Coordinates from ORCA-job run
  C   -0.38009470904405      0.00079981053441      0.28345909574595
  C   0.84802318892968      0.28766548733350     -0.56969256781312
  Br  0.30211975735748     -0.04314451090546      2.21252615704168
  H   0.56331286863614      0.21609914674922     -1.62342828906267
  H   1.26003343187148      1.26789906263486     -0.34302528102378
  N   -1.03125486437212     -1.18395332722806     -0.10503337254131
  H   -0.40797974517916     -1.98067107317681     -0.11448716755043
  H   -1.84334720538232     -1.37300020019375      0.46743006043046
  C   -1.33179901909115      1.18283027789898      0.21577092200101
  H   -0.85085441638301      2.10039718532622      0.55389029507001
  H   -1.67511388588990      1.30038287803373     -0.81588090617555
  H   -2.19990337601048      0.99992545190883      0.85187396370672
  N   1.96683194216155     -0.68127112908933     -0.37612039386801
  O   1.69596236108358     -1.87882988815308     -0.45515042440727
  O   3.08406367131227     -0.21512917167326     -0.18413209155370
