15
Coordinates from ORCA-job run
  C   -0.35103631654571      0.01665912267680      0.31776996853528
  C   0.79597285989519      0.25405836112348     -0.65520188015732
  Br  0.51408141723254     -0.00133153619632      2.17435049238650
  H   0.41001156837223      0.16692436009682     -1.67499299107624
  H   1.25005668219460      1.22820249303929     -0.49163754263037
  N   -1.06300294431008     -1.15941728960121      0.02331694859413
  H   -0.46324961180482     -1.97230756681419     -0.02782625635888
  H   -1.82151024433435     -1.31464958785008      0.67399958639721
  C   -1.27742783479184      1.22032888259248      0.31405810285013
  H   -2.08331466595386      1.07324082333221      1.03557437859858
  H   -1.71688991134133      1.32391835688612     -0.68202398151185
  H   -0.74513237359655      2.13278017573421      0.58168660958482
  N   1.90512772081819     -0.73896160691407     -0.54590671519860
  O   3.04614700452731     -0.29780381860035     -0.46887025645196
  O   1.60016664963847     -1.93064116950518     -0.57329646356143
