17

C	-0.401879	-0.086597	-1.430158
C	0.0	0.0	0.0
Cl	-2.409687	-0.604954	-1.501175
H	1.09716	0.0	0.0
N	-0.122665	0.958737	-2.235777
H	-0.287878	1.856078	-1.803277
H	-0.350249	0.830795	-3.207532
N	0.12552	-1.35269	-2.132134
O	0.453782	-2.317209	-1.461044
O	0.182424	-1.293855	-3.355625
N	-0.37431	-1.065506	0.855364
H	0.464256	-1.584974	1.080758
H	-1.059249	-1.672214	0.432406
N	-0.341027	1.298243	0.643918
O	-0.472077	2.330321	-0.043466
O	-0.320121	1.318735	1.870436
H	2.395429	0.0	0.0
