17

C	-0.645388	-0.100093	-1.372478
C	0.0	0.0	0.0
Cl	0.206966	-1.473537	-2.25795
H	1.095272	0.0	0.0
N	-2.025059	-0.297452	-1.257074
H	-2.153361	-1.09342	-0.643689
H	-2.460533	-0.442076	-2.157102
N	-0.37114	1.083495	-2.295831
O	-1.31765	1.481229	-2.968282
O	0.775501	1.492283	-2.347561
N	-0.340336	-1.192585	0.75349
H	0.553912	-1.626669	0.98516
H	-0.738381	-0.879032	1.633209
N	-0.431474	1.200141	0.684261
O	-0.620228	2.229179	0.014864
O	-0.463552	1.1759	1.930064
H	2.439273	0.0	0.0
