17

C	-0.652023	-0.062367	-1.369719
C	0.0	0.0	0.0
Cl	0.170124	-1.440926	-2.281769
H	1.094361	0.0	0.0
N	-2.036759	-0.231235	-1.254939
H	-2.477854	-0.356804	-2.156769
H	-2.18149	-1.031731	-0.649505
N	-0.353277	1.125458	-2.27817
O	0.784116	1.562946	-2.270163
O	-1.270336	1.491445	-3.010009
N	-0.345291	-1.212763	0.723426
H	-0.679406	-0.916691	1.634537
H	0.544063	-1.684285	0.888622
N	-0.434777	1.179911	0.715175
O	-0.647592	2.219475	0.07146
O	-0.450447	1.127671	1.96081
H	2.44251	0.0	0.0
