17

C	-0.368501	0.312633	-1.454388
C	0.0	0.0	0.0
Cl	-2.024818	0.980009	-1.610133
H	1.103212	0.0	0.0
N	0.555023	1.147556	-2.152896
H	1.483079	0.803701	-1.878493
H	0.47297	2.063912	-1.725489
N	-0.344828	-1.054504	-2.165724
O	0.781204	-1.449948	-2.437332
O	-1.389698	-1.651372	-2.374872
N	-0.470647	-1.247393	0.475848
H	-1.379647	-1.160561	0.911087
H	0.190741	-1.593739	1.16114
N	-0.331413	1.149439	0.864293
O	-0.805747	0.922799	1.985923
O	-0.018066	2.277817	0.463569
H	2.541082	0.0	0.0
