17

C	-0.588606	-0.020082	-1.396155
C	0.0	0.0	0.0
Cl	0.232802	-1.300871	-2.350923
H	1.1029	0.0	0.0
N	-1.980618	-0.28096	-1.418805
H	-2.423706	0.479818	-0.911961
H	-2.31107	-0.269936	-2.377046
N	-0.226127	1.27415	-2.179197
O	-1.015441	1.603862	-3.061192
O	0.827358	1.824544	-1.90965
N	-0.280428	-1.198309	0.736954
H	-1.006798	-1.743582	0.29039
H	0.586238	-1.727429	0.798463
N	-0.478113	1.168248	0.730682
O	-1.187925	2.015968	0.133393
O	-0.079671	1.303098	1.888969
H	2.450295	0.0	0.0
