17

C	-0.532468	0.081015	-1.411948
C	0.0	0.0	0.0
Cl	0.308358	1.279538	-2.419146
H	1.106321	0.0	0.0
N	-0.433178	-1.183556	-2.021341
H	-0.67057	-1.898526	-1.343113
H	-0.931903	-1.233302	-2.89798
N	-2.056724	0.501109	-1.387877
O	-2.683229	0.142205	-0.393639
O	-2.556178	0.98277	-2.397807
N	-0.285372	-1.257732	0.628558
H	0.547913	-1.516469	1.153531
H	-1.063967	-1.161853	1.267263
N	-0.382733	1.143654	0.804732
O	-0.664228	2.210209	0.237468
O	-0.289194	1.016315	2.036297
H	2.425038	0.0	0.0
