17

C	-0.555156	0.016334	-1.404985
C	0.0	0.0	0.0
Cl	-2.450218	-0.060383	-1.268016
H	1.088418	0.0	0.0
N	-0.106891	1.023241	-2.243944
H	-0.066157	1.908964	-1.76173
H	-0.60193	1.036748	-3.123845
N	-0.208507	-1.288438	-2.144599
O	0.603439	-2.049645	-1.643927
O	-0.707292	-1.401084	-3.261318
N	-0.413269	-1.169464	0.710615
H	0.423277	-1.559139	1.141117
H	-1.057913	-0.905326	1.442619
N	-0.322447	1.235441	0.705151
O	-0.159504	2.321562	0.117431
O	-0.584892	1.167273	1.916333
H	2.418439	0.0	0.0
