13

C	-0.586132	-0.038285	-1.391354
C	0.0	0.0	0.0
F	-2.013377	-0.076272	-1.233591
H	1.091424	0.0	0.0
H	-0.33681	-1.007331	-1.830233
H	-0.35227	-0.866165	0.556751
N	-0.172546	0.98882	-2.254967
H	-0.29294	1.895401	-1.828886
H	-0.647025	0.930451	-3.1438
N	-0.468899	1.169389	0.789301
O	-0.506096	2.273978	0.243555
O	-0.768007	0.972838	1.964551
Cl	3.366544	0.0	0.0
