13

C	-0.560892	-0.070786	-1.41511
C	0.0	0.0	0.0
F	-0.333321	-1.37529	-1.830509
H	1.086828	0.0	0.0
H	-0.006917	0.592605	-2.078687
H	-0.392181	-0.817758	0.603729
N	-1.963335	0.206438	-1.547748
H	-2.476391	-0.132851	-0.742728
H	-2.107945	1.202804	-1.629107
N	-0.455205	1.258545	0.62912
O	-0.308411	2.294642	-0.021501
O	-0.968152	1.205983	1.748244
Cl	3.357625	0.0	0.0
