13

C	-0.56455	-0.038214	-1.414897
C	0.0	0.0	0.0
F	-0.346817	-1.334684	-1.860423
H	1.087892	0.0	0.0
H	-0.00691	0.634845	-2.064453
H	-0.392661	-0.829971	0.586067
N	-1.964761	0.253052	-1.535651
H	-2.102826	1.24927	-1.611126
H	-2.475665	-0.085318	-0.729719
N	-0.456746	1.245393	0.653778
O	-1.003469	1.165945	1.756051
O	-0.283711	2.297525	0.035255
Cl	3.356908	0.0	0.0
