16

C	0.0	0.0	0.0
C	-0.397148	0.17312	-1.486204
Br	1.950748	0.0	0.0
H	0.224824	0.970748	-1.894993
H	-0.084245	-0.758623	-1.972193
N	-0.350995	1.271085	0.775808
O	-0.386477	2.323092	0.143958
O	-0.52634	1.163894	1.984309
C	-0.618748	-1.186134	0.682623
H	-0.388175	-2.087244	0.111837
H	-1.7038	-1.027329	0.690325
H	-0.266919	-1.293584	1.706501
N	-1.766098	0.45161	-1.799656
H	-2.053588	1.343001	-1.419688
H	-2.439293	-0.216492	-1.43711
Br	-4.514137	0.0	0.0
