16

C	0.0	0.0	0.0
C	-0.374695	0.062689	-1.503257
Br	1.950684	0.0	0.0
H	0.202942	0.873616	-1.94505
H	0.009182	-0.872617	-1.924396
N	-0.364193	1.313632	0.688655
O	-0.525529	1.287508	1.903356
O	-0.421342	2.318001	-0.015273
C	-0.607151	-1.151753	0.751515
H	-0.261128	-1.188094	1.782268
H	-1.696815	-1.022045	0.744786
H	-0.346757	-2.082876	0.242854
N	-1.749732	0.229133	-1.864071
H	-2.104755	1.127475	-1.564996
H	-2.386341	-0.445037	-1.452036
Br	-4.483044	0.0	0.0
