16

C	0.0	0.0	0.0
C	-0.568244	0.015541	-1.408741
Br	1.936071	0.0	0.0
H	-1.658048	0.082514	-1.269221
H	-0.344378	-0.973026	-1.822407
N	-0.371656	1.291257	0.741732
O	-0.838654	2.214237	0.082114
O	-0.159755	1.320665	1.948552
C	-0.547413	-1.159991	0.799901
H	-1.640468	-1.073098	0.805358
H	-0.255367	-2.096253	0.31948
H	-0.162583	-1.139292	1.818187
N	0.001283	1.025148	-2.295236
H	-0.467608	1.901295	-2.107234
H	-0.217086	0.761361	-3.247965
Br	-4.046072	0.0	0.0
