16

C	-0.477324	-0.012247	-1.411504
C	0.0	0.0	0.0
Br	0.302169	-1.469844	-2.406715
H	1.093227	0.0	0.0
H	-0.307934	-0.95563	0.432936
N	-2.000735	-0.188891	-1.586402
O	-2.626532	-0.607902	-0.619822
O	-2.465346	0.070237	-2.689947
N	-0.195918	1.32263	-2.099004
O	-0.970411	2.218282	-1.76843
O	0.7663	1.427328	-2.8399
C	-0.46709	1.16483	0.864151
H	-0.1091	0.971165	1.87872
H	-1.5516	1.287681	0.890005
H	-0.009944	2.100934	0.541072
H	2.810711	0.0	0.0
