16

C	-0.469467	0.002559	-1.414071
C	0.0	0.0	0.0
Br	0.349187	1.424132	-2.431703
H	1.093227	0.0	0.0
H	-0.311178	0.95732	0.426748
N	-0.205851	-1.348167	-2.075505
O	0.781297	-1.492198	-2.776657
O	-1.019915	-2.216606	-1.762305
N	-1.987507	0.202374	-1.605783
O	-2.62256	0.605871	-0.639675
O	-2.439385	-0.028269	-2.720832
C	-0.463078	-1.164039	0.865111
H	-1.546379	-1.296525	0.889936
H	0.00351	-2.097037	0.545242
H	-0.107412	-0.966364	1.879991
H	2.814299	0.0	0.0
