16

C	-0.472379	0.001835	-1.412115
C	0.0	0.0	0.0
Br	0.053636	1.629478	-2.320368
H	1.091668	0.0	0.0
H	-0.303422	0.963512	0.423392
N	0.046919	-1.165479	-2.245554
O	0.789154	-1.965367	-1.688674
O	-0.307424	-1.191071	-3.420252
N	-1.992878	-0.14245	-1.464869
O	-2.674227	0.859538	-1.279633
O	-2.412384	-1.298542	-1.528041
C	-0.528281	-1.137619	0.865832
H	0.015914	-1.102178	1.813888
H	-0.336145	-2.109478	0.414917
H	-1.5996	-1.050823	1.076935
H	2.746846	0.0	0.0
