16

C	-0.494219	0.017606	-1.400184
C	0.0	0.0	0.0
Br	0.315066	-1.348947	-2.5022
H	1.090891	0.0	0.0
H	-0.327181	0.933206	0.46595
N	-2.021016	-0.142102	-1.423076
O	-2.516098	-1.238692	-1.655566
O	-2.631764	0.862143	-1.058295
N	-0.271288	1.364295	-2.09406
O	0.390213	2.210439	-1.499475
O	-0.773572	1.475513	-3.208147
C	-0.48165	-1.206831	0.792496
H	0.020638	-1.193311	1.762148
H	-1.562592	-1.208279	0.96187
H	-0.206871	-2.138989	0.295571
H	2.739527	0.0	0.0
