16

C	-0.48831	0.06129	-1.397382
C	0.0	0.0	0.0
Br	0.335027	1.478607	-2.427933
H	1.103903	0.0	0.0
H	-0.325324	-0.957196	0.416698
N	-0.25809	-1.241788	-2.160423
O	-0.742157	-1.294672	-3.287473
O	0.394886	-2.11596	-1.605908
N	-2.011577	0.221647	-1.424109
O	-2.499799	1.335286	-1.568698
O	-2.629261	-0.807047	-1.147254
C	-0.473886	1.165398	0.856758
H	-0.210134	2.120814	0.399149
H	-1.552838	1.155796	1.044346
H	0.04759	1.109386	1.815524
H	2.71527	0.0	0.0
