16

C	-0.410011	0.011751	-1.376588
C	0.0	0.0	0.0
Br	-2.505648	0.406304	-1.752966
H	1.092975	0.0	0.0
H	-0.240692	0.961759	0.456721
N	0.260356	1.0622	-2.176881
O	0.287212	0.900113	-3.412979
O	0.742591	2.005684	-1.563345
N	-0.077042	-1.312041	-2.047881
O	1.106734	-1.42207	-2.339306
O	-0.937756	-2.143405	-2.188294
C	-0.491877	-1.183462	0.80471
H	-1.583716	-1.263825	0.786394
H	-0.152131	-1.083342	1.84321
H	-0.069049	-2.118395	0.424504
H	2.555398	0.0	0.0
