16

C	-0.460845	-0.068433	-1.41273
C	0.0	0.0	0.0
Br	-0.168931	-1.768441	-2.251749
H	1.098016	0.0	0.0
H	-0.323995	0.973031	0.380235
N	-1.955264	0.274259	-1.634514
O	-2.321312	0.40099	-2.797522
O	-2.65851	0.400676	-0.639011
N	0.231504	1.051861	-2.207173
O	-0.129409	2.171988	-1.855428
O	1.065682	0.779977	-3.049185
C	-0.451561	-1.132773	0.90978
H	-1.534596	-1.268001	0.934653
H	-0.102879	-0.903402	1.919955
H	0.026715	-2.068368	0.616388
H	2.803652	0.0	0.0
