13

C	0.0	0.0	0.0
C	-0.664713	0.149127	-1.341181
Br	1.907795	0.0	0.0
H	-0.515393	-0.783865	-1.886516
H	-0.36282	-0.924265	0.445093
H	-1.762297	0.268119	-1.04772
N	-0.394399	1.070536	0.995732
O	-0.471623	2.220182	0.58439
O	-0.512012	0.702347	2.158697
N	-0.149335	1.216338	-2.22653
O	0.788519	0.915321	-2.97767
O	-0.710151	2.311595	-2.224796
H	-2.97825	0.0	0.0
