17

C	-0.541387	0.02159	-1.438436
C	0.0	0.0	0.0
Br	0.060679	-1.628778	-2.31978
H	1.088462	0.0	0.0
C	-2.056333	0.165291	-1.583815
H	-2.37709	1.108591	-1.134165
H	-2.310339	0.182521	-2.644503
H	-2.563146	-0.661657	-1.095071
C	0.093992	1.123204	-2.164036
N	0.480564	2.053812	-2.77085
N	-0.462692	-1.14331	0.847696
O	0.162921	-1.269553	1.894137
O	-1.408105	-1.837815	0.483571
N	-0.485863	1.236419	0.702637
O	-1.512263	1.141006	1.375555
O	0.163178	2.255862	0.502607
Br	3.330457	0.0	0.0
