12
Coordinates from ORCA-job run
  C   1.30238234768410     -0.12178671967043      0.03272594260109
  C   -0.16016882754373     -0.15716290330425     -0.38311058418270
  F   1.93978793700551     -1.23900059117481     -0.45749883177318
  H   -0.23473192648235     -0.19026339874435     -1.47084041582151
  H   1.37906825323065     -0.12460457039232      1.12474483038136
  H   1.78732369988530      0.76598188212781     -0.37507894020888
  N   -0.70021570513486      1.23963297969201     -0.01313347518539
  O   -1.36434222207614      1.33255531486668      1.01582680029373
  O   -0.38823693534971      2.16342824299908     -0.75929278646048
  N   -0.86508314204896     -1.22453678928912      0.20809637612101
  H   -1.81084894527253     -1.29698211781274     -0.13939967166479
  H   -0.88493453389726     -1.14826132929756      1.21596075589973
