12
Coordinates from ORCA-job run
  C   1.25112462742218     -0.42277950979447      0.06553657428081
  C   -0.14266493682829      0.01004146370933     -0.31225737551710
  F   2.16857558836498      0.38819558007554     -0.57430097248014
  H   -0.19262993973046      0.20580851486325     -1.39096873513110
  H   1.41266285420702     -1.45111805255438     -0.27006258925499
  H   1.39491199991480     -0.34923175747898      1.14176509154968
  N   -0.48594158277998      1.34478327863299      0.30957451591591
  O   -1.53350027563781      1.84109644250711     -0.09919656716241
  O   0.24995426118834      1.81691256034585      1.16710131383495
  N   -1.12270771044091     -0.91463651182821      0.20679447365071
  H   -2.04807198622775     -0.62707308264667     -0.08763070932167
  H   -0.95071289945212     -1.84399892583137     -0.15535502036464
