12
Coordinates from ORCA-job run
  C   1.26422942681549     -0.16857724495969     -0.24352741485617
  C   -0.24396974395201     -0.02230567488121     -0.25640515420440
  F   1.54490448498883     -1.45197368876673     -0.70548233204358
  H   -0.61492510768344     -0.06669763473656     -1.29030780975690
  H   1.64411705510972     -0.07504030048664      0.77345598406391
  H   1.74700022203639      0.54966260846969     -0.90272140032604
  N   -0.63385411317362      1.35478165180029      0.21448029447990
  O   -1.83633733699805      1.54337322653697      0.35958386326798
  O   0.25480389488697      2.18305098177276      0.40132211766197
  N   -0.84172742960589     -0.96120007375269      0.65194435880120
  H   -1.84199854757051     -1.00718676181602      0.50989872183344
  H   -0.44124280485387     -1.87588708918017      0.48775877107869
