12
Coordinates from ORCA-job run
  C   1.21558187448859     -0.16272864554460     -0.00857651938420
  C   -0.25646996828106     -0.02869531576988     -0.37862987870975
  F   1.63972674139243     -1.40702251983074     -0.44493567359164
  H   -0.36949429363632     -0.04770445278775     -1.46237794031160
  H   1.82253388874916      0.60425198858852     -0.49586354067241
  H   1.33628390625883     -0.11370787601922      1.07637397684564
  N   -0.66386397015920      1.35061264892240      0.05456439945338
  O   -0.87818860373327      1.49320025185352      1.25612473632176
  O   -0.69670377374298      2.23225503801324     -0.79918379537228
  N   -1.14857372538569     -0.97614934830582      0.21891954165530
  H   -0.96519964886798     -1.06954932061066      1.20984389353488
  H   -1.03663242708252     -1.87676244850900     -0.22625919976909
