12
Coordinates from ORCA-job run
  C   1.27129301834012     -0.35256202568656      0.03632408297494
  C   -0.15179766862979     -0.10620539284681     -0.41333230475352
  F   2.07282143840980      0.69315450103249     -0.38002948178056
  H   -0.21062473250791     -0.01827456184436     -1.49794804669967
  H   1.62965710250760     -1.28066637309474     -0.40999334864270
  H   1.31638116001676     -0.41053718270068      1.12631549731244
  N   -0.54874108514307      1.27422637434195      0.10363618222155
  O   -0.75059593557773      2.16152400865954     -0.71885169730584
  O   -0.64624406157668      1.37831092965068      1.32512770517583
  N   -0.99731888089161     -1.14311692064678      0.06951744641029
  H   -1.05723352436500     -1.11325183405185      1.07964980168544
  H   -1.92759683058250     -1.08360152281288     -0.32141583659820
