12
Coordinates from ORCA-job run
  C   1.18075631740536     -0.27129194992320     -0.25681773811982
  C   -0.32134688933044     -0.05313420410004     -0.34211195302128
  F   1.55312713362597     -0.25974734303679      1.07862869232613
  H   -0.62849450623610     -0.07642036716161     -1.38931816570521
  H   1.43047409198208     -1.25101102719288     -0.67158455820183
  H   1.72894997464214      0.51506790373526     -0.77823357272001
  N   -0.55864956060012      1.38171295144565      0.09594846367408
  O   -0.98825924432597      1.57520605930267      1.22448070832888
  O   -0.23437666794100      2.24197819969547     -0.71993125227197
  N   -1.13950300384620     -0.92266093568111      0.43744450927508
  H   -0.73920345184847     -1.07509440419814      1.35298538414209
  H   -1.28447419352725     -1.80460488288529     -0.03249051770614
