12
Coordinates from ORCA-job run
  C   1.27612898480088     -0.33356938980624      0.03793276997213
  C   -0.15156668135259     -0.11414788716768     -0.41139287161953
  F   2.06173120922005      0.71698789774945     -0.39624806867360
  H   -0.21435845470379     -0.04256978385816     -1.49699061744467
  H   1.32470709832833     -0.37426777185138      1.12854901549944
  H   1.64645577214966     -1.26315546910907     -0.39530636475510
  N   -0.56671626490470      1.26757299122883      0.08678238675842
  O   -0.66356828312581      1.38760315891276      1.30686284459986
  O   -0.78209893594559      2.14058946818575     -0.74747914273702
  N   -0.98049515171400     -1.15635783870621      0.08846487479550
  H   -1.91300990947151     -1.11497731833374     -0.29950301152451
  H   -1.03720938328092     -1.11370805724431      1.09832818512906
