16

C	-0.45502	0.009826	-1.464848
C	0.0	0.0	0.0
Cl	-2.231711	0.129705	-1.620621
H	1.096003	0.0	0.0
N	0.153594	1.236937	-2.178488
O	1.077954	1.01745	-2.946813
O	-0.330874	2.322369	-1.892943
C	-0.024803	-1.187801	-2.178803
N	0.282383	-2.170054	-2.747375
C	-0.481418	-1.238328	0.603419
N	-0.887381	-2.209656	1.125362
C	-0.436923	1.206433	0.83323
H	0.055476	2.108017	0.47453
H	-1.518563	1.350147	0.824937
H	-0.105113	1.030234	1.857702
Cl	3.192042	0.0	0.0
