16

C	-0.408711	0.008221	-1.478206
C	0.0	0.0	0.0
Cl	0.214172	-1.408102	-2.31459
H	1.096423	0.0	0.0
N	-1.95435	0.008023	-1.555419
O	-2.525625	-1.07084	-1.555056
O	-2.480217	1.116803	-1.521691
C	0.046936	1.217512	-2.156797
N	0.403804	2.19126	-2.709563
C	-0.483176	-1.213543	0.648258
N	-0.862613	-2.159876	1.232683
C	-0.451325	1.246969	0.764296
H	-1.536537	1.315865	0.862135
H	-0.074004	2.142923	0.268566
H	-0.003779	1.204412	1.758477
Cl	3.193473	0.0	0.0
