16

C	-0.516105	0.178656	-1.424718
C	0.0	0.0	0.0
Cl	0.289474	1.5428	-2.218828
H	1.107204	0.0	0.0
N	-0.214902	-1.06143	-2.296906
O	-0.889989	-1.16514	-3.31503
O	0.681889	-1.796419	-1.920349
C	-1.96427	0.381003	-1.465677
N	-3.12337	0.569739	-1.416842
C	-0.532766	-1.246897	0.540614
N	-1.018965	-2.207691	1.010713
C	-0.41648	1.171155	0.899918
H	0.000297	2.100264	0.510222
H	0.016537	1.003927	1.887115
H	-1.501726	1.260458	0.994708
Cl	3.237336	0.0	0.0
