16

C	-0.408361	-0.051041	-1.477714
C	0.0	0.0	0.0
Cl	0.219604	-1.496847	-2.256598
H	1.096618	0.0	0.0
N	-1.954738	-0.059548	-1.557819
O	-2.483359	1.048489	-1.554201
O	-2.522638	-1.139864	-1.532133
C	0.044071	1.132246	-2.203064
N	0.392418	2.080459	-2.803753
C	-0.487311	-1.184777	0.69623
N	-0.899265	-2.097812	1.310808
C	-0.44803	1.277114	0.714969
H	-1.532642	1.351406	0.813297
H	-0.070894	2.151647	0.1824
H	0.003028	1.27368	1.708577
Cl	3.19473	0.0	0.0
