16

C	-0.486604	-0.153758	-1.450816
C	0.0	0.0	0.0
Cl	0.233272	1.083701	-2.477794
H	1.102666	0.0	0.0
N	-0.067417	-1.549498	-1.977105
O	-0.858053	-2.446222	-1.698901
O	0.994379	-1.648863	-2.561403
C	-1.942962	-0.077205	-1.555785
N	-3.110054	0.054985	-1.615949
C	-0.494073	-1.104075	0.816852
N	-0.898982	-1.943288	1.533724
C	-0.450705	1.331311	0.610066
H	-1.539535	1.427254	0.630972
H	-0.069189	1.379807	1.631121
H	-0.013941	2.159938	0.053311
Cl	3.220028	0.0	0.0
