16

C	-0.413596	0.017434	-1.477557
C	0.0	0.0	0.0
Cl	0.233399	-1.378955	-2.32759
H	1.096422	0.0	0.0
N	-1.96015	-0.011984	-1.553195
O	-2.506521	1.085962	-1.492559
O	-2.510977	-1.101386	-1.582547
C	0.019014	1.241489	-2.144849
N	0.353273	2.22811	-2.689606
C	-0.481703	-1.21939	0.638469
N	-0.866057	-2.169233	1.21389
C	-0.450238	1.238338	0.778763
H	-0.073603	2.138962	0.291662
H	-0.000259	1.18525	1.771824
H	-1.535198	1.30652	0.879311
Cl	3.198588	0.0	0.0
