16

C	-0.503742	-0.00538	-1.441617
C	0.0	0.0	0.0
Cl	0.285724	1.270807	-2.384229
H	1.093964	0.0	0.0
N	-0.161377	-1.333694	-2.15269
O	-0.821843	-1.57759	-3.15692
O	0.749151	-1.992345	-1.68141
C	-1.954393	0.15969	-1.527759
N	-3.117298	0.331616	-1.539238
C	-0.520421	-1.185834	0.676397
N	-0.979206	-2.103932	1.24871
C	-0.440312	1.263414	0.74943
H	-1.527532	1.35307	0.812404
H	-0.022529	2.14447	0.262196
H	-0.026628	1.216018	1.757532
Cl	3.252978	0.0	0.0
