16

C	-0.48761	0.02484	-1.456845
C	0.0	0.0	0.0
Cl	0.184144	1.408742	-2.313547
H	1.096893	0.0	0.0
N	-0.026057	-1.275062	-2.164256
O	1.01768	-1.253561	-2.787072
O	-0.770116	-2.233582	-1.977389
C	-1.946471	0.068404	-1.544228
N	-3.11897	0.152589	-1.562859
C	-0.489295	-1.197959	0.675922
N	-0.892186	-2.114941	1.290803
C	-0.456754	1.240873	0.773844
H	-0.082711	1.155516	1.794338
H	-1.545859	1.330724	0.800398
H	-0.01927	2.136504	0.33332
Cl	3.223813	0.0	0.0
