16

C	-0.400683	0.127235	-1.475277
C	0.0	0.0	0.0
Cl	0.240158	-1.210435	-2.419625
H	1.10825	0.0	0.0
N	-1.946199	0.121035	-1.566774
O	-2.509605	-0.954356	-1.690826
O	-2.480322	1.21619	-1.416187
C	0.048111	1.392076	-2.04962
N	0.392956	2.40509	-2.535501
C	-0.495238	-1.257617	0.544988
N	-0.924475	-2.233022	1.040716
C	-0.446337	1.183448	0.86194
H	-0.060246	2.113684	0.4421
H	-1.53118	1.252256	0.961056
H	-0.002848	1.056583	1.850969
Cl	3.19397	0.0	0.0
