16

C	-0.472525	-0.087454	-1.457445
C	0.0	0.0	0.0
Cl	-2.248781	-0.118791	-1.587854
H	1.096341	0.0	0.0
N	0.038732	1.159723	-2.210707
O	1.081555	1.014934	-2.831199
O	-0.614504	2.185584	-2.084343
C	0.051074	-1.267651	-2.136037
N	0.398805	-2.251092	-2.677248
C	-0.469358	-1.196965	0.689816
N	-0.870807	-2.134635	1.272912
C	-0.44587	1.264189	0.737511
H	-1.527053	1.408528	0.70343
H	0.053566	2.136344	0.317296
H	-0.12726	1.169583	1.776841
Cl	3.197512	0.0	0.0
