16

C	-0.495598	-0.059417	-1.453354
C	0.0	0.0	0.0
Cl	0.265859	1.20259	-2.417657
H	1.108246	0.0	0.0
N	-0.127024	-1.438898	-2.053207
O	0.962496	-1.557338	-2.580822
O	-0.977567	-2.307323	-1.883645
C	-1.948428	0.075442	-1.547385
N	-3.109057	0.256894	-1.594948
C	-0.486969	-1.156231	0.745334
N	-0.874167	-2.050005	1.402845
C	-0.443316	1.290408	0.696816
H	-1.531617	1.375038	0.756037
H	-0.031418	2.152978	0.173267
H	-0.029537	1.286575	1.706078
Cl	3.224164	0.0	0.0
