16

C	-0.49755	0.091474	-1.440026
C	0.0	0.0	0.0
Cl	0.3205	1.406301	-2.301746
H	1.101058	0.0	0.0
N	-0.18415	-1.198709	-2.233857
O	-0.813292	-1.337202	-3.277056
O	0.672025	-1.937195	-1.777552
C	-1.943729	0.29087	-1.519219
N	-3.103531	0.485955	-1.512121
C	-0.535483	-1.211418	0.612418
N	-1.018354	-2.147279	1.13427
C	-0.423915	1.225933	0.82012
H	0.005051	2.126708	0.381396
H	-0.009314	1.117102	1.823121
H	-1.510007	1.325773	0.890532
Cl	3.229907	0.0	0.0
