12
Coordinates from ORCA-job run
  C   -0.50000748645345      0.15805614036710     -0.00450663767887
  C   0.41401215857264     -0.84505092057047      0.17875100589487
  H   0.12516266254497     -1.87151901648768      0.34660668592433
  N   -1.85045717885801     -0.13659956472757     -0.09387977127061
  H   -2.08207568670597     -1.10256095476673      0.07584658727136
  H   -2.43922207670386      0.49885315358294      0.42429258206145
  N   -0.21821891337067      1.48816988463310     -0.09693526089717
  H   0.76877975867150      1.68786265351586     -0.18532652480350
  H   -0.83408317577045      2.01120452477974     -0.69932943487422
  N   1.81655451372832     -0.67068410360814      0.04963518783126
  O   2.28869168009200      0.47199790409210     -0.08865840396535
  O   2.51086374425298     -1.68872970081027      0.09350398450647
