12
Coordinates from ORCA-job run
  C   -0.49711278911142      0.15012743408378      0.06532026756027
  C   0.43135281371980     -0.86377321114194      0.11790896634658
  H   0.14988162900415     -1.89956081188116      0.22873026743598
  N   -1.83612317785909     -0.15562187950610      0.22645176997074
  H   -2.06005254105575     -1.12926315069817      0.09914008112528
  H   -2.48094535451560      0.45145934880696     -0.25519950097207
  N   -0.19719222082122      1.46607434881757     -0.01106861524462
  H   0.76327383321410      1.68463728535716     -0.23104744204852
  H   -0.91965150192775      2.12717930443696     -0.23359431060457
  N   1.82483622849455     -0.66122291783905      0.02637944070477
  O   2.27598040092436      0.49113309906256     -0.12919253718777
  O   2.54475267993387     -1.66116884949857      0.09517161291392
