12
Coordinates from ORCA-job run
  C   -0.49821521788187      0.16119776194303      0.02898915578906
  C   0.40213111747914     -0.86960751972693     -0.01941823636902
  H   0.11002815606333     -1.90141363152104      0.10401110621817
  N   -1.81966010830470     -0.08310878607673      0.35902395594066
  H   -2.05936981086339     -1.05632346695265      0.46040899602612
  H   -2.48239735751890      0.42598789972235     -0.20648356494851
  N   -0.23001958360277      1.47021737197505     -0.24300655788254
  H   0.75745500703884      1.66838984451824     -0.33111145016831
  H   -0.76777687108323      2.13178444895707      0.29471156578833
  N   1.80632363660572     -0.69085399125350     -0.11986736559331
  O   2.27415552745120      0.44429151816257     -0.32061260300628
  O   2.50534550461665     -1.70056144974745     -0.00864500179438
