12
Coordinates from ORCA-job run
  C   -0.26493870949707      0.44857711517805      0.07017973867355
  C   0.84082454308086     -0.30576023329841      0.38829101015635
  H   1.48720498311556     -0.06175331586534      1.21723811767175
  N   -1.04898319778330      0.24684535018805     -1.01597727116693
  H   -1.97668384103469      0.63374123831819     -1.02272838273409
  H   -0.89014553061940     -0.62857944705627     -1.49495175801712
  N   -0.54117578317636      1.57573764972987      0.81782855642601
  H   -0.14300521873148      1.57907624462477      1.74239936051850
  H   -1.49586003128992      1.89660523540501      0.80090801852660
  N   1.23135957560746     -1.46736265499558     -0.31093485277972
  O   0.57198151903129     -1.85148624163560     -1.29784149371740
  O   2.22742169129706     -2.06564094059273      0.10458895644249
