12
Coordinates from ORCA-job run
  C   -0.35608835498931      0.36987236057040      0.10685016153695
  C   0.92939468043585     -0.08967195625750      0.21173025725204
  H   1.67890555061026      0.41028924961104      0.80627599843407
  N   -1.31906767006395     -0.12990312000791     -0.71808153446237
  H   -2.25780349400903     -0.07068500358578     -0.35604961542806
  H   -1.06536457976189     -1.00622304153475     -1.15295862854192
  N   -0.77511025475785      1.44820217566976      0.86892551798369
  H   -1.33955985283370      2.11077005879830      0.35773507900920
  H   -0.04460156654293      1.89440941065645      1.40078232664764
  N   1.38278483051079     -1.31136883845069     -0.35119355786296
  O   0.63513498798009     -1.96258927852970     -1.10234236789249
  O   2.53137572342166     -1.66110201693962     -0.07067363667579
