12
Coordinates from ORCA-job run
  C   -0.50444313024227      0.14024146266915      0.02986470451932
  C   0.43484987347982     -0.84851579639696     -0.09300133268939
  H   0.17352991704919     -1.87885928790721     -0.28096629162235
  N   -1.84186186650220     -0.13553661037539     -0.20028601755534
  H   -2.04972974119983     -1.10748820754885     -0.36612807189473
  H   -2.46469296552383      0.28440898412337      0.47390675357087
  N   -0.26173990263396      1.43232260774106      0.39013780796322
  H   0.72088031523070      1.66909908944004      0.40725036391034
  H   -0.87455220953916      2.11129215959983     -0.03331674743886
  N   1.83452750223463     -0.61328814869326     -0.10705557681267
  O   2.55825872821968     -1.57531887258484     -0.37374710386138
  O   2.27497347942725      0.52064261993305      0.15334151191096
