12
Coordinates from ORCA-job run
  C   -0.32721481989428      0.38633139390848      0.13658565193946
  C   0.89231684750107     -0.22226943393979      0.26830435235981
  H   1.69401644240963      0.20225450738050      0.85335401653988
  N   -1.42291327497059     -0.14459225394199     -0.47638063811444
  H   -1.22618861820817     -0.99067099295304     -0.99343416268772
  H   -2.01779858797042      0.52753884023202     -0.93485978157976
  N   -0.53847723805838      1.64760301318897      0.66787643453274
  H   -1.42736273722613      1.74727513818890      1.13559205501698
  H   0.22805330956079      2.00974383830570      1.21256746078658
  N   1.27128920019476     -1.39584332598206     -0.43436147142110
  O   2.44833186810900     -1.74929535385970     -0.33412220747930
  O   0.42594760855269     -2.01907537052799     -1.10112170989313
