12
Coordinates from ORCA-job run
  C   -0.35570203966085      0.37404298052757      0.09236946749036
  C   0.88962060810293     -0.14620923457814      0.32409420896347
  H   1.63493695164782      0.36943194864345      0.91045709204056
  N   -0.66676015064918      1.65466246742213      0.51781756047132
  H   0.04904796900024      2.10142034494730      1.06868028886077
  H   -1.58206254859368      1.73223338790030      0.93618999367449
  N   -1.38600383779900     -0.26674411584027     -0.52824558824454
  H   -1.11512734229337     -1.13426994548544     -0.97075826377201
  H   -1.99859140803981      0.33113373860837     -1.06021820972826
  N   1.37144486584635     -1.34118929302049     -0.27099538251467
  O   0.59807768988953     -2.06280533620716     -0.92577252074318
  O   2.56111924254902     -1.61170694291762     -0.09261864649832
