12
Coordinates from ORCA-job run
  C   -0.49961279253883      0.15784196208006      0.01996576131665
  C   0.41666468407360     -0.85610187207387      0.10681531073387
  H   0.12953916629973     -1.89186002877089      0.20664381467272
  N   -0.21740390628203      1.49112221236444      0.01766671076476
  H   0.76754238137385      1.69604084952091     -0.08073525611236
  H   -0.84594236539201      2.05688738877457     -0.53057171830279
  N   -1.85219781409535     -0.12913928514941     -0.05673428923118
  H   -2.42724514018010      0.46886386276114      0.51819146904934
  H   -2.08289800344898     -1.10440243901347      0.04841719861692
  N   1.81592120262366     -0.67353537281564     -0.04490581479900
  O   2.28715351525112      0.47582427097951     -0.11172758085963
  O   2.50847907231534     -1.69254154865736     -0.09302560584931
