12
Coordinates from ORCA-job run
  C   -0.35376943247869      0.36254128740566      0.13602806352980
  C   0.91623432034220     -0.13830608981982      0.24276992782284
  H   1.69850252196493      0.37154520299764      0.78440056673717
  N   -0.65255029649351      1.61928056558681      0.63513116285194
  H   0.09892193378831      2.06269618002237      1.13919524865585
  H   -1.53003090191962      1.66052654879766      1.13225398051414
  N   -1.42045022340151     -0.27784204907451     -0.42029735651412
  H   -2.08673595895628      0.32540358059279     -0.87623179816610
  H   -1.17148902972909     -1.12260852761401     -0.91649131229106
  N   1.36919341017742     -1.29936840674797     -0.43642495849736
  O   2.57459569508217     -1.54968208420955     -0.36804272874780
  O   0.55757796162367     -2.01318620793708     -1.05229079589530
