12
Coordinates from ORCA-job run
  C   -0.38913081035015      0.31250457173891      0.17492262543239
  C   0.93429165449652     -0.02816718071231      0.08885206142503
  H   1.71712253412045      0.56715985880694      0.53319632184241
  N   -0.79423395215834      1.37775927573577      0.98590136300969
  H   -0.05698050572231      1.69669643337222      1.59680504556370
  H   -1.18333712357719      2.14712033553072      0.45678891742204
  N   -1.41494781850509     -0.27362191131300     -0.48547205137715
  H   -1.18179939035989     -1.13959758509678     -0.94978791906800
  H   -2.31278470169021     -0.20269789539105     -0.03693086549262
  N   1.42197704864229     -1.17131755995115     -0.60286852424377
  O   0.62324638154519     -1.95056698440424     -1.14404183714149
  O   2.63757668355872     -1.33627135831602     -0.61836513737222
