12
Coordinates from ORCA-job run
  C   -0.32332977424999      0.37513014925411      0.16357087657569
  C   0.93471153087943     -0.08754817552788      0.31021771970040
  H   1.73735912956073      0.38257771022054      0.85824334519756
  N   -1.37978986250580     -0.34482544422845     -0.36458324950818
  H   -1.92841891707305      0.17822329809692     -1.03042941248565
  H   -1.16247294086487     -1.28174341032174     -0.66711327224026
  N   -0.70771693053106      1.65576832694214      0.56886086570064
  H   0.05200029736077      2.20159235386063      0.94564319585157
  H   -1.51394068363756      1.64705108758986      1.17774353019333
  N   1.34485403353225     -1.27199772626684     -0.43895663007763
  O   0.83144638434279     -2.35485630217275     -0.13852360838464
  O   2.11529773318636     -1.10037186744653     -1.38367336052283
