12
Coordinates from ORCA-job run
  C   -0.49483652712994      0.16262255358027      0.06044847331583
  C   0.39195507033282     -0.86795897558374     -0.10461808723988
  H   0.07580191905812     -1.88932353662085     -0.25302618963406
  N   -1.85523515354374     -0.06115960374641     -0.07121816323882
  H   -2.41201835464081      0.39748273763008      0.63479202658692
  H   -2.11255093424364     -1.02706067842962     -0.19850083294410
  N   -0.17425347861275      1.44921108189453      0.37342830812201
  H   -0.78971182502560      2.14716534710825     -0.01336957754351
  H   0.81573296359480      1.64570684766069      0.31888482722939
  N   1.79568876239187     -0.69297345951678     -0.21936622497778
  O   2.45909347336897     -1.68982548175952     -0.51357601898878
  O   2.29933408444989      0.42611316778309     -0.01487854068723
