12
Coordinates from ORCA-job run
  C   -0.50638259485091      0.14854151101840      0.09529281490372
  C   0.41986084405191     -0.82877099441822     -0.19410574090738
  H   0.15617895637978     -1.86731119754222     -0.32202689123504
  N   -1.85818472257789     -0.17563605107579      0.13306907404656
  H   -2.02588845698833     -1.16813567392652      0.06664094930683
  H   -2.34280061367233      0.22822421245712      0.92399811377230
  N   -0.21451830307144      1.43043734290748      0.36870355483005
  H   0.74289759839365      1.66792896428426      0.15063749960249
  H   -0.91864030113592      2.09660419752661      0.10608157973651
  N   1.78958126330773     -0.56657384449815     -0.42791805632623
  O   2.50437169121557     -1.53153906870602     -0.71419145145501
  O   2.25352463894817      0.56623060197305     -0.18418144627481
