12
Coordinates from ORCA-job run
  C   -0.33697938862697      0.37614865696430      0.14120324197472
  C   0.78448570652971     -0.36120006966645      0.41484185712451
  H   1.42613888367432     -0.15201372938850      1.25728148024185
  N   -1.25770885221886      0.09986567415513     -0.82380800141557
  H   -1.69559786494784      0.90810097772780     -1.23640306264842
  H   -0.96578870794474     -0.62589243199700     -1.46373133509530
  N   -0.62808982890327      1.50445008970093      0.88917087937288
  H   -1.60242523710712      1.58823945448422      1.13825391775165
  H   -0.01292573842796      1.66288549138892      1.67122198659633
  N   1.28647597705654     -1.38213221012769     -0.43355218067319
  O   0.61791372060166     -1.75789806462816     -1.41319137716491
  O   2.38450133031453     -1.86055383861350     -0.14028740606454
