12
Coordinates from ORCA-job run
  C   -0.33034139547731      0.38537903804827      0.13173765922845
  C   0.95564500397411     -0.05499332624649     -0.03742715624898
  H   1.81385616984451      0.53445957014077      0.24751690608541
  N   -0.57676384734177      1.57901016445846      0.78875487695660
  H   0.24736373533837      2.10463063153183      1.03295262192944
  H   -1.28440921686775      2.14819622426081      0.34873032154346
  N   -1.45392439815811     -0.24303739210359     -0.31309811426199
  H   -2.26786782299322     -0.11880778766187      0.26764491370803
  H   -1.28470001939540     -1.18044225586371     -0.65079257510304
  N   1.29298379771212     -1.36012700198164     -0.48111769270986
  O   0.40120715535882     -2.12517347062768     -0.89017926565330
  O   2.48595083800564     -1.67009439395516     -0.44472249547420
