12
Coordinates from ORCA-job run
  C   -0.50343741804535      0.14432525200206      0.02735497630599
  C   0.46143904833442     -0.80190988335202      0.24862027599445
  H   0.26161429185163     -1.72478904106165      0.77163871031593
  N   -1.76511348422903     -0.00459642543748      0.57814135593655
  H   -1.91798319420555     -0.88062805296462      1.05204939363844
  H   -2.51520447263891      0.22872201498333     -0.05569788355560
  N   -0.36026072353951      1.26921622180110     -0.72860172550075
  H   0.59546606410557      1.45495489303883     -1.00042470391206
  H   -0.89443882937583      2.06324836793944     -0.41254353883204
  N   1.83249187607393     -0.62426234699335     -0.07227822209749
  O   2.61325985906297     -1.49495871847694      0.31848494693332
  O   2.19216698260565      0.37067771852132     -0.72674358522674
