12
Coordinates from ORCA-job run
  C   -0.49613803836084      0.15166429716371      0.07799656236963
  C   0.40687004324784     -0.85928870110714     -0.11685046212731
  H   0.10864581751172     -1.88755893184059     -0.25443500678555
  N   -1.85513253755270     -0.10046929885168     -0.00878275548268
  H   -2.39780774964524      0.34639937374480      0.71556184533483
  H   -2.09626138434679     -1.07155599145863     -0.12854367894165
  N   -0.19314416425362      1.44543787933328      0.38058320245374
  H   0.79020525878613      1.66237598261810      0.29295287001061
  H   -0.83411063898446      2.12861015460111      0.00892227635220
  N   1.80184425129401     -0.65374393818603     -0.27900692263642
  O   2.47631717100331     -1.63578619383075     -0.59696025702053
  O   2.28771197130064      0.47591536781382     -0.09043767352686
