12
Coordinates from ORCA-job run
  C   -0.49111571882612      0.16978713121818      0.06084679028685
  C   0.37245553105462     -0.85972234444645     -0.20158013779993
  H   0.04034594656130     -1.88257600343448     -0.29532647017366
  N   -1.82802082847483     -0.08897315089439      0.32079016122348
  H   -2.45733580302231      0.54616688729948     -0.14821555103796
  H   -2.09862446988599     -1.05280752782822      0.20349692491874
  N   -0.17569633688163      1.49521712659620      0.07545119138884
  H   0.81828191499484      1.67561027932745      0.04052217602861
  H   -0.70246968500389      2.05177655159885      0.73021362433617
  N   1.78397739999023     -0.71779154979088     -0.24227748499873
  O   2.29204354064185      0.41747870059559     -0.21649674712105
  O   2.44615850885194     -1.75416610024134     -0.32842447705135
