12
Coordinates from ORCA-job run
  C   -0.50384309713624      0.11338609495846      0.09131689066573
  C   0.45221942621794     -0.81033386508596     -0.23667719011983
  H   0.23502874454345     -1.86375240029856     -0.32834390363265
  N   -0.33577815654149      1.46595989871546      0.10562727987230
  H   0.62844193182208      1.75400629699812      0.00972478886534
  H   -0.87763932072211      1.95268406843921      0.80220802005442
  N   -1.78277664191905     -0.29589352225261      0.42921426555166
  H   -1.95157450977383     -1.28375625313279      0.32438714663053
  H   -2.51178260277543      0.26780462270672      0.01749685555026
  N   1.83327344634548     -0.50929518412178     -0.36501227954161
  O   2.21447758870934      0.67455496563071     -0.33499330033896
  O   2.59995319122986     -1.46336472255699     -0.51394857355718
