12
Coordinates from ORCA-job run
  C   -0.29982924151509      0.41010693025018      0.13643645774470
  C   0.96769363909730     -0.12237664485884      0.10461548509250
  H   1.78266589796644      0.29362545108718      0.67662908373167
  N   -1.32336039671265      0.02684025391991     -0.67136852980430
  H   -2.25977247638645      0.13697900193569     -0.31939768617046
  H   -1.12950230105822     -0.81199937655185     -1.20241611663724
  N   -0.54188196741654      1.49653384647670      0.94537145465565
  H   0.02144466610967      1.57313964911713      1.77438601405255
  H   -1.49793774737069      1.78682575749389      1.05942738234131
  N   1.32161552807985     -1.27451553819739     -0.63104965532819
  O   0.48790787610648     -1.81513859807608     -1.38494103708528
  O   2.47095652309991     -1.70002073259654     -0.48769285259291
