12
Coordinates from ORCA-job run
  C   -0.48827444752927      0.15791745972574      0.10123487601564
  C   0.38608383935368     -0.85130631898691     -0.20827826598755
  H   0.07409173022265     -1.88153338780797     -0.28784443595234
  N   -0.20887854671634      1.48947095489769      0.08303047522197
  H   -0.73002793837254      2.05130766792763      0.73663932193780
  H   0.76871619578019      1.70638610453963     -0.05190638362376
  N   -1.78802349855007     -0.14122096009532      0.47286011401282
  H   -2.48217824981802      0.45582646997536      0.04839368901277
  H   -2.02954153991594     -1.11765798673251      0.41902678072876
  N   1.77860409460298     -0.66714828179836     -0.39139480670089
  O   2.25898490645868      0.48121488277134     -0.37953381936995
  O   2.46144345448400     -1.68325660441631     -0.54222754529527
