12
Coordinates from ORCA-job run
  C   -0.47004444814934      0.14649423600600      0.18578018618637
  C   0.43524652702133     -0.87477260325418      0.01279703047400
  H   0.16975125799055     -1.91092694694845      0.15551081479318
  N   -1.75825886021337     -0.16453707429731      0.56721039580543
  H   -2.07033680336381     -1.08802021010229      0.31754319118530
  H   -2.45566492154316      0.54655825689992      0.42040472413412
  N   -0.16307773280124      1.46704787364276      0.13817694899589
  H   0.75921852660596      1.66501830894395     -0.22556424897142
  H   -0.89904023348188      2.11989946559094     -0.07052325283618
  N   1.77522557924718     -0.68304175795831     -0.38646641242072
  O   2.46117061709832     -1.69488584875445     -0.55487533355824
  O   2.21581049158947      0.47116630023141     -0.55899404378771
