12
Coordinates from ORCA-job run
  C   -0.49368484584999      0.15625737385086      0.08266955601974
  C   0.39935990109826     -0.86410532448623     -0.10775119849636
  H   0.12190245179913     -1.90369630282405     -0.02136422864664
  N   -0.25006970640277      1.48040747632564     -0.12753648811482
  H   -0.74505339410225      2.10451831763350      0.48971351133170
  H   0.72487465017978      1.69241870208026     -0.28887826064674
  N   -1.78327431293633     -0.11519076815083      0.50958050505386
  H   -2.00934022238984     -1.09559001173301      0.56756763574225
  H   -2.49035388417738      0.41520855274988      0.02193071474780
  N   1.79008544688273     -0.66995055934101     -0.31460390636157
  O   2.23616904126736      0.47797823761877     -0.49013183995332
  O   2.49838487463132     -1.67925569372379     -0.32019600067590
