12
Coordinates from ORCA-job run
  C   -0.34341376697887      0.38827875914938      0.09650080940592
  C   0.96312196784047     -0.03840483449399      0.16350699368652
  H   1.70869223742041      0.47786490315660      0.74848259572873
  N   -0.71089859927129      1.51500520524653      0.80036449046677
  H   -0.16413586448187      1.71199863127910      1.62168313964887
  H   -1.69811084496504      1.66484875724561      0.92841928526399
  N   -1.28764735152309     -0.14134333675494     -0.72264297055299
  H   -1.00852843323736     -1.00883087798694     -1.16143172118259
  H   -2.25232204615255     -0.04375518275746     -0.45468059655967
  N   1.45480860858253     -1.18638313276069     -0.49369599956131
  O   2.63673521448903     -1.48234568960071     -0.29819370781643
  O   0.70169887827762     -1.85493320172248     -1.23031231852781
