12
Coordinates from ORCA-job run
  C   -0.33512349780286      0.39106932150696      0.09844750784096
  C   0.95268716259116     -0.07342216488443      0.06856828826725
  H   1.78602051106713      0.49759275445256      0.44898386065309
  N   -0.63116315523272      1.58592444422669      0.73313787805101
  H   0.17119930267673      2.09433910950638      1.06955025909430
  H   -1.27223179452764      2.17101347154843      0.21781958632470
  N   -1.41562447936479     -0.21303140187634     -0.47165085260310
  H   -1.22925356872869     -1.15113408570754     -0.79873888357265
  H   -2.28493346358442     -0.07799799418884      0.02005849083990
  N   1.31254703279903     -1.38225471452614     -0.34639073494610
  O   2.48793451247065     -1.71566968759183     -0.18016770483686
  O   0.45794143763642     -2.12642905246590     -0.85961769511250
