12
Coordinates from ORCA-job run
  C   -0.34394000081579      0.37175387255831      0.12397917088290
  C   0.73850854578449     -0.38557370413133      0.51417415611290
  H   1.36913022196572     -0.09874050076693      1.34223975233561
  N   -0.79793942191219      1.40824816582915      0.93134610801609
  H   -1.06559836080734      2.22548486807136      0.40225440651470
  H   -0.15335845010678      1.63990101710130      1.67079099732277
  N   -1.10725333221279      0.13345260287490     -0.96030235060371
  H   -0.82780502551355     -0.60156259531262     -1.58974196153091
  H   -1.95452423260850      0.65091073219504     -1.10679539064655
  N   1.24507190865245     -1.47100975697523     -0.24248762938957
  O   2.28430057676462     -2.00062657273282      0.15549075581966
  O   0.61240757080965     -1.87123812871115     -1.23994801483389
