12
Coordinates from ORCA-job run
  C   -0.49386086365127      0.15256509787329      0.08882496266219
  C   0.40838439094120     -0.86146158666134     -0.09194388213467
  H   0.14455639402308     -1.90202991877447      0.02126388308848
  N   -1.77111522064596     -0.12370578283089      0.54821268417040
  H   -1.98412640468463     -1.10488524504711      0.63466994265554
  H   -2.49399694968999      0.38723614288114      0.06298786445986
  N   -0.27100445962868      1.47388225722056     -0.16008115315423
  H   0.69867388330151      1.69296032449072     -0.34337863783399
  H   -0.76173670796787      2.10831011609568      0.45023942936970
  N   1.79180237293189     -0.65675811950531     -0.33416064770026
  O   2.51096981116038     -1.65835360793323     -0.33562747650613
  O   2.22145375391035      0.49224032219095     -0.54100696907689
