12
Coordinates from ORCA-job run
  C   -0.33933376455965      0.39322003527337      0.07211651148433
  C   0.93144338933218     -0.10047435210551      0.20041724381060
  H   1.70838959609668      0.42562163687320      0.73407717707176
  N   -0.70575010795615      1.55581273605320      0.72936090831676
  H   0.04699737203435      2.02441941479146      1.20813059629371
  H   -1.25634888099288      2.18516647620727      0.16404014600243
  N   -1.33441022374625     -0.14974758252545     -0.68450028826746
  H   -1.11681755575756     -1.07144529741000     -1.03795057147610
  H   -2.26396278278931     -0.02240346561307     -0.31650154569070
  N   1.32619370978075     -1.39218623247593     -0.23564658101489
  O   2.45792924068970     -1.76513000921081      0.08115763247574
  O   0.54467000786815     -2.08285335985772     -0.91370122900617
