12
Coordinates from ORCA-job run
  C   -0.30409451352916      0.41192402519214      0.06975619418987
  C   0.79294747754372     -0.31308739328588      0.46522595650627
  H   1.30768190103189     -0.12824385324716      1.39506957819074
  N   -0.99548109205392      0.22220399203583     -1.07373287306097
  H   -0.82716870482495     -0.63143458601774     -1.58054317978555
  H   -1.81296829280751      0.77433716851536     -1.25754856038216
  N   -0.70634251783882      1.50674529345461      0.82342503611957
  H   -1.70588698500291      1.59508499669838      0.92966908420521
  H   -0.22096938042792      1.60072524409541      1.70115063388955
  N   1.33698196218486     -1.37998995861935     -0.28753684953181
  O   2.35942175272538     -1.91308211779985      0.15232139656885
  O   0.77487839299933     -1.74418281102175     -1.33725641690957
