12
Coordinates from ORCA-job run
  C   -0.50423713175775      0.12196204471000      0.07308841397026
  C   0.45851855677379     -0.83413188651615     -0.11030482298494
  H   0.24729276245175     -1.89118674046841     -0.05340456166020
  N   -0.34346508168125      1.46278577970539     -0.10847124735489
  H   0.61851847075200      1.74228642694243     -0.24267535705740
  H   -0.89533346472675      2.04329107667424      0.50307918038416
  N   -1.78295626621950     -0.24152574801341      0.46207627305094
  H   -1.94460169434664     -1.23543139330103      0.50100487681411
  H   -2.51242142348024      0.24991560407743     -0.03317908246161
  N   1.83772098264835     -0.54602379675300     -0.28065826085169
  O   2.61020299457899     -1.50703989086612     -0.29017449665801
  O   2.21176129500726      0.63209852380864     -0.42038091519073
