12
Coordinates from ORCA-job run
  C   -0.50922649802433      0.12416656756309      0.02374679152079
  C   0.46304951541306     -0.83487958052428     -0.07777346689080
  H   0.24225976232239     -1.89122571610408     -0.05324918268080
  N   -0.32486719460101      1.46640615906881     -0.12388617574772
  H   -0.92952366518193      2.04196031424472      0.44076526902904
  H   0.64792368173440      1.73934306382137     -0.15665542191763
  N   -1.82132642505568     -0.23724646820483      0.27968956741950
  H   -1.99055881544785     -1.23062345373240      0.28759959352060
  H   -2.49690822278406      0.26586410536950     -0.27648664748108
  N   1.85364439138314     -0.55274648356126     -0.10450846408460
  O   2.61891467183365     -1.51787723283076     -0.04707447339954
  O   2.24561879840820      0.62485872489011     -0.19016738928775
