12
Coordinates from ORCA-job run
  C   -0.34057342176085      0.37387904416215      0.13842359732266
  C   0.86445991670695     -0.24757461871763      0.33040574416237
  H   1.60458946106836      0.11955987123485      1.02510209091228
  N   -1.37016157370939     -0.09664900487824     -0.62068006575453
  H   -1.12222207014108     -0.89497712109049     -1.18898914952197
  H   -1.92414409322856      0.61471038477644     -1.07105062503686
  N   -0.60803048900545      1.58356961440869      0.75708605380652
  H   0.10167870103927      1.89388496782745      1.40164510077389
  H   -1.53761647407052      1.64398274463639      1.14573000631815
  N   1.31401256779288     -1.35584065786393     -0.43413094910927
  O   0.53894011491501     -1.91484119953114     -1.23054415908436
  O   2.47806736039337     -1.72070402496453     -0.25399764478886
