13

C	-0.49398	0.005479	-1.40994
C	0.0	0.0	0.0
F	-1.913638	0.00585	-1.450525
H	1.09538	0.0	0.0
H	-0.161956	0.90732	-1.926585
H	-0.162252	-0.892499	-1.933495
N	-0.420642	-1.249924	0.648389
H	0.172709	-1.386782	1.457286
H	-1.383272	-1.178099	0.962851
N	-0.420294	1.245124	0.658307
H	-1.382908	1.170917	0.97709
H	0.17764	1.3771	1.466229
F	2.69659	0.0	0.0
