13

C	-0.472951	0.011037	-1.438503
C	0.0	0.0	0.0
F	-0.287325	-1.231169	-2.053161
H	1.095744	0.0	0.0
H	0.092018	0.751019	-2.014272
H	-1.553808	0.227226	-1.50125
N	-0.494274	-1.14243	0.757586
H	0.032782	-1.948823	0.444569
H	-1.472377	-1.309838	0.534111
N	-0.455204	1.257263	0.618909
H	0.38042	1.718474	0.957547
H	-0.883536	1.875347	-0.06433
F	2.723751	0.0	0.0
