13

C	-0.325936	-0.008305	-1.471402
C	0.0	0.0	0.0
F	-1.729249	-0.011071	-1.706491
H	1.096544	0.0	0.0
H	0.071259	0.882822	-1.964369
H	0.073483	-0.904008	-1.954603
N	-0.483743	-1.206436	0.67298
H	0.228782	-1.918379	0.563488
H	-1.337715	-1.535761	0.234034
N	-0.489223	1.209747	0.662269
H	-1.348585	1.528949	0.226762
H	0.216921	1.924867	0.538205
F	2.709987	0.0	0.0
