13

C	-0.491098	-0.042655	-1.42586
C	0.0	0.0	0.0
F	-1.850505	0.146237	-1.490152
H	1.09212	0.0	0.0
H	-0.335015	0.949219	0.426092
N	0.109192	1.153095	-2.176665
O	-0.169712	2.242904	-1.69505
O	0.764717	0.931311	-3.185257
C	-0.163064	-1.278367	-2.140899
N	0.040487	-2.305313	-2.672813
C	-0.548299	-1.110658	0.762953
N	-1.007347	-1.996155	1.382061
Cl	3.211325	0.0	0.0
