18
Coordinates from ORCA-job run
  C   -0.66514428321723      0.20448845918751     -0.49877659278537
  C   0.84728064607570      0.09979685120054     -0.24386492328957
  F   -0.80417249119278     -0.37433209241805     -1.79501019393371
  H   1.34328384263184      0.59699235579724     -1.07992765983355
  C   -1.54342565240070     -0.60538095864126      0.42584032314095
  H   -1.39659768857930     -0.29726679878734      1.45956968758459
  H   -2.58854348579308     -0.44973611654767      0.14754930313217
  H   -1.32668334646850     -1.66803193558613      0.32566652471333
  N   -1.04249389311760      1.56524596177366     -0.49054817017768
  H   -0.49269804347031      2.12048178317871     -1.13398829672664
  H   -2.02676268799049      1.68001287743565     -0.69213430092229
  C   1.36244724150413     -1.31302892055731     -0.07006515795724
  H   2.45309370448324     -1.31257953219317     -0.01943964794952
  H   0.97550271087453     -1.75917539732029      0.84479771974457
  H   1.05453082457179     -1.91274949596203     -0.92713238142050
  N   1.19709648017651      0.93176446843788      0.95070251009242
  O   0.92691498167970      0.47327345692829      2.05872908355318
  O   1.72637114023256      2.02022503407381      0.73803217303486
