18
Coordinates from ORCA-job run
  C   -0.72889205000105     -0.08080837804842     -0.16293349533812
  C   0.75076282906432      0.24467927126633      0.10100445980413
  F   -0.83764392120241     -1.48946204482734     -0.17708033980912
  H   0.83604196189260      1.32660996561469      0.20503352476024
  C   -1.66710859508053      0.41817791306869      0.91409125745920
  H   -1.57298924083450      1.49687416696415      1.03888140019782
  H   -1.45914389944446     -0.06982503478913      1.86434571879046
  H   -2.69313966171892      0.17645402420013      0.62642272717595
  N   -1.07772742930272      0.47367352527170     -1.42580649172702
  H   -2.07624451712103      0.40134363654896     -1.57652169347401
  H   -0.60734550270901     -0.01746924978592     -2.17566017490833
  C   1.69460975222623     -0.29918242286882     -0.95337300966471
  H   1.56977970645935      0.25986586408983     -1.88203819386877
  H   1.50903550330444     -1.35801320937831     -1.12563436291455
  H   2.73014784639993     -0.18037148989247     -0.63175615648228
  N   1.12473417938520     -0.30034564048277      1.44753506095116
  O   1.54403067428018     -1.45289843627052      1.50550860756674
  O   0.96109236440239      0.45069753931920      2.40998116148121
