18
Coordinates from ORCA-job run
  C   -0.72732158816587      0.35181122147074     -0.39082040271478
  C   0.77703167041324      0.04428867644624     -0.39547539770859
  F   -0.96203538486782      1.09552221047844     -1.56178170527701
  H   1.04287005018156     -0.20725274366669     -1.42268537849942
  C   -1.55331509800687     -0.91310152439724     -0.55311907568959
  H   -2.59258795692908     -0.61595275928503     -0.71431101183172
  H   -1.50108992751511     -1.53817407387222      0.33847542520493
  H   -1.23122467012003     -1.48734126421786     -1.42449092252491
  N   -1.09315670822951      1.14988318641373      0.72252784233654
  H   -2.04722305988189      1.01662455849526      1.01893716676035
  H   -0.44926373874415      1.14682973925283      1.49711652038243
  C   1.21587931969366     -1.03152770480705      0.57883510195159
  H   2.30503380305225     -1.08802452897533      0.61210462240284
  H   0.85932179290502     -0.83280513577581      1.58912036283190
  H   0.83683352852706     -2.00035019945693      0.25184117590768
  N   1.52425264755449      1.31756291926777     -0.12107396219135
  O   1.86735784241969      1.99044089023120     -1.08689844943759
  O   1.72863747771338      1.60156653239794      1.06069808809669
