18
Coordinates from ORCA-job run
  C   -0.76162414613679     -0.13929874834444     -0.26258541995256
  C   0.71565275662133      0.19037211484826      0.05858539403693
  F   -0.83953911697843     -1.52263768805271     -0.38720771645664
  H   0.83309715925407      1.27366516941344     -0.00148898746115
  C   -1.71557302370861      0.28397851521934      0.83366829002390
  H   -1.59671434655067      1.34034686722593      1.08321361636978
  H   -2.73256095055371      0.09909398473088      0.48705719856068
  H   -1.53876284059291     -0.30593683767215      1.73259811846797
  N   -1.19016640818807      0.41347051605719     -1.51548118862111
  H   -1.41350920354131      1.39544089898634     -1.43038689854087
  H   -0.50960023295679      0.27838419894409     -2.25104532845158
  C   1.71482775077017     -0.54001791886465     -0.81687940294397
  H   1.57778244386108     -0.26584042791404     -1.86467700620385
  H   1.59207189957043     -1.61507986418237     -0.71088664136177
  H   2.73359191614295     -0.26794060308445     -0.53451653638419
  N   0.98982460058401     -0.12815741335505      1.49749966153995
  O   1.20264617915178     -1.30180119216798      1.79168278307347
  O   0.93955556325148      0.81095842821238      2.29285006430499
