18
Coordinates from ORCA-job run
  C   -0.72851610461652     -0.22323071834963     -0.29709340865934
  C   0.67120692718111      0.29999310793099      0.10471586006804
  F   -0.56228542242480     -1.55506202928077     -0.66257582190260
  H   0.59442023399458      1.38038737755275      0.23823671127573
  C   -1.72820899820804     -0.17283221746660      0.83827303088887
  H   -1.43832313940526     -0.87027965033089      1.62370477632657
  H   -1.79457073855199      0.82769469307840      1.27049372735524
  H   -2.70099225732284     -0.47050994053895      0.44631247517432
  N   -1.26380361284816      0.45579181367816     -1.44229634851995
  H   -1.65265904126263      1.35428451927232     -1.19131407066202
  H   -0.57965671157785      0.57124231539064     -2.17793227871273
  C   1.77248450215677     -0.07627019207433     -0.86696412811631
  H   1.84135634225479     -1.15756339389221     -0.95692903717269
  H   1.57694913073281      0.35360250809058     -1.85122984448086
  H   2.73104800901592      0.31445615811887     -0.52041341344307
  N   1.01602636823972     -0.21372112580885      1.46994474509555
  O   0.80989455075149      0.54629087438697      2.41693735025676
  O   1.43762996189090     -1.36427409975744      1.55712967522849
