18
Coordinates from ORCA-job run
  C   -0.70147010280770      0.17520470783351     -0.45905296792364
  C   0.82506925019614      0.17265344663276     -0.27690628478694
  F   -0.86019623329743     -0.35620614214885     -1.77301207129332
  H   1.24336160341183      0.73955280971145     -1.11113593312926
  C   -1.47310118399778     -0.73651197297180      0.46574844486743
  H   -1.29833485015718     -0.46336699280575      1.50498590736384
  H   -2.53915312234969     -0.64716295398957      0.24333911828868
  H   -1.18517992537162     -1.77476100785420      0.30624244086166
  N   -1.17545380938182      1.50276569889107     -0.37093629890757
  H   -2.17422556002601      1.55185616697483     -0.52174054259756
  H   -0.70014931556505      2.12329730368741     -1.01414933461838
  C   1.44907364223756     -1.20379752415586     -0.18966325104909
  H   1.13921336587396     -1.71547047230553      0.72023499308132
  H   2.53798039801376     -1.12405401395381     -0.18702653094397
  H   1.14557676898748     -1.78844731079336     -1.05868144192845
  N   1.17056235083264      0.97815101553626      0.93676740730858
  O   1.60935279963640      2.11070460222492      0.74969293448883
  O   0.98707392376450      0.45559263948651      2.03429341091783
