18
Coordinates from ORCA-job run
  C   -0.72244047022958      0.11968021089404     -0.54095182031136
  C   0.80756650425063      0.15123614138931     -0.34002970882747
  F   -0.83885022428153     -0.54455721999589     -1.78609964230690
  H   1.21556498742979      0.70999191174773     -1.18526411537395
  C   -1.48565713736551     -0.71974402509655      0.45981311527818
  H   -1.18318719646634     -1.76382917875313      0.39606862123787
  H   -2.54816144831254     -0.66290626197726      0.21299831632825
  H   -1.32706214088093     -0.36312743354831      1.47776140453691
  N   -1.26458149899184      1.41858080870839     -0.65235712069665
  H   -1.97089909155765      1.64407634023165      0.02762806455394
  H   -0.59756069770381      2.16541879407609     -0.76694280972663
  C   1.46900833489854     -1.20343324710351     -0.21066377123360
  H   1.21110725273778     -1.80463892983659     -1.08225685065746
  H   1.14536520079394     -1.71572885244795      0.69380467323295
  H   2.55454234650014     -1.09223350273183     -0.17169339942403
  N   1.11133374168814      0.99984844693762      0.85546525427258
  O   1.04890083617276      0.47391860420636      1.96532799902414
  O   1.37401070131800      2.18544739329983      0.64739179009321
