16

C	0.0	0.0	0.0
C	-0.40074	-0.251673	-1.457179
Cl	1.789168	0.0	0.0
H	0.105263	-1.151337	-1.813755
H	-0.311931	1.005531	0.284947
C	-0.568728	-1.04893	0.928561
H	-1.660164	-0.978531	0.91953
H	-0.265438	-2.050174	0.610542
H	-0.212911	-0.887981	1.948066
N	0.226993	0.852635	-2.309906
O	0.038676	2.010867	-1.951116
O	0.819498	0.510499	-3.330515
N	-1.777317	-0.281414	-1.769796
H	-2.416846	0.183876	-1.124549
H	-2.124048	-1.216426	-1.901475
Cl	-4.348602	0.0	0.0
