16

C	0.0	0.0	0.0
C	-0.387521	-0.034254	-1.483664
Cl	1.788489	0.0	0.0
H	0.138269	-0.861684	-1.964528
H	-0.315056	0.951656	0.429217
C	-0.574908	-1.174575	0.757022
H	-0.259424	-2.118713	0.304446
H	-1.666407	-1.104868	0.738134
H	-0.238966	-1.159878	1.79545
N	0.231528	1.194845	-2.15167
O	0.845046	1.019614	-3.201963
O	0.018734	2.283439	-1.626175
N	-1.759625	-0.039011	-1.819686
H	-2.081904	-0.956655	-2.084337
H	-2.413721	0.312804	-1.117391
Cl	-4.307551	0.0	0.0
