16

C	0.0	0.0	0.0
C	-0.55399	-0.115231	-1.428989
Cl	1.789715	0.0	0.0
H	-1.633391	-0.270374	-1.31357
H	-0.312048	0.988252	0.340243
C	-0.508187	-1.052878	0.960645
H	-0.169865	-2.044894	0.668973
H	-1.598341	-1.016388	0.945907
H	-0.144897	-0.837296	1.968619
N	-0.006494	-1.363107	-2.071503
O	0.952388	-1.24838	-2.829751
O	-0.541302	-2.429358	-1.762783
N	-0.311335	0.993518	-2.298842
H	0.623849	1.362409	-2.174709
H	-1.000561	1.70751	-2.103438
Cl	-3.719303	0.0	0.0
