16

C	0.0	0.0	0.0
C	-0.588397	-0.290875	-1.389499
Cl	1.787206	0.0	0.0
H	-1.624653	-0.598237	-1.216087
H	-0.310228	1.017658	0.240887
C	-0.471252	-0.956808	1.081363
H	-0.095078	-0.627392	2.052886
H	-0.10451	-1.964141	0.882849
H	-1.563081	-0.956637	1.092941
N	0.123347	-1.480202	-1.98498
O	-0.165773	-2.583983	-1.522169
O	0.968617	-1.280531	-2.852037
N	-0.574658	0.785043	-2.327823
H	-1.37702	1.372036	-2.135151
H	0.281529	1.321463	-2.270389
Cl	-3.682282	0.0	0.0
