16

C	0.0	0.0	0.0
C	-0.560098	-0.11835	-1.409814
Cl	1.793575	0.0	0.0
H	-1.649027	-0.205981	-1.285194
H	-0.30058	0.99961	0.313579
C	-0.501262	-1.029391	0.991227
H	-1.593091	-1.027739	0.95487
H	-0.123184	-2.024347	0.759015
H	-0.170756	-0.750361	1.994438
N	-0.100643	-1.439152	-2.036284
O	0.722859	-1.385733	-2.951784
O	-0.577921	-2.476992	-1.58591
N	-0.222232	1.004737	-2.21277
H	0.749131	0.955826	-2.492151
H	-0.798976	1.022275	-3.042903
Cl	-3.74456	0.0	0.0
