16

C	0.0	0.0	0.0
C	-0.563362	0.035706	-1.413528
Cl	1.789062	0.0	0.0
H	-1.651421	-0.07012	-1.297116
H	-0.302436	0.958458	0.422209
C	-0.501	-1.133046	0.872178
H	-1.592841	-1.130532	0.838926
H	-0.168374	-0.967031	1.899637
H	-0.121736	-2.095602	0.530906
N	-0.09959	-1.206116	-2.182542
O	-0.571876	-2.289381	-1.849223
O	0.721524	-1.048383	-3.087855
N	-0.23172	1.241443	-2.08785
H	-0.805904	1.346658	-2.913236
H	0.740908	1.230956	-2.366958
Cl	-3.747203	0.0	0.0
