13
Coordinates from ORCA-job run
  C   -0.69346130079219      0.46348890000156     -0.32721981608526
  C   0.53955499396468      0.27816047282845      0.13447334040074
  H   -0.93727485667431      1.48438177779791     -0.60978118622927
  C   -1.74039198035327     -0.58807081442042     -0.47440920831764
  H   -1.43535260901911     -1.55105734727911     -0.06946208617993
  H   -2.66027789491389     -0.26397142917048      0.01806929808038
  H   -1.97227362780291     -0.72380265536660     -1.53467310249025
  N   1.53756490833459      1.35562689557843      0.20177691419435
  O   1.12238981941881      2.50667202283703      0.18099147824106
  O   2.71056905128096      0.99728746088422      0.23756657557908
  N   1.05430942465346     -0.99955468238720      0.61934240827012
  O   1.39941288055979     -1.01996255770845      1.79737040964187
  O   1.07423119134339     -1.93719804359536     -0.17404502510524
