13
Coordinates from ORCA-job run
  C   -0.77655834865309      0.44239299953427      0.05499368075436
  C   0.54459067300226      0.29985975630058      0.01009789446008
  H   -1.13204226207001      1.46446544345376      0.15754799077546
  C   -1.77955391851519     -0.65781647479860     -0.02843186964330
  H   -1.33321055221230     -1.62411452204995     -0.25528321686085
  H   -2.52878430166103     -0.41810424599377     -0.78642032383100
  H   -2.30354380807366     -0.74389331502186      0.92797336248346
  N   1.47438251477468      1.42946522052552      0.15599993426365
  O   2.60853874974614      1.14446129490540      0.52738603559770
  O   1.03520452114810      2.54968081853255     -0.06768319337984
  N   1.23050077465304     -0.97571239073917     -0.17628118984686
  O   1.02486685425291     -1.85389334277660      0.65773127193650
  O   1.93760910360813     -1.05679124187213     -1.17663037670936
