13
Coordinates from ORCA-job run
  C   -0.64847041211914     -0.50337982180862     -0.35736587685156
  C   0.59334384528830     -0.06577252741247     -0.17325202220910
  H   -0.75758926347293     -1.30362832950734     -1.08487021824757
  C   -1.86870567860906      0.00792530824775      0.33049681781762
  H   -2.63661285381984      0.24580092969783     -0.40923985028231
  H   -1.67442868180827      0.88621545050618      0.94312942092088
  H   -2.27494026992055     -0.77399450020666      0.97860038843921
  N   0.95659560338563      1.03514166884430      0.71458121298233
  O   1.49269665760993      1.99812459570081      0.17375546379184
  O   0.67606097500204      0.91625420526938      1.90462016630072
  N   1.75674537589551     -0.65851535217398     -0.84923230203666
  O   1.54589739719704     -1.29924411064179     -1.87038620688596
  O   2.84040730537134     -0.48392751651539     -0.30083699373942
