13
Coordinates from ORCA-job run
  C   -0.78620814822509      0.42447550830581      0.06862278490839
  C   0.53801105313133      0.30789958308403      0.04393677629508
  H   -1.16247610741062      1.43118159926646      0.23136681698283
  C   -1.76582287543873     -0.68508747726768     -0.11200587577944
  H   -2.48638102965711     -0.41795403471593     -0.88868626878294
  H   -2.32851861366171     -0.82755904320799      0.81502542621849
  H   -1.29338391978672     -1.63118168097856     -0.36912988991400
  N   1.25085429740402     -0.94005345233192     -0.21357798039176
  O   1.05927344369025     -1.87029344304119      0.56555748805862
  O   1.96409451337826     -0.94720301905797     -1.21287518962388
  N   1.44404018682816      1.44067538905000      0.28431264346540
  O   0.98487639156746      2.56616416629721      0.14260068453723
  O   2.58064080818051      1.14993590459772      0.64385258402596
