13
Coordinates from ORCA-job run
  C   -0.75639593462248      0.46880520158819     -0.10189493595352
  C   0.54022719634044      0.28197752796803      0.12529719453429
  H   -1.08746028292204      1.50407501780479     -0.08783999661240
  C   -1.76204608268657     -0.59975449005496     -0.36639624803688
  H   -1.35624296993565     -1.60326602109051     -0.25392076664284
  H   -2.61517970014742     -0.47755820234478      0.30507750488819
  H   -2.13793000537675     -0.49883968001696     -1.38861569106519
  N   1.48508020867151      1.39029367191927      0.32310006594967
  O   2.66520122338158      1.13207900970682      0.10809516603877
  O   1.01843464431693      2.47437346154062      0.64655383511021
  N   1.18148216750970     -1.02777831405864      0.20290347833908
  O   1.70216549562976     -1.30091711371761      1.28062655503977
  O   1.12266403984098     -1.74449006924426     -0.79298616158914
