13
Coordinates from ORCA-job run
  C   -0.61487009202545     -0.40013292136568     -0.51412608110285
  C   0.60470111770306     -0.13523851662034     -0.05561832611489
  H   -0.66225246568860     -1.13214256265044     -1.31631075519105
  C   -1.88514155712330      0.21054006971784     -0.02770280548652
  H   -2.60468862078593     -0.57614222419833      0.21110596785343
  H   -1.74491983264879      0.84684478062141      0.84397181023766
  H   -2.32332619011860      0.81873511157237     -0.82425611201756
  N   0.88788324197371      0.77436105945680      1.05123573192703
  O   0.54435202153162      1.94642236230332      0.92013484372996
  O   1.42591613052127      0.26681965059772      2.03109495910930
  N   1.82017693045996     -0.73567618220068     -0.62337037715789
  O   2.86458037846735     -0.12523798237590     -0.41801977508400
  O   1.68658893773370     -1.76215264485808     -1.27613908070263
