13
Coordinates from ORCA-job run
  C   -0.74813887387240      0.47417775595775     -0.13443818048060
  C   0.54997881246238      0.27915044324775      0.07676218237795
  H   -1.05676487322754      1.51359412677503     -0.21131258137845
  C   -1.78163293773574     -0.59099624132987     -0.27818143819771
  H   -2.48559198111406     -0.52874907178068      0.55662420899913
  H   -1.35934866441659     -1.59395671535173     -0.28966736995292
  H   -2.35316402549592     -0.42885179964904     -1.19513151147769
  N   1.18355066079546     -1.03397661951982      0.15804599680613
  O   0.79532314741293     -1.79405418397816      1.04152497317625
  O   2.03809042174920     -1.26419322894039     -0.69286137035075
  N   1.50353951578419      1.38260789489899      0.26289644059679
  O   1.17074982321862      2.48660663775162     -0.14708402231121
  O   2.54240897443946      1.09864100191855      0.85082267219309
