13
Coordinates from ORCA-job run
  C   -0.74605899382801      0.47178431368753     -0.15212751818200
  C   0.54741826512137      0.28071631474319      0.08935583826810
  H   -1.05584567359023      1.51005981377781     -0.23897028556547
  C   -1.77339083148328     -0.59648530755021     -0.31565572941236
  H   -1.34818700025939     -1.59829109105776     -0.31385431436097
  H   -2.32389314573941     -0.43952587614035     -1.24626285462649
  H   -2.49658950788228     -0.53359918178400      0.50247779991012
  N   1.18250454427808     -1.03044365190910      0.18811580986247
  O   0.77673358747055     -1.78923763910638      1.06480293532480
  O   2.05598022379098     -1.26068049168376     -0.64333858455624
  N   1.49408300729746      1.38743987055420      0.29181532987812
  O   2.52127197917613      1.10798929202589      0.90199371711736
  O   1.16697354564805      2.48927363444294     -0.12835214365744
