13
Coordinates from ORCA-job run
  C   -0.62463122333817     -0.58087398741220     -0.27394278664714
  C   0.60487182368735     -0.10783056229825     -0.09464067361262
  H   -0.68657037293965     -1.53520341750140     -0.79058471210788
  C   -1.88798754246320      0.07272601170131      0.17345623926935
  H   -2.48466170051827     -0.63624931278969      0.75236078486758
  H   -1.71574959747387      0.96805615336941      0.76765199648391
  H   -2.48057595939082      0.35497394658187     -0.70146482233961
  N   0.91650818844011      1.12707570573372      0.61964168659612
  O   1.61172543119606      0.99829627956550      1.62335974135017
  O   0.44256559853820      2.17015997768419      0.17643792623088
  N   1.80414980664644     -0.78327070935162     -0.61170580457081
  O   2.79635835882530     -0.07602409099306     -0.75610695570007
  O   1.70399718879051     -1.97183599428977     -0.88546261981989
