13
Coordinates from ORCA-job run
  C   -0.71113416779672      0.44402714028982     -0.31925731977434
  C   0.54870069930569      0.28340409655689      0.07440518538962
  H   -0.97187046559355      1.44452675562981     -0.65444423093677
  C   -1.76157535534973     -0.61436725764856     -0.33672386122212
  H   -2.53427492318299     -0.37165699558701      0.39843240592925
  H   -1.37190551439233     -1.60312432948578     -0.10190442441020
  H   -2.24389624063265     -0.64030086066888     -1.31659952164098
  N   1.52011199865204      1.38622991310675      0.11699326738167
  O   2.48750941664524      1.21976605489791      0.85318998146201
  O   1.26866754626226      2.38074049342666     -0.55025563923983
  N   1.11753781687116     -0.98827878929391      0.51186554270818
  O   0.61470714343691     -1.52015804481977      1.49850745757583
  O   2.03942204577466     -1.42180817640393     -0.17320884322233
