13
Coordinates from ORCA-job run
  C   -0.64038275977086     -0.50761181024028     -0.36830435478807
  C   0.59477071077995     -0.05692919959844     -0.17088429453555
  H   -0.73519197562794     -1.29700704580878     -1.10952123523649
  C   -1.86980113513416     -0.02122551482996      0.32106881744214
  H   -1.68456313697463      0.83641966857877      0.96487712938645
  H   -2.28340785307684     -0.82493518798166      0.93694902785478
  H   -2.62898303026462      0.24047361105517     -0.41984340357079
  N   0.93862982424237      1.03469720159955      0.73610869973046
  O   1.44999774380700      2.01946304472872      0.21067189604740
  O   0.66791373530089      0.88703844952466      1.92514886969101
  N   1.76966343229566     -0.62163970407544     -0.85050075117923
  O   1.57186938288659     -1.25823293864868     -1.87682169604870
  O   2.84948506153659     -0.43051057430364     -0.29994870479340
