13
Coordinates from ORCA-job run
  C   -0.77001879129649      0.45380800271918      0.06290858861191
  C   0.54892370632206      0.28975163640995      0.02864903342693
  H   -1.10901559764286      1.47807237743354      0.19514424399323
  C   -1.79007900898687     -0.62542746242310     -0.07132438265163
  H   -2.34728353721451     -0.71743403126076      0.86535612824198
  H   -2.50908577145052     -0.35843717521978     -0.84949103264291
  H   -1.35423214223743     -1.59568464869966     -0.30161738300323
  N   1.49684758096517      1.39698654685279      0.22170920546582
  O   1.07667933558064      2.53245665554181      0.04330162405732
  O   2.62549603295551      1.07847643521874      0.58264057644807
  N   1.21484439930885     -0.99062584272269     -0.19406127800035
  O   1.91899092754895     -1.05453405692036     -1.19776461952966
  O   0.99693286614750     -1.88840843692965      0.61554929558254
