13
Coordinates from ORCA-job run
  C   -0.75456629639180      0.44103160329038      0.19634914766971
  C   0.55232159097012      0.28502236869668      0.00836694136136
  H   -1.06925879605898      1.44306384279002      0.47633456796028
  C   -1.79086705794134     -0.62318456009438      0.06557726844912
  H   -1.36672531897629     -1.60893555737696     -0.11553075620394
  H   -2.40398587989541     -0.65403586276648      0.96939291309817
  H   -2.45622455705263     -0.38165193054640     -0.76823763916816
  N   1.19207601293167     -0.98632030637171     -0.31820401475523
  O   0.84731958787627     -1.54077580823393     -1.35875181544022
  O   2.00658607562781     -1.39662623062956      0.50370338238908
  N   1.51091154861112      1.39586764308137      0.10263590165380
  O   2.57693337855064      1.23389467197677     -0.48300491565657
  O   1.15647971174881      2.39165012618421      0.71936901864259
