13
Coordinates from ORCA-job run
  C   -0.69964464180997      0.43245917280021     -0.36026721229385
  C   0.54256359201332      0.28879625569669      0.09142454928172
  H   -0.95098586845309      1.42234777387919     -0.73211656146146
  C   -1.74191042404642     -0.63331722752632     -0.39904039677143
  H   -1.37222652571863     -1.60043495656604     -0.06337256000872
  H   -2.57887135469992     -0.34685258308297      0.24389193460920
  H   -2.13387255383078     -0.73062159537448     -1.41448366705166
  N   1.50694063707686      1.39755902455885      0.14917149497089
  O   1.27060632918184      2.38170746451372     -0.53853978089668
  O   2.45380864857554      1.24495666133789      0.91447261204323
  N   1.09729179626372     -0.96737715383171      0.58796494779181
  O   0.57418702599513     -1.46092228427301      1.58376541377796
  O   2.03211333945239     -1.42730055213202     -0.06187077399101
