13
Coordinates from ORCA-job run
  C   -0.57852771214363     -0.13535470529701     -0.67347401864942
  C   0.60431510359688     -0.12767394810101     -0.06637034590123
  H   -0.57719723119292     -0.50214336513435     -1.69660103718246
  C   -1.86848258393894      0.31378944946716     -0.07515397429815
  H   -1.75205328055868      0.72003160932968      0.92787524700546
  H   -2.55868800202641     -0.53278350694557     -0.02168765777250
  H   -2.33147496693060      1.06732320233869     -0.71706672933237
  N   0.83083199324736      0.36961262069417      1.28774975890965
  O   0.25445372873371     -0.20890220923730      2.20532826096389
  O   1.56834134094872      1.34730571379120      1.37664994898968
  N   1.83198892145992     -0.63411382899565     -0.69807216252289
  O   1.82755553012527     -0.75180158638067     -1.91605380267901
  O   2.74693715867933     -0.92528944552934      0.06587651246936
