13
Coordinates from ORCA-job run
  C   -0.62561019370912     -0.31135625053686     -0.56006703701145
  C   0.59189155511148     -0.18563172790698     -0.04091726278890
  H   -0.70743347008014     -1.00323793300179     -1.39441887914622
  C   -1.85046141584383      0.40696374934983     -0.10475121926842
  H   -2.33252119658864      0.89111486628527     -0.95734165013029
  H   -1.64573490299827      1.15054111159233      0.66306943473991
  H   -2.56405293411214     -0.31466984202885      0.30316100032273
  N   1.74407825079943     -0.97020507121682     -0.50844327265449
  O   2.67337687560509     -1.08127335976082      0.28512854444792
  O   1.66680882331446     -1.47100438411800     -1.62239967332656
  N   0.93388587914931      0.72709783307335      1.04623954326566
  O   0.35466693968317      0.56958361535428      2.11808075818678
  O   1.76110578966920      1.59207739291508      0.77265971336334
