13
Coordinates from ORCA-job run
  C   -0.75813331301399      0.46083559725945     -0.12575845932690
  C   0.54548805208975      0.28920671398042      0.07120569210145
  H   -1.08657623524351      1.49432702696051     -0.19994351738639
  C   -1.77323601771442     -0.62342588586913     -0.25805039496242
  H   -2.35839871464240     -0.47182462441443     -1.16815440699579
  H   -1.33224159590781     -1.61824346103578     -0.27507074164071
  H   -2.46839571241086     -0.57523382462094      0.58501903045674
  N   1.20355086283855     -1.01215089667856      0.14566182420568
  O   2.05258789077058     -1.22711689434540     -0.71471534731132
  O   0.83918642013723     -1.77869005028649      1.03374969785700
  N   1.48129032156705      1.40988484073240      0.24536081404460
  O   2.53197580929411      1.14509144821402      0.82115407780037
  O   1.12390223223572      2.50734001010392     -0.16145826884231
