13
Coordinates from ORCA-job run
  C   -0.78413558100113      0.41713152427088      0.11821851834818
  C   0.53947538000328      0.29440447998937      0.09227391421779
  H   -1.15613630990090      1.39818510724553      0.40217680791834
  C   -1.76883464345217     -0.65822772791494     -0.19407628112796
  H   -2.49222580763477     -0.74377699850871      0.62021749701468
  H   -1.30111460549860     -1.62622064390967     -0.36335483581896
  H   -2.32700928720759     -0.38925421294363     -1.09542498623341
  N   1.45104492341397      1.41625358124221      0.36146848144824
  O   2.58655138460956      1.30312024523631     -0.08955302263529
  O   0.99695912018419      2.37317370284108      0.97444933554059
  N   1.24638587028326     -0.94732171105050     -0.20858823613903
  O   1.05034481914750     -1.45566182388665     -1.30958856499334
  O   1.95969473705341     -1.38280552261129      0.69078137246018
