13
Coordinates from ORCA-job run
  C   -0.56878523647788     -0.16991380120224     -0.67176721242357
  C   0.61186073561207     -0.08778088746951     -0.06606301436916
  H   -0.54233349996417     -0.52973211991755     -1.69708655816325
  C   -1.88514839504836      0.19451596668425     -0.07360670246275
  H   -1.79294089379348      0.64841341576891      0.91125353124642
  H   -2.50147689449630     -0.70380912941096      0.02383765690465
  H   -2.41553848246706      0.87985595110843     -0.73887709833296
  N   0.80871873859210      0.42025640506007      1.28862947499389
  O   1.51330858904475      1.42121573374950      1.38286239447797
  O   0.23979942303336     -0.17297952593626      2.20159180442801
  N   1.86723781269793     -0.51521138460444     -0.70098523952078
  O   2.78949675947107     -0.78265907851053      0.06282850148141
  O   1.87680134379597     -0.60217154531966     -1.92161753825987
