13
Coordinates from ORCA-job run
  C   -0.74528087666547      0.47394943305277     -0.15469011022564
  C   0.54802012654139      0.28003414505166      0.08451399437554
  H   -1.05020730589835      1.51214455860658     -0.25781522992587
  C   -1.77700713802967     -0.59268366560437     -0.30033896296128
  H   -2.29258135724698     -0.47821081956948     -1.25716606867802
  H   -2.52860157218113     -0.48203512856995      0.48615275639918
  H   -1.36160807484378     -1.59646516616049     -0.23475827189780
  N   1.17630608882360     -1.03290111496279      0.20335565135457
  O   2.02440698458624     -1.29404404812437     -0.64504655122021
  O   0.79056858817063     -1.76248991369318      1.11323940341891
  N   1.50278919334417      1.38381821376280      0.26393875557908
  O   2.54153533270091      1.10297305472080      0.85354043308812
  O   1.17166001069843      2.48491045149002     -0.15492579930658
