13
Coordinates from ORCA-job run
  C   -0.69232381663201      0.40898294911682     -0.39881219706078
  C   0.53143238033426      0.30292629468635      0.10958837564638
  H   -0.94516955815621      1.38210052230514     -0.81165531522706
  C   -1.70960973781694     -0.67965834018047     -0.45763575471138
  H   -1.32944240318411     -1.63572806483297     -0.10278876761311
  H   -2.57053820183683     -0.40641493323250      0.15898130281069
  H   -2.06998973994409     -0.79302261391104     -1.48292226835950
  N   1.08901582550838     -0.92922285016194      0.66058283038881
  O   2.06787709208524     -1.37936221907821      0.07228225305939
  O   0.52371715689031     -1.41483689005434      1.63715889024290
  N   1.47195717328314      1.43170874642337      0.17626881443296
  O   1.25121239990511      2.38827311866830     -0.55413572652998
  O   2.38086142956374      1.32325428025148      0.99308756292065
