12

C	-0.454294	-0.170294	-1.423569
C	0.0	0.0	0.0
F	-1.822589	-0.231732	-1.526374
H	1.091711	0.0	0.0
H	-0.018444	-1.036066	-1.918885
H	-0.358511	0.957192	0.383051
N	-0.044671	1.028199	-2.243667
O	0.501767	0.803384	-3.319982
O	-0.349682	2.130462	-1.79807
C	-0.511311	-1.092702	0.816921
N	-0.940348	-1.970821	1.466588
Br	3.436578	0.0	0.0
