12

C	-0.463516	-0.047927	-1.431719
C	0.0	0.0	0.0
F	-1.829289	0.04011	-1.537167
H	1.094556	0.0	0.0
H	-0.121259	-0.952665	-1.932424
H	-0.313634	-0.934401	0.475688
N	0.096072	1.090742	-2.2471
O	-0.238834	2.223141	-1.915881
O	0.813735	0.784597	-3.196172
C	-0.547369	1.115259	0.76237
N	-1.02204	1.987131	1.387906
Br	3.446608	0.0	0.0
