12

C	0.0	0.0	0.0
C	-0.46763	-0.115566	-1.43258
F	1.386474	0.0	0.0
H	-1.559182	-0.215128	-1.407198
H	0.007232	-0.975908	-1.910089
H	-0.182788	0.804496	-1.947486
N	-0.552301	1.164452	0.59821
H	-0.381305	1.136061	1.599763
H	-1.585608	1.018339	0.467402
C	-0.312787	-1.260545	0.754172
N	-0.437302	-2.243183	1.386036
H	-3.054947	0.0	0.0
