12

C	0.0	0.0	0.0
C	-0.509996	0.025421	-1.414423
F	1.411596	0.0	0.0
H	-0.175556	0.953587	-1.8897
H	-0.111323	-0.824949	-1.973088
H	-1.610496	-0.003578	-1.331496
N	-0.43766	1.129824	0.73387
H	-0.055093	1.969086	0.318167
H	-0.173413	1.063876	1.706867
C	-0.374244	-1.240652	0.715697
N	-0.479228	-2.255679	1.295397
H	-3.332935	0.0	0.0
