12

C	0.0	0.0	0.0
C	-0.423668	-0.017444	-1.457836
F	1.400228	0.0	0.0
H	0.032387	-0.857937	-1.988727
H	-1.518047	-0.080354	-1.459629
H	-0.097333	0.92034	-1.91955
N	-0.542723	1.064474	0.777482
H	-0.437399	1.915216	0.229408
H	-1.570805	0.844854	0.750876
C	-0.351143	-1.291038	0.655324
N	-0.467324	-2.327692	1.193243
H	-3.02719	0.0	0.0
