19

C	-0.64054	-0.043672	-1.384121
C	0.0	0.0	0.0
Br	0.348829	-1.350433	-2.505877
H	1.093242	0.0	0.0
C	-2.081997	-0.546577	-1.356467
H	-2.688272	0.152574	-0.764416
H	-2.131374	-1.532047	-0.898311
H	-2.493578	-0.587865	-2.369826
N	-0.501408	1.236647	-2.068125
H	-0.881838	1.143464	-3.004564
H	-1.073651	1.913044	-1.571205
N	-0.351921	-1.231052	0.736584
H	-0.996737	-1.029593	1.494404
H	0.519153	-1.55524	1.143058
C	-0.392386	1.257023	0.774513
H	0.119517	1.211638	1.738823
H	-0.028862	2.156084	0.272717
H	-1.474015	1.350263	0.961888
F	2.662106	0.0	0.0
