19

C	-0.193167	-0.00808	-1.529462
C	0.0	0.0	0.0
Br	-0.171985	-2.009946	-2.141955
H	1.096109	0.0	0.0
C	-1.520457	0.492945	-2.061729
H	-1.588937	0.339333	-3.141491
H	-2.33759	-0.031181	-1.567465
H	-1.608238	1.563366	-1.852631
N	0.928988	0.601729	-2.131999
H	0.747823	1.550189	-2.426755
H	1.757352	0.506517	-1.51454
N	-0.716082	-1.04462	0.732194
H	-0.47831	-0.922105	1.713744
H	-0.312973	-1.933527	0.456245
C	-0.433765	1.353888	0.549489
H	-1.524741	1.457075	0.574975
H	0.005408	2.168393	-0.029768
H	-0.053166	1.453231	1.57189
F	2.755676	0.0	0.0
