19

C	0.015882	-0.038834	-1.534636
C	0.0	0.0	0.0
Br	-1.829488	-0.425072	-2.320371
H	1.102461	0.0	0.0
C	0.47424	1.283061	-2.130169
H	0.618158	1.185913	-3.210191
H	-0.220768	2.102915	-1.942998
H	1.440904	1.47489	-1.650174
N	0.892076	-1.132922	-1.885638
H	1.115933	-1.081031	-2.873512
H	1.756544	-0.932389	-1.340905
N	-0.487198	-1.219628	0.630982
H	-1.418436	-1.414072	0.267463
H	0.104132	-1.975513	0.303698
C	-0.640593	1.218337	0.62115
H	-1.702587	1.295154	0.351547
H	-0.571052	1.121156	1.706664
H	-0.138387	2.142555	0.329154
F	2.74446	0.0	0.0
