17
Coordinates from ORCA-job run
  C   -0.48378989387595     -0.13646456794366     -0.28834720703693
  C   0.91151085067280     -0.52893717186244      0.18370235217496
  F   -0.42119324927527     -0.01624512519432     -1.69374885530364
  H   0.86862838038378     -0.73218290425301      1.25965120607605
  H   1.15950755276762     -1.47620032383276     -0.30716662346808
  C   -1.49327105425013     -1.23043436367903      0.00437813592683
  H   -1.16019808656605     -2.17581729532547     -0.42946291326403
  H   -1.62082877035096     -1.36442036018659      1.08121129638914
  H   -2.46044602708676     -0.97288386346256     -0.43266066099123
  C   -0.94134305780897      1.20963327053367      0.24046627849437
  H   -0.28746643256867      2.00569186637237     -0.11709220964912
  H   -0.94013958221487      1.21811864598019      1.33345491986539
  H   -1.95424696843937      1.42150769971737     -0.10866555198162
  C   1.99431544105999      0.50144377787941     -0.12121175495808
  H   1.87979328969810      1.40532126933075      0.48021397494929
  H   1.96430327723482      0.78269510189139     -1.17514300447116
  H   2.98386433061989      0.09017434403470      0.09042061724785
