17
Coordinates from ORCA-job run
  C   -0.57788107987569     -0.01234757381704     -0.49031968436849
  C   0.92497578444381     -0.05844825142194     -0.73437157051399
  F   -1.16825590746438     -0.06502091740929     -1.77201504607535
  H   1.17364639150571      0.78132592422947     -1.39200113515996
  H   1.13450554106719     -0.97141964386780     -1.30191947494303
  C   -1.09453763517585     -1.22138017406311      0.26627228424791
  H   -0.76462427675354     -2.14204899691009     -0.22064500037061
  H   -2.18656919400112     -1.20852758009905      0.27169824202753
  H   -0.74551737208651     -1.22560467122274      1.30054379897150
  C   -1.03846194199021      1.28963065779213      0.13724936233581
  H   -0.68720313575378      1.38427630256265      1.16642876882078
  H   -0.66904241420900      2.13996648727171     -0.44069625684523
  H   -2.12996896759183      1.32601566202905      0.14152146427686
  C   1.78370491638526     -0.01285782020896      0.52584260009927
  H   2.84318816512392     -0.05008842595685      0.26291709657987
  H   1.62127682301595      0.90559603335828      1.09384766464290
  H   1.58176430336007     -0.86006701226644      1.18464688627423
