12
Coordinates from ORCA-job run
  C   0.14456888211202     -0.71141342819846     -0.22052945881852
  C   -1.11853837877902      0.15029926537826     -0.29575160763378
  Cl  0.29894912164255     -1.57458473354350     -1.78336044962456
  H   -1.98568290813715     -0.47203332577984     -0.53016708690827
  H   0.00864348508057     -1.48691524092779      0.53569312396703
  H   -1.01352545572688      0.88400955080452     -1.10031533376520
  C   1.39846370327182      0.09302314425397      0.05515049285310
  H   2.27394458797735     -0.55709396497446      0.06958509734278
  H   1.54467822377700      0.84963165175888     -0.71892380676426
  H   1.31919334140943      0.59011509631841      1.02510389441585
  C   -1.35413148577563      0.84653363578947      0.96799411850666
  N   -1.51656311685204      1.38942834912056      1.99552101642918
