12
Coordinates from ORCA-job run
  C   0.17257679950196     -0.72780069048390     -0.26783514664422
  C   -1.10220839196637     -0.18731594903342      0.38079067304044
  Cl  -0.06153161611604     -0.80844941167407     -2.04109039242254
  H   -1.96330390455408     -0.78293207023517      0.06836620484169
  H   0.30109383749339     -1.76145386480837      0.06089519550844
  H   -1.01132496448368     -0.27831629934766      1.46861770838426
  C   1.40366418235849      0.09351772273879      0.05817725578495
  H   1.54582451261228      0.13542763084075      1.14206381640550
  H   1.30022779339404      1.11131282450166     -0.32150123373168
  H   2.29115181858128     -0.35411636995951     -0.39038406350598
  C   -1.34780226524446      1.21482328712873      0.04887967598998
  N   -1.52736780157681      2.34530319033216     -0.20797969365084
