12
Coordinates from ORCA-job run
  C   0.19997499601197     -0.40755277948309     -0.34723013263070
  C   -0.83041875861271      0.49735795714442      0.32740641564672
  Cl  0.23336045983910     -0.04969196323177     -2.10026755396677
  H   -0.58183276730006      1.54352618870891      0.12801287023350
  H   -0.11637887835720     -1.44893313793041     -0.26123094945029
  H   -0.78469737590313      0.34432366522513      1.41072266574070
  C   1.58266181887307     -0.21579026040376      0.24586852176290
  H   1.57381907231764     -0.47523624215998      1.30816431153959
  H   2.30900936266040     -0.85372873493507     -0.25848959142864
  H   1.90552768100562      0.82191676579740      0.13833347968999
  C   -2.19631532172977      0.23586831687560     -0.12056327855463
  N   -3.29271028880493      0.00894022439262     -0.47072675858237
