18

C	-0.41808	0.017407	-1.477456
C	0.0	0.0	0.0
Br	-0.312036	-1.747832	-2.298839
H	1.095117	0.0	0.0
N	-1.889071	0.401681	-1.583791
O	-2.632069	0.052653	-0.665785
O	-2.25985	1.016944	-2.577711
C	0.428695	0.982787	-2.274353
H	0.276005	1.983377	-1.868223
H	0.16323	0.963968	-3.32964
H	1.474975	0.701431	-2.133362
N	-0.430064	-1.166044	0.732486
H	-1.39961	-1.085592	1.005884
H	0.157327	-1.269915	1.548431
N	-0.38479	1.322444	0.522555
H	0.346727	1.637824	1.150345
H	-1.253241	1.246794	1.040651
Br	3.557661	0.0	0.0
