15

C	0.0	0.0	0.0
C	-0.591109	0.04014	-1.394879
Cl	1.782086	0.0	0.0
H	-1.694421	-0.010883	-1.231772
H	-0.314703	-0.943396	0.445261
C	-0.478599	1.178031	0.829181
H	-1.568645	1.158645	0.871265
H	-0.136892	2.118486	0.390201
H	-0.070443	1.102415	1.838134
N	-0.221032	-1.186399	-2.185809
O	-0.006949	-1.054748	-3.386582
O	-0.205327	-2.24605	-1.568745
C	-0.229862	1.236636	-2.141712
N	0.041844	2.231518	-2.703791
Cl	-3.593453	0.0	0.0
