15

C	0.0	0.0	0.0
C	-0.584113	-0.048851	-1.400024
Cl	1.782039	0.0	0.0
H	-1.687393	-0.097521	-1.239922
H	-0.317721	-0.911755	0.503487
C	-0.484082	1.230185	0.747617
H	-0.141207	2.13923	0.249308
H	-1.573073	1.207755	0.779706
H	-0.083534	1.220032	1.761762
N	-0.19881	-1.323627	-2.106986
O	0.086197	-1.262231	-3.298587
O	-0.239902	-2.345656	-1.434923
C	-0.225075	1.099832	-2.216878
N	0.026486	2.049334	-2.860906
Cl	-3.596096	0.0	0.0
