15

C	0.0	0.0	0.0
C	-0.303693	0.033322	-1.523803
Cl	1.784328	0.0	0.0
H	0.316745	-0.745945	-1.968398
H	-0.33909	-0.973651	0.35703
C	-0.535746	1.109252	0.873952
H	-1.625809	1.102274	0.790835
H	-0.254556	0.903278	1.908791
H	-0.134974	2.078067	0.577467
N	0.242342	1.301941	-2.146514
O	1.145077	1.171029	-2.969648
O	-0.269809	2.361558	-1.80505
C	-1.631787	-0.152102	-2.123923
N	-2.350443	-0.374904	-3.03119
Cl	-3.582047	0.0	0.0
