15

C	0.0	0.0	0.0
C	-0.582623	0.168124	-1.390412
Cl	1.782041	0.0	0.0
H	-1.68677	0.095087	-1.244799
H	-0.315413	-0.979615	0.356045
C	-0.484823	1.099076	0.928871
H	-0.099179	0.919635	1.933968
H	-0.124541	2.072868	0.589643
H	-1.575696	1.083502	0.946561
N	-0.193058	-0.97733	-2.288168
O	0.085067	-0.729539	-3.458481
O	-0.224379	-2.093441	-1.782515
C	-0.224354	1.432581	-2.01638
N	0.032074	2.478815	-2.484156
Cl	-3.592244	0.0	0.0
