15

C	0.0	0.0	0.0
C	-0.575186	0.0394	-1.404181
Cl	1.781934	0.0	0.0
H	-1.67789	-0.027642	-1.260103
H	-0.324489	-0.941087	0.441159
C	-0.486535	1.178238	0.822998
H	-0.122465	1.077731	1.84716
H	-0.112056	2.117782	0.410645
H	-1.577417	1.168926	0.823392
N	-0.167649	-1.181688	-2.185834
O	0.200798	-1.036083	-3.348416
O	-0.271942	-2.251984	-1.596177
C	-0.220486	1.24438	-2.139416
N	0.008709	2.245852	-2.708324
Cl	-3.596116	0.0	0.0
