16

C	-0.634859	0.01936	-1.535927
C	0.139339	0.031766	-0.23581
Cl	-0.062773	-1.323013	-2.582544
H	1.223698	0.03018	-0.366847
H	-0.057565	-0.904054	0.293253
N	-2.065894	-0.078367	-1.449639
H	-2.265197	-0.830762	-0.79962
H	-2.411249	0.786328	-1.050328
N	-0.318238	1.323817	-2.273355
O	-1.200062	2.180675	-2.297685
O	0.816555	1.463474	-2.70721
C	-0.198217	1.189468	0.694403
H	-1.242486	1.183563	1.028191
H	0.510388	0.973835	1.518804
H	0.025704	2.162024	0.24301
F	1.845874	-0.173346	1.840905
