15

C	-0.454375	0.063858	-1.451809
C	0.0	0.0	0.0
F	-1.851299	0.255704	-1.481109
H	1.09339	0.0	0.0
H	-0.360934	-0.934146	0.449623
C	0.20684	1.197882	-2.201526
H	-0.02177	2.120696	-1.669385
H	1.288526	1.044722	-2.1995
H	-0.169331	1.248796	-3.225594
C	-0.222187	-1.228506	-2.12509
N	-0.076417	-2.258694	-2.668856
N	-0.446398	1.206035	0.692381
H	-1.334282	1.050765	1.149139
H	0.243422	1.447522	1.390578
Br	3.604387	0.0	0.0
