15

C	-0.547141	-0.01853	-1.420904
C	0.0	0.0	0.0
F	0.020228	-1.093265	-2.100798
H	1.098458	0.0	0.0
H	-0.347361	-0.921465	0.478841
C	-2.055998	-0.183329	-1.465024
H	-2.410866	-0.18219	-2.497452
H	-2.309795	-1.141057	-1.003222
H	-2.524862	0.623581	-0.90374
C	-0.172712	1.220331	-2.134733
N	0.051623	2.225695	-2.697811
N	-0.560238	1.164262	0.707221
H	-0.508613	0.978578	1.70172
H	0.072774	1.942069	0.546518
Br	3.661008	0.0	0.0
