15

C	-0.459184	0.077777	-1.442964
C	0.0	0.0	0.0
F	-1.84244	0.364999	-1.467175
H	1.093522	0.0	0.0
H	-0.318747	0.942854	0.46652
C	0.270884	1.169342	-2.198274
H	-0.090415	1.228864	-3.227428
H	0.090091	2.124919	-1.700341
H	1.344738	0.967159	-2.179304
C	-0.311143	-1.2197	-2.128728
N	-0.217373	-2.211557	-2.749945
N	-0.521646	-1.184278	0.670956
H	0.214192	-1.599071	1.22781
H	-1.291126	-0.947725	1.278201
Br	3.609589	0.0	0.0
