15

C	-0.561506	0.011856	-1.414277
C	0.0	0.0	0.0
F	0.018324	-1.03248	-2.129751
H	1.098477	0.0	0.0
H	-0.342499	-0.933358	0.458374
C	-2.069217	-0.183917	-1.446426
H	-2.432032	-0.164278	-2.477326
H	-2.301268	-1.157078	-1.007248
H	-2.54944	0.600453	-0.861677
C	-0.216418	1.273252	-2.102779
N	0.028752	2.274858	-2.661997
N	-0.565436	1.141666	0.738562
H	0.054466	1.929932	0.585567
H	-0.499858	0.939069	1.728742
Br	3.66619	0.0	0.0
