15

C	-0.430559	-0.02411	-1.454137
C	0.0	0.0	0.0
F	-0.143859	1.23021	-2.011411
H	1.10096	0.0	0.0
H	-0.341392	-0.929016	0.468492
C	0.334135	-1.067349	-2.245758
H	0.089171	-2.069785	-1.887246
H	1.402301	-0.888717	-2.098488
H	0.080011	-0.993765	-3.305053
C	-1.892471	-0.209706	-1.58335
N	-3.040513	-0.417585	-1.714621
N	-0.618107	1.137845	0.682462
H	-0.163332	1.972854	0.330239
H	-0.367751	1.080093	1.663204
Br	3.679368	0.0	0.0
