11

C	-0.469909	0.009307	-1.421713
C	0.0	0.0	0.0
F	-1.861307	0.144087	-1.493069
H	1.092179	0.0	0.0
H	-0.195485	-0.917241	-1.922632
H	-0.020685	0.86127	-1.937472
H	-0.376802	0.850055	0.565118
N	-0.480173	-1.215039	0.715078
O	-0.841415	-1.076626	1.881801
O	-0.46119	-2.284147	0.109793
Cl	3.364125	0.0	0.0
