11

C	-0.475345	0.01885	-1.419532
C	0.0	0.0	0.0
F	-1.86796	0.147314	-1.482096
H	1.092159	0.0	0.0
H	-0.20054	-0.902423	-1.929794
H	-0.033638	0.877057	-1.930548
H	-0.376526	0.844351	0.574017
N	-0.469035	-1.221991	0.708403
O	-0.446249	-2.287618	0.094163
O	-0.827385	-1.095125	1.879101
Cl	3.355012	0.0	0.0
