15

C	-0.515542	0.005204	-1.441753
C	0.0	0.0	0.0
Cl	-0.028751	-1.497466	-2.300109
H	1.095152	0.0	0.0
H	-0.014283	0.805522	-1.997951
N	-1.957974	0.086497	-1.423254
H	-2.165374	0.863511	-0.800169
H	-2.311011	0.288744	-2.350515
N	-0.50016	-1.112213	0.782901
H	0.176661	-1.861954	0.737539
H	-1.370166	-1.438881	0.377491
N	-0.503175	1.259296	0.601279
H	0.232499	1.954327	0.510154
H	-0.588257	1.053766	1.590828
Cl	3.512594	0.0	0.0
