15

C	-0.610139	0.005496	-1.395196
C	0.0	0.0	0.0
Cl	0.268194	1.128423	-2.459956
H	1.097796	0.0	0.0
H	-1.620898	0.427461	-1.305183
N	-0.587328	-1.323405	-1.990983
H	-1.328724	-1.857146	-1.549614
H	-0.79002	-1.254553	-2.981404
N	-0.510449	-1.224307	0.664722
H	0.018439	-1.998609	0.26998
H	-0.204318	-1.16022	1.631985
N	-0.442914	1.191157	0.696721
H	-1.330276	0.999698	1.152242
H	0.242769	1.450839	1.395125
Cl	3.591942	0.0	0.0
