15

C	-0.274581	0.031877	-1.499134
C	0.0	0.0	0.0
Cl	-2.044972	0.107486	-1.884737
H	1.108475	0.0	0.0
H	0.03751	-0.931087	-1.919429
N	0.382978	1.180947	-2.071839
H	1.361129	1.138396	-1.781155
H	0.347667	1.133803	-3.084274
N	-0.465344	-1.175446	0.698738
H	-1.446079	-1.326347	0.484236
H	0.077993	-1.981764	0.412715
N	-0.587922	1.16957	0.63316
H	-0.355951	1.97699	0.063767
H	-0.121199	1.279278	1.52686
Cl	3.50707	0.0	0.0
