15

C	-0.432981	-0.037459	-1.4528
C	0.0	0.0	0.0
Cl	-2.333715	-0.354253	-1.502188
H	1.099634	0.0	0.0
H	-0.065846	-0.92588	-1.964857
N	-0.075782	1.133083	-2.103889
H	-0.417202	1.207927	-3.049283
H	-0.298913	1.933717	-1.524912
N	-0.502886	-1.156335	0.752464
H	-0.585419	-1.960755	0.14097
H	0.208933	-1.3901	1.436281
N	-0.444774	1.255722	0.588224
H	0.222076	1.538004	1.293695
H	-1.338492	1.083415	1.032742
Cl	3.516919	0.0	0.0
