15

C	-0.53301	0.006173	-1.431265
C	0.0	0.0	0.0
Cl	0.07895	-1.498067	-2.31546
H	1.098265	0.0	0.0
H	-0.092645	0.828313	-1.994911
N	-1.95226	0.085598	-1.413275
H	-2.286807	-0.656902	-0.807217
H	-2.346254	-0.011866	-2.339073
N	-0.594459	-1.151306	0.693173
H	-0.027488	-1.967496	0.487894
H	-0.487095	-0.949496	1.679894
N	-0.415563	1.208743	0.700097
H	0.305019	1.911214	0.586627
H	-1.287901	1.548091	0.311109
Cl	3.534506	0.0	0.0
