15

C	-0.317789	0.014603	-1.494463
C	0.0	0.0	0.0
Cl	-2.08853	0.235034	-1.824155
H	1.1067	0.0	0.0
H	-0.102705	-0.97214	-1.924712
N	0.405712	1.106827	-2.094466
H	1.38372	1.020084	-1.812571
H	0.351573	1.052101	-3.105817
N	-0.569351	-1.188711	0.626657
H	-0.335628	-1.106079	1.610675
H	-0.061799	-1.998453	0.282463
N	-0.466613	1.150912	0.738504
H	-1.461494	1.256993	0.561067
H	0.003066	1.972712	0.376086
Cl	3.500728	0.0	0.0
