15

C	-0.523617	-0.003644	-1.439023
C	0.0	0.0	0.0
Cl	-0.001017	-1.484885	-2.3102
H	1.098436	0.0	0.0
H	-0.047217	0.812546	-1.994413
N	-1.968511	0.040965	-1.416915
H	-2.196027	0.802441	-0.782956
H	-2.330518	0.246881	-2.34001
N	-0.486394	-1.114185	0.787892
H	-1.365835	-1.43822	0.396287
H	0.1904	-1.865438	0.724363
N	-0.513183	1.250986	0.604634
H	-0.51366	1.073665	1.602817
H	0.178082	1.977699	0.439758
Cl	3.541494	0.0	0.0
