15

C	-0.400795	-0.06911	-1.478756
C	0.0	0.0	0.0
Cl	-0.173857	1.597302	-2.277097
H	1.104528	0.0	0.0
H	-1.473548	-0.247616	-1.579921
N	0.350868	-1.091	-2.102337
H	1.345647	-0.935163	-1.951332
H	0.156285	-1.165783	-3.091944
N	-0.577412	-1.202735	0.607991
H	-0.243815	-1.210762	1.566351
H	-0.169644	-2.004767	0.139733
N	-0.474977	1.129039	0.762452
H	-1.45777	1.28136	0.56911
H	0.041474	1.954103	0.491813
Cl	3.557151	0.0	0.0
