15

C	-0.558529	0.011443	-1.426409
C	0.0	0.0	0.0
Cl	-0.211931	1.607971	-2.240229
H	1.093953	0.0	0.0
H	-1.658579	0.019823	-1.358009
N	-0.02967	-1.055757	-2.202014
H	0.238961	-1.803069	-1.572176
H	-0.687939	-1.388408	-2.892048
N	-0.418257	-1.280563	0.578814
H	-1.362046	-1.17198	0.941641
H	0.181928	-1.443837	1.380359
N	-0.429899	1.138057	0.806533
H	-1.322815	1.488073	0.476047
H	0.245348	1.884097	0.691245
Cl	3.567955	0.0	0.0
