16

C	-0.56167	-0.004291	-1.401898
C	0.0	0.0	0.0
Br	0.300488	1.497363	-2.428668
H	1.089285	0.0	0.0
H	-0.297883	0.964168	0.431066
N	-0.166923	-1.240814	-2.208267
O	0.763377	-1.918545	-1.800274
O	-0.826841	-1.453781	-3.223962
N	-1.971883	0.044992	-1.441092
H	-2.299744	0.857656	-0.935678
H	-2.305414	0.063898	-2.396449
C	-0.530034	-1.143478	0.863316
H	-0.19441	-2.105481	0.475941
H	-0.11623	-1.037623	1.868768
H	-1.620305	-1.146828	0.926178
Br	3.686001	0.0	0.0
