16

C	-0.286874	-0.11957	-1.485423
C	0.0	0.0	0.0
Br	-2.198506	-0.477796	-1.863479
H	1.097664	0.0	0.0
H	-0.388443	0.939241	0.393342
N	-0.02187	1.265243	-2.119719
O	0.763936	1.321312	-3.055045
O	-0.613187	2.21643	-1.620468
N	0.486041	-1.075399	-2.204163
H	1.470175	-0.894507	-1.990542
H	0.254111	-1.999968	-1.859002
C	-0.463841	-1.188966	0.828494
H	-0.087895	-2.129666	0.41818
H	-0.051374	-1.097406	1.835972
H	-1.552427	-1.248203	0.898082
Br	3.549917	0.0	0.0
