16

C	0.0	0.0	0.0
C	-0.535233	0.260371	-1.405549
Br	1.95043	0.0	0.0
H	-1.620805	0.387287	-1.261931
H	-0.241761	0.864216	0.621189
N	-0.521073	-1.253085	0.473331
H	-0.244066	-1.374927	1.441442
H	-1.543882	-1.152427	0.456215
C	-0.249415	-0.831833	-2.409017
H	0.817949	-0.912661	-2.615505
H	-0.775366	-0.632342	-3.343038
H	-0.607729	-1.770909	-1.987139
N	-0.049798	1.596135	-1.882628
O	-0.101235	2.531658	-1.086259
O	0.334099	1.698084	-3.046802
Cl	-3.571055	0.0	0.0
