16

C	0.0	0.0	0.0
C	-0.336274	0.35019	-1.483383
Br	2.021428	0.0	0.0
H	0.542156	0.127692	-2.090473
H	-0.201674	0.884029	0.607178
N	-0.499672	-1.206216	0.530397
H	-0.587883	-1.10181	1.533634
H	-1.443691	-1.341763	0.17062
C	-0.68979	1.820892	-1.597024
H	-1.634176	2.004976	-1.080858
H	0.114351	2.403336	-1.135643
H	-0.783567	2.123787	-2.638342
N	-1.362529	-0.508595	-2.195791
O	-2.106924	0.052296	-2.989184
O	-1.251546	-1.724109	-2.065935
Cl	-3.480946	0.0	0.0
