16

C	0.0	0.0	0.0
C	-0.531635	0.24699	-1.40377
Br	2.01378	0.0	0.0
H	-1.610834	0.404342	-1.219383
H	-0.277687	0.838402	0.633615
N	-0.49718	-1.212878	0.507826
H	0.035007	-2.027444	0.24941
H	-0.717412	-1.186426	1.488817
C	-0.316613	-0.876426	-2.385717
H	0.743371	-1.094203	-2.529795
H	-0.838221	-1.753555	-2.001289
H	-0.752325	-0.618658	-3.349988
N	0.007449	1.548893	-1.909061
O	-0.082676	2.514018	-1.151544
O	0.490662	1.595906	-3.040891
Cl	-3.64959	0.0	0.0
