16

C	0.0	0.0	0.0
C	-0.525003	0.269098	-1.407718
Br	1.949854	0.0	0.0
H	-1.610076	0.395509	-1.26669
H	-0.25263	0.857624	0.625999
N	-0.515386	-1.262372	0.45516
H	-0.291239	-1.367558	1.438745
H	-1.536971	-1.168692	0.390499
C	-0.231117	-0.811816	-2.418543
H	0.83759	-0.887601	-2.621517
H	-0.585293	-1.75748	-2.008231
H	-0.752245	-0.607038	-3.353353
N	-0.035655	1.610018	-1.868639
O	0.382454	1.719101	-3.020944
O	-0.116142	2.541893	-1.070391
Cl	-3.562426	0.0	0.0
