16

C	0.0	0.0	0.0
C	-0.508319	-0.110102	-1.44818
Br	1.956636	0.0	0.0
H	-1.582171	0.11223	-1.360067
H	-0.280829	0.985158	0.369235
N	-0.503114	-0.985051	0.904307
H	-1.51756	-0.836615	0.942556
H	-0.328145	-1.916829	0.547592
C	-0.292398	-1.4437	-2.120463
H	-0.659179	-1.409991	-3.146111
H	0.762353	-1.724655	-2.138995
H	-0.871477	-2.199311	-1.587162
N	0.068747	1.013668	-2.252994
O	-0.07995	2.14656	-1.797057
O	0.647937	0.758413	-3.309568
Cl	-3.540869	0.0	0.0
