16

C	0.0	0.0	0.0
C	-0.320082	0.341811	-1.469438
Br	2.031934	0.0	0.0
H	0.297363	1.191428	-1.754731
H	-0.21857	0.900198	0.578463
N	-0.581369	-1.112519	0.622968
H	-1.47042	-0.86318	1.03725
H	-0.709833	-1.872768	-0.029823
C	-1.783709	0.629616	-1.742583
H	-2.063178	1.577132	-1.282325
H	-1.938887	0.717346	-2.821563
H	-2.472069	-0.109856	-1.341898
N	0.130573	-0.748258	-2.391011
O	-0.128978	-1.912615	-2.084527
O	0.686865	-0.407266	-3.430797
Cl	-4.523142	0.0	0.0
