16

C	0.0	0.0	0.0
C	-0.320397	0.082267	-1.512697
Br	1.983827	0.0	0.0
H	0.203401	0.946605	-1.923461
H	-0.267694	0.970323	0.421917
N	-0.578323	-1.024152	0.786551
H	-0.572767	-1.900494	0.281674
H	-1.54285	-0.771888	0.996959
C	-1.794594	0.131004	-1.845976
H	-2.323833	-0.760302	-1.519956
H	-2.284858	0.960377	-1.338415
H	-1.915371	0.257749	-2.925974
N	0.274392	-1.075843	-2.255565
O	0.908903	-0.831288	-3.280489
O	0.048896	-2.208353	-1.825032
Cl	-4.453996	0.0	0.0
