15

C	-0.514204	-0.026921	-1.437152
C	0.0	0.0	0.0
Cl	-0.405904	1.603582	-2.199924
H	1.090931	0.0	0.0
H	-1.573684	-0.291841	-1.458342
C	0.195963	-0.961514	-2.315307
N	0.690937	-1.669214	-3.111735
N	-0.411863	-1.22413	0.642199
O	-0.784364	-2.174254	-0.082951
O	-0.243869	-1.32943	1.869615
C	-0.379487	1.219073	0.811593
H	-0.128655	1.015171	1.851078
H	0.222593	2.065563	0.479488
H	-1.442037	1.472132	0.73241
H	2.472837	0.0	0.0
