15

C	-0.509927	-0.015356	-1.439507
C	0.0	0.0	0.0
Cl	-0.409688	1.620722	-2.18655
H	1.090933	0.0	0.0
H	-1.566771	-0.285441	-1.467296
C	0.205315	-0.944648	-2.317956
N	0.701572	-1.653544	-3.111888
N	-0.424506	-1.22626	0.634373
O	-0.820502	-2.163501	-0.095077
O	-0.259081	-1.340352	1.860017
C	-0.382637	1.214801	0.817976
H	-1.442959	1.472661	0.732731
H	0.225705	2.059497	0.496613
H	-0.14146	1.003888	1.85709
H	2.479053	0.0	0.0
