12
Coordinates from ORCA-job run
  C   -0.67705684129830      0.16701890208811      0.23946200234969
  C   0.61997707991520     -0.42956029321037     -0.26294105173035
  Br  -0.66396195020289      2.12385574578771     -0.22553043337616
  H   0.75014365710540     -0.30096488036519     -1.33621800005826
  H   -0.69426437401767      0.16428567838764      1.32688795559641
  H   0.64342772667432     -1.48754214355639      0.00771032135456
  N   -1.77566634033854     -0.55270345836114     -0.28145482523860
  H   -1.84027717795940     -0.47386011088983     -1.28848641137965
  H   -2.64988013881124     -0.25092168263150      0.12678928733254
  N   1.79906085203318      0.20123990798368      0.39703824000997
  O   2.72938249377965      0.55186989685547     -0.32153720456687
  O   1.75711501312029      0.28828243791181      1.62128011970671
