14

C	0.0	0.0	0.0
C	-0.273222	0.012905	-1.527871
Br	2.026973	0.0	0.0
H	0.564685	0.505533	-2.015944
H	-0.267147	0.968082	0.414669
N	-0.620865	-1.007133	0.651879
H	-0.660253	-1.944511	0.285727
H	-0.966538	-0.850168	1.599906
N	-1.456426	0.854888	-1.972393
O	-2.191207	0.404287	-2.834477
O	-1.446123	1.992967	-1.521722
C	-0.343265	-1.343393	-2.065491
N	-0.372099	-2.438073	-2.494245
Br	-3.886173	0.0	0.0
