14

C	0.0	0.0	0.0
C	-0.535971	0.275789	-1.413355
Br	1.947769	0.0	0.0
H	-1.63824	0.229873	-1.316501
H	-0.272259	0.877523	0.598022
N	-0.485246	-1.262017	0.463468
H	-0.271323	-1.353909	1.450214
H	-1.50625	-1.234739	0.366794
N	-0.128819	-0.798834	-2.381941
O	-0.822058	-1.809467	-2.391276
O	0.862485	-0.595257	-3.080956
C	-0.116002	1.575364	-1.915066
N	0.184748	2.645737	-2.293363
Br	-3.638441	0.0	0.0
