14

C	0.0	0.0	0.0
C	-0.442148	-0.057223	-1.502948
Br	1.987486	0.0	0.0
H	0.090125	0.725856	-1.976372
H	-0.259715	0.967377	0.405413
N	-0.30734	-1.052871	0.895647
H	0.137667	-0.939666	1.79313
H	-0.082186	-1.989455	0.538444
N	-2.07163	0.312589	-2.201683
O	-1.920965	1.502137	-2.532814
O	-2.678616	-0.451382	-2.620502
C	-0.17105	-1.252279	-2.242804
N	0.052366	-2.178914	-3.014347
Br	-3.018771	0.0	0.0
