14

C	0.0	0.0	0.0
C	-0.543153	-0.144753	-1.428061
Br	1.945689	0.0	0.0
H	-1.643837	-0.176576	-1.315635
H	-0.277489	1.010635	0.321128
N	-0.483831	-1.073838	0.811779
H	-0.266943	-0.871295	1.780746
H	-1.505336	-1.078001	0.71761
N	-0.121892	-1.44368	-2.055975
O	0.85853	-1.430669	-2.799957
O	-0.791645	-2.427216	-1.763535
C	-0.145371	0.965498	-2.280859
N	0.14818	1.889782	-2.943034
Br	-3.63995	0.0	0.0
