15

C	0.0	0.0	0.0
C	-0.647266	0.070067	-1.360086
F	1.386145	0.0	0.0
H	-1.781943	0.081516	-1.045832
H	-0.401974	-0.796176	-1.971557
C	-0.446771	1.074257	0.974986
H	-0.070443	2.038751	0.641419
H	-1.542364	1.067596	0.985731
H	-0.049151	0.838045	1.964738
C	-0.375562	-1.33288	0.539669
N	-0.531597	-2.406133	0.989991
N	-0.29235	1.243774	-2.148413
O	-0.421294	2.365331	-1.645105
O	0.074578	1.059444	-3.318259
H	-2.985214	0.0	0.0
