15

C	0.0	0.0	0.0
C	-0.604549	-0.005063	-1.374877
F	1.389092	0.0	0.0
H	-0.428904	0.93895	-1.88753
H	-1.724342	-0.136703	-1.144831
C	-0.481762	1.247458	0.716602
H	-0.087872	1.262532	1.734816
H	-0.127675	2.129134	0.17504
H	-1.580267	1.20189	0.722561
C	-0.373767	-1.189487	0.802198
N	-0.512694	-2.084732	1.549052
N	-0.083834	-1.059754	-2.248818
O	0.054365	-2.19204	-1.77974
O	0.146165	-0.761107	-3.426894
H	-3.019055	0.0	0.0
