15

C	0.0	0.0	0.0
C	-0.588935	-0.023768	-1.383387
F	1.389406	0.0	0.0
H	-0.410162	0.914826	-1.90301
H	-1.700492	-0.180469	-1.195462
C	-0.48596	1.259265	0.691227
H	-0.094647	1.293973	1.710661
H	-1.58469	1.221625	0.69302
H	-0.125224	2.136115	0.147712
C	-0.377575	-1.193947	0.802418
N	-0.556745	-2.090569	1.53818
N	-0.01535	-1.078132	-2.235244
O	0.044884	-2.219772	-1.781401
O	0.345771	-0.763852	-3.377988
H	-3.053169	0.0	0.0
