15

C	0.0	0.0	0.0
C	-0.435801	0.091765	-1.466861
F	1.385688	0.0	0.0
H	-1.53097	-0.022052	-1.461117
H	0.120836	-0.624761	-2.062448
C	-0.373251	1.252278	0.77889
H	-0.027177	1.142271	1.810369
H	0.174702	2.095409	0.331134
H	-1.453919	1.384132	0.73167
C	-0.494282	-1.236123	0.631304
N	-0.426342	-2.240874	1.228139
N	-0.084043	1.425147	-2.028837
O	1.083923	1.611042	-2.389805
O	-0.985985	2.260791	-2.124129
H	-2.718073	0.0	0.0
