13
Coordinates from ORCA-job run
  C   -0.65446705483100      0.08914517437481      0.01632454200766
  C   0.88146441883532     -0.01786120175663     -0.20550578840714
  Br  -0.95040675912534      0.99196352594999      1.78333272415044
  H   1.00543546325958     -0.44521623427013     -1.20946650843990
  N   -1.22289506862314     -1.20251917413708     -0.08855287658563
  H   -0.90827794464458     -1.81210560560956      0.65894314573759
  H   -2.23503775903481     -1.17024587170743     -0.09471104714936
  C   -1.22047532247781      0.97792287679667     -0.99673506084370
  N   -1.67119146043102      1.67145235596584     -1.83191715798117
  C   1.45837625492561     -0.95215133993204      0.76400889699445
  N   1.88029210017668     -1.73989244128825      1.52591503987601
  C   1.54688380446221      1.28431026134676     -0.16011607051877
  N   2.09229932750829      2.32419767426706     -0.16251983884050
