13
Coordinates from ORCA-job run
  C   -0.64160501418833      0.11350025901018      0.09293962981291
  C   0.88838065347209     -0.07879936630986     -0.10347952180552
  Br  -0.95763135028667      1.17916038462202      1.69140746125580
  H   1.01209339532666     -0.70180040462362     -1.00130294953890
  N   -1.22914456204944     -1.18808297555938      0.28711027701621
  H   -1.23401274693935     -1.70383874197758     -0.58818835126037
  H   -2.18322033740093     -1.10541992859145      0.61804058414578
  C   -1.17325115175888      0.86295663973355     -1.05550575047519
  N   -1.62211659100472      1.38022956537016     -2.01246766649142
  C   1.47146841894688     -0.79456592523349      1.03371991268883
  N   1.97606650450531     -1.36913624476445      1.92438090927992
  C   1.57242325148652      1.19471515507540     -0.33921332919425
  N   2.12054952989087      2.21208158324853     -0.54744120543379
