13
Coordinates from ORCA-job run
  C   -0.69042771870102      0.16477499624588     -0.11897138778634
  C   0.82018896232545      0.51886814982037     -0.00509015022288
  Br  -1.66833882311815      1.72773590112239      0.71462035121125
  H   0.97286839924733      1.52191065265704     -0.41771856011912
  N   -0.94765173117193     -1.08242320893292      0.47511631269149
  H   -1.88766785648966     -1.41554292213871      0.30438974775813
  H   -0.74357382533141     -1.09154164264348      1.46807555940656
  C   -1.08594129106370      0.16202092047155     -1.52559842634643
  N   -1.39548940603228      0.15277871460375     -2.65958827125950
  C   1.61699609902123     -0.44611321592505     -0.77117686402562
  N   2.25956442630463     -1.19670173314611     -1.40573483066554
  C   1.22511891900765      0.51136237369780      1.40338304521540
  N   1.52435384600185      0.47087101416747      2.53829347414258
