13
Coordinates from ORCA-job run
  C   -0.64463139859827      0.09201658974365      0.10076979622418
  C   0.88868558020350     -0.05195419477190     -0.10865738524544
  Br  -0.98157046135093      1.05759358415305      1.75782473259377
  H   1.02464968822783     -0.62064263560147     -1.04008304595893
  N   -1.20021820773382     -1.23220708867600      0.22210828425246
  H   -2.15753784504439     -1.19074507629163      0.55203578981866
  H   -1.18923794836790     -1.69988415874302     -0.67991370904720
  C   -1.19761882167455      0.89307866562744     -1.00183393124414
  N   -1.65994219399701      1.45604860694643     -1.92593769481450
  C   1.49327804499471     -0.81578742108570      0.98523872981291
  N   2.01846847528427     -1.42639383149298      1.83925284417629
  C   1.54119674926835      1.24884062847263     -0.27387321369179
  N   2.06447833878821      2.28903633171950     -0.42593119687629
