18

C	-0.319635	-0.097536	-1.497138
C	0.0	0.0	0.0
Cl	0.139554	1.554943	-2.238819
H	1.09445	0.0	0.0
C	0.627818	-1.095548	-2.141735
H	1.625511	-0.889912	-1.735313
H	0.617131	-0.999207	-3.230257
H	0.314889	-2.109056	-1.876038
N	-1.69316	-0.387157	-1.759247
H	-2.276827	0.332734	-1.346048
H	-1.858973	-0.392047	-2.759519
C	-0.384289	-1.28376	0.750152
H	-1.428094	-1.572449	0.604602
H	0.270772	-2.090112	0.417301
H	-0.194421	-1.138007	1.816065
C	-0.635514	1.146269	0.616272
N	-1.208738	2.039635	1.124306
F	2.615056	0.0	0.0
