18

C	-0.321096	-0.091947	-1.49678
C	0.0	0.0	0.0
Cl	0.164334	1.550591	-2.235745
H	1.094484	0.0	0.0
C	0.608503	-1.103893	-2.14185
H	1.607801	-0.913078	-1.733988
H	0.279556	-2.110906	-1.877435
H	0.60091	-1.006603	-3.23077
N	-1.700523	-0.357027	-1.757878
H	-1.872895	-0.352303	-2.757069
H	-2.268608	0.370894	-1.337283
C	-0.383574	-1.286877	0.744052
H	-0.202487	-1.144061	1.811704
H	-1.4239	-1.579072	0.59037
H	0.277401	-2.087783	0.414414
C	-0.63695	1.14343	0.619233
N	-1.211434	2.032512	1.133403
F	2.611927	0.0	0.0
