19
Coordinates from ORCA-job run
  C   0.64567801924593     -0.39739019328680     -0.28876084696670
  C   -0.66678597380080     -0.44056429047367      0.51120988623183
  H   0.73580441195068     -1.41002256262191     -0.70563246541493
  H   -0.58759598417096     -1.23353467038616      1.25831764800346
  C   1.84336195665317     -0.15638548165502      0.62938269494892
  H   1.84717484956081      0.86776331062522      1.01174742351957
  H   2.77510723789645     -0.30856506370426      0.07940306984205
  H   1.83819841617201     -0.83170044051933      1.48846002423429
  C   0.63813599988142      0.59334897762455     -1.45074282580465
  H   1.59572730245305      0.54521613290705     -1.97551311837353
  H   -0.14624152321758      0.37269568085200     -2.17701660249038
  H   0.49647909971015      1.61621996460572     -1.09709541822629
  C   -1.92203822250385     -0.61013959499289     -0.32278108462780
  H   -2.79604334840712     -0.73620080228634      0.32014359370172
  H   -1.82469733547157     -1.50133642282293     -0.94753180421651
  H   -2.08913475613570      0.25492480996990     -0.96185818422429
  N   -0.77842428676007      0.80812884002260      1.33693995470739
  O   -1.15805813017575      1.83443859266714      0.77316392452322
  O   -0.44464773288026      0.73310321347513      2.51916413063260
