19
Coordinates from ORCA-job run
  C   0.53498956932769      0.35949160378562     -0.28833570597095
  C   -0.64034937670849     -0.34731179934050      0.39064028652139
  H   0.20200583143524      1.37769303404892     -0.52311389625771
  H   -0.34699800278887     -1.35809933741374      0.68666604160029
  C   0.90270405278305     -0.35888896232558     -1.58530501614886
  H   0.09605638979721     -0.33001324415373     -2.31981160744461
  H   1.77751826824959      0.11198666180533     -2.04001427470976
  H   1.15389187508506     -1.40666116772191     -1.39089673634668
  C   1.74076174494491      0.44013469715464      0.64622031245747
  H   2.05589446889063     -0.55895936369742      0.96279007183051
  H   2.58270005408622      0.91405308480324      0.13590095612247
  H   1.52688996345017      1.02646523799449      1.54223270183967
  C   -1.92885790838324     -0.36211143203421     -0.41419627717741
  H   -2.75385437586810     -0.74720791868729      0.18962203227031
  H   -2.18260242370065      0.64561206761510     -0.74616891577838
  H   -1.82204787265114     -1.00997679009141     -1.28476186249511
  N   -0.90674130194695      0.35324587033917      1.68886621106777
  O   -0.67661449723222     -0.26012944637355      2.72991970736207
  O   -1.31634645877012      1.51067720429285      1.61974597125753
