19
Coordinates from ORCA-job run
  C   0.64825666909280     -0.39959692000882     -0.27984822723758
  C   -0.67833154115369     -0.44009330058655      0.49621645045965
  H   0.74037962280904     -1.41049896075643     -0.70054058706583
  H   -0.61747354676768     -1.23859178023758      1.23914241712400
  C   1.83063326419745     -0.17023799364270      0.66082328459691
  H   1.80619766028989     -0.84967672379818      1.51630654596117
  H   1.83367499622347      0.85197184873877      1.04839268356454
  H   2.77115614284653     -0.32516485305080      0.12678755319062
  C   0.66716918811053      0.59734535137315     -1.43635215696023
  H   -0.10523812922066      0.38533575775175     -2.17786443037462
  H   0.52507589310246      1.61908670148437     -1.07963111904013
  H   1.63373951364835      0.54653107634090     -1.94414173625837
  C   -1.91977488760835     -0.59563847572172     -0.36083548411042
  H   -2.07070061673668      0.27557220212120     -0.99558646877818
  H   -2.80556022745699     -0.72161254613349      0.26578936242736
  H   -1.81694021302830     -1.48233206770520     -0.99108334638264
  N   -0.79707081131804      0.80355544931447      1.32901554677473
  O   -0.48667528329467      0.71743634165539      2.51685726402930
  O   -1.15851769373545      1.83660889286148      0.76555244807970
