19
Coordinates from ORCA-job run
  C   0.64885143730407     -0.39769258649985     -0.27969714857804
  C   -0.67688150295295     -0.43946970564236      0.49791422534511
  H   0.74056401036794     -1.40852460664020     -0.70066285827113
  H   -0.61299282707501     -1.23538373287778      1.24340470282209
  C   1.83264844562213     -0.16818159897976      0.65894978371500
  H   2.77227602048963     -0.31825114097895      0.12193658111162
  H   1.83393741507815      0.85220439009507      1.05113840392623
  H   1.81225172934314     -0.85153862744034      1.51142797091852
  C   0.66471921373108      0.59959278820694     -1.43599311625599
  H   0.52026859920420      1.62103444406333     -1.07927795594084
  H   1.63104393011788      0.55132685220401     -1.94445403958494
  H   -0.10766605887537      0.38573500838901     -2.17698207415358
  C   -1.91849431380589     -0.60268178031130     -0.35755264135231
  H   -2.80378041124410     -0.72481326526349      0.27054423158268
  H   -2.07115688425345      0.26350363999695     -0.99868479412054
  H   -1.81497667887921     -1.49414715581368     -0.98089134013722
  N   -0.79892620477029      0.80676395109642      1.32618116477798
  O   -0.48012170821695      0.72759094773027      2.51224316144929
  O   -1.17056421118500      1.83493217866572      0.76045574274609
