17

C	-0.311428	-0.115596	-1.50028
C	0.0	0.0	0.0
Cl	-2.031558	-0.595926	-1.788835
H	1.094449	0.0	0.0
C	-0.080421	1.146399	-2.219491
N	0.13996	2.105906	-2.859943
N	0.533169	-1.114299	-2.130263
H	1.502673	-0.876514	-1.900032
H	0.337837	-2.017108	-1.711246
C	-0.468293	-1.169535	0.849193
H	-0.17634	-2.11253	0.38755
H	-1.551167	-1.160612	0.985423
H	0.026541	-1.105001	1.816993
N	-0.508054	1.24714	0.636016
O	-1.299394	1.954841	0.009313
O	-0.132981	1.46003	1.78598
Cl	3.253518	0.0	0.0
