17

C	-0.322415	0.05232	-1.503786
C	0.0	0.0	0.0
Cl	0.035645	-1.649927	-2.181911
H	1.091646	0.0	0.0
C	-1.744839	0.252894	-1.81123
N	-2.876561	0.404154	-2.08906
N	0.469176	1.058893	-2.083642
H	0.418291	1.062173	-3.093656
H	1.43547	0.982784	-1.760995
C	-0.610566	-1.135487	0.785634
H	-0.101772	-2.063256	0.531389
H	-1.680788	-1.231598	0.595578
H	-0.46206	-0.948408	1.850713
N	-0.457623	1.311584	0.572968
O	0.359616	2.220224	0.670125
O	-1.643477	1.383899	0.910899
Cl	3.312312	0.0	0.0
