17

C	-0.314112	-0.104796	-1.492672
C	0.0	0.0	0.0
Cl	-2.055141	-0.514938	-1.808081
H	1.098467	0.0	0.0
C	-0.060255	1.141593	-2.239461
N	0.200401	2.036536	-2.955863
N	0.499304	-1.195267	-1.978141
H	0.47878	-1.213697	-2.990817
H	1.462588	-1.038065	-1.667279
C	-0.486249	-1.183388	0.815711
H	-0.231722	-2.099219	0.283806
H	-1.566779	-1.14349	0.971254
H	0.023077	-1.173662	1.778566
N	-0.487403	1.255631	0.630278
O	-0.182448	1.41675	1.809007
O	-1.176786	2.034293	-0.031184
Cl	3.245561	0.0	0.0
