17

C	-0.522759	0.149101	-1.446738
C	0.0	0.0	0.0
Cl	0.011734	1.759888	-2.049845
H	1.103081	0.0	0.0
C	0.132072	-0.879931	-2.2661
N	0.547683	-1.757903	-2.926431
N	-1.945884	0.031494	-1.67771
H	-2.423722	0.565619	-0.960735
H	-2.216621	-0.94225	-1.604281
C	-0.488169	-1.27947	0.658139
H	-0.05	-1.347901	1.656075
H	-1.57687	-1.311682	0.73948
H	-0.129537	-2.138228	0.086498
N	-0.477217	1.15079	0.826665
O	0.342949	1.774784	1.486219
O	-1.695353	1.378265	0.829526
Cl	3.30705	0.0	0.0
