17

C	-0.303902	0.093203	-1.504088
C	0.0	0.0	0.0
Cl	-1.961947	-0.495081	-1.959125
H	1.109531	0.0	0.0
C	-0.254267	1.491571	-1.972687
N	-0.163731	2.581801	-2.403969
N	0.653636	-0.764496	-2.144071
H	0.646044	-0.627018	-3.146601
H	1.590196	-0.581397	-1.770014
C	-0.508291	-1.267299	0.655796
H	-1.594216	-1.250672	0.755777
H	-0.20859	-2.116184	0.040986
H	-0.04172	-1.363925	1.638057
N	-0.52136	1.176004	0.745177
O	0.219316	1.712129	1.563444
O	-1.69474	1.495142	0.530296
Cl	3.30019	0.0	0.0
