15

C	0.0	0.0	0.0
C	-0.655068	0.022002	-1.363916
Br	1.89929	0.0	0.0
H	-1.736964	0.003851	-1.14948
H	-0.397692	0.985588	-1.805806
N	-0.471396	1.234703	0.781296
O	-1.053278	1.075905	1.83992
O	-0.214189	2.298556	0.230219
N	-0.405588	-1.252318	0.793723
O	0.045616	-1.359486	1.925912
O	-1.116779	-2.061236	0.212502
N	-0.174393	-1.069544	-2.199695
H	-0.167624	-0.767228	-3.163607
H	-0.822027	-1.840938	-2.114933
Cl	-3.824887	0.0	0.0
