19

C	-0.391782	-0.078358	-1.505571
C	0.0	0.0	0.0
F	-0.374526	-1.447718	-1.799996
H	1.092496	0.0	0.0
C	-1.792136	0.416167	-1.809024
H	-2.522895	-0.083228	-1.170019
H	-1.870377	1.494241	-1.662328
H	-2.007014	0.186712	-2.853261
N	0.56572	0.532194	-2.383181
H	1.496654	0.240773	-2.081977
H	0.538617	1.532006	-2.220176
C	-0.547366	-1.103939	0.872601
H	-0.25622	-0.934941	1.909861
H	-1.636385	-1.174344	0.824962
H	-0.109442	-2.043577	0.538692
N	-0.43021	1.340538	0.492831
O	0.041414	2.331059	-0.069146
O	-1.26381	1.402096	1.400047
Cl	3.355404	0.0	0.0
