19

C	-0.350211	-0.021911	-1.493203
C	0.0	0.0	0.0
F	-1.700746	-0.373654	-1.664392
H	1.09174	0.0	0.0
C	-0.17924	1.320188	-2.180808
H	-0.882997	2.059229	-1.79392
H	0.83973	1.681217	-2.03566
H	-0.37517	1.185926	-3.248759
N	0.442847	-1.083361	-2.057792
H	0.457682	-0.994351	-3.067139
H	1.401895	-1.004399	-1.719767
C	-0.541129	-1.197202	0.750316
H	-0.212817	-1.158537	1.791152
H	-1.628492	-1.226809	0.713922
H	-0.136337	-2.09757	0.289023
N	-0.48639	1.267236	0.61343
O	0.25409	2.24826	0.571778
O	-1.623796	1.275107	1.094272
Cl	3.372374	0.0	0.0
