19

C	-0.337338	-0.010547	-1.497127
C	0.0	0.0	0.0
F	-1.689666	-0.350079	-1.680942
H	1.091799	0.0	0.0
C	-0.145871	1.329983	-2.18183
H	-0.329816	1.195762	-3.25198
H	-0.845196	2.07775	-1.804653
H	0.874979	1.680352	-2.024709
N	0.452069	-1.077438	-2.058732
H	0.468358	-0.988015	-3.06795
H	1.41079	-1.000162	-1.719363
C	-0.54411	-1.204881	0.73494
H	-0.225228	-1.174742	1.779152
H	-0.133269	-2.099936	0.268243
H	-1.631486	-1.237043	0.689913
N	-0.486465	1.262251	0.623745
O	-1.5998	1.252173	1.157794
O	0.23146	2.257146	0.540702
Cl	3.364957	0.0	0.0
