19

C	-0.326303	-0.015864	-1.506665
C	0.0	0.0	0.0
F	-1.679939	-0.33374	-1.672858
H	1.091318	0.0	0.0
C	-0.063726	1.309472	-2.184451
H	-0.754385	2.071103	-1.822349
H	0.958475	1.634768	-1.983655
H	-0.207869	1.167598	-3.256236
N	0.429017	-1.046687	-2.181539
H	1.418749	-0.847841	-2.035472
H	0.246859	-1.937731	-1.731188
C	-0.535383	-1.196571	0.760331
H	-1.615891	-1.284234	0.661771
H	-0.053408	-2.104278	0.393588
H	-0.278391	-1.102825	1.817117
N	-0.502709	1.25506	0.625379
O	0.215442	2.252105	0.576401
O	-1.634061	1.237581	1.121281
Cl	3.362534	0.0	0.0
