19

C	-0.46422	0.050456	-1.464472
C	0.0	0.0	0.0
F	-1.808345	0.551284	-1.45762
H	1.090278	0.0	0.0
C	0.364569	0.972667	-2.330082
H	0.231297	2.003566	-2.013031
H	0.044972	0.875112	-3.372913
H	1.418731	0.707496	-2.226433
N	-0.449093	-1.265025	-2.005304
H	-0.658344	-1.228779	-2.994807
H	-1.138267	-1.845662	-1.545547
C	-0.510726	-1.193726	0.779454
H	-0.222592	-1.09592	1.824987
H	-0.032865	-2.090143	0.384235
H	-1.598233	-1.282435	0.732768
N	-0.436305	1.27115	0.668001
O	0.07366	2.319308	0.282196
O	-1.285288	1.204689	1.557847
Cl	3.390149	0.0	0.0
