12
Coordinates from ORCA-job run
  C   1.21816933242807      0.47223317524998      0.25834026027717
  C   -0.02371356097615     -0.05481075694705     -0.46354676612042
  Cl  2.28004951740365     -0.86968591707773      0.75356743903740
  H   0.30896313425088     -0.66713875492988     -1.30901882491078
  H   1.79884044941896      1.12118215633956     -0.39611950961789
  H   0.93299267465145      1.02158405663924      1.15627265917118
  C   -0.74883007163132      1.09768442562651     -1.00745203923407
  N   -1.32574798756933      2.03468886739627     -1.41690303041954
  C   -0.93949072061329     -0.88497192289370      0.43848382131934
  H   -0.40662131034612     -1.75924749287902      0.81237546380537
  H   -1.27781687682927     -0.28872606582234      1.28893594499092
  H   -1.81679458018754     -1.22279177070183     -0.11493541829868
