17

C	-0.138131	-0.09814	-1.519666
C	0.0	0.0	0.0
F	-1.422626	-0.526826	-1.895099
H	1.096048	0.0	0.0
C	0.041271	1.226153	-2.165085
N	0.143836	2.272601	-2.687282
N	0.836036	-1.017218	-2.060496
H	1.719622	-0.717321	-1.607362
H	0.613092	-1.890214	-1.583679
N	-0.403827	-1.298777	0.540468
H	-1.371211	-1.279132	0.841239
H	0.182618	-1.497846	1.340523
C	-0.656381	1.198249	0.654607
H	-1.745039	1.191371	0.508679
H	-0.262636	2.137798	0.260013
H	-0.455582	1.180717	1.729868
F	2.694046	0.0	0.0
