17

C	-0.131099	-0.199754	-1.526537
C	0.0	0.0	0.0
F	-1.340202	-0.881147	-1.857845
H	1.106275	0.0	0.0
C	-0.280285	1.080679	-2.267541
N	-0.409125	2.076548	-2.876804
N	0.982088	-0.974501	-1.944832
H	1.162003	-0.886384	-2.935735
H	1.814553	-0.70103	-1.374474
N	-0.408981	-1.215814	0.711851
H	0.392659	-1.835712	0.712824
H	-1.142915	-1.68168	0.192887
C	-0.692409	1.224672	0.550547
H	-1.773625	1.190192	0.36862
H	-0.295203	2.146008	0.118676
H	-0.533213	1.248642	1.63019
F	2.732045	0.0	0.0
