17

C	-0.564128	-0.001141	-1.40575
C	0.0	0.0	0.0
F	0.001507	1.075554	-2.129155
H	1.100449	0.0	0.0
C	-0.196007	-1.225713	-2.149857
N	0.010079	-2.164163	-2.822773
N	-1.994253	0.106486	-1.433318
H	-2.250711	0.978654	-0.985953
H	-2.31598	0.133918	-2.395313
N	-0.386646	-1.257356	0.636109
H	-1.205216	-1.15073	1.224039
H	0.397212	-1.55758	1.201802
C	-0.421145	1.247651	0.768099
H	0.202116	1.308001	1.663498
H	-0.233126	2.150952	0.180827
H	-1.476051	1.232895	1.083039
F	2.64402	0.0	0.0
