17

C	-0.511532	0.004266	-1.436114
C	0.0	0.0	0.0
F	-0.334048	1.262729	-2.008821
H	1.096131	0.0	0.0
C	0.291219	-0.92922	-2.276879
N	0.798121	-1.714734	-2.987971
N	-1.912123	-0.313492	-1.48974
H	-2.176118	-0.600911	-2.424559
H	-2.023629	-1.101859	-0.857146
N	-0.410959	-1.300483	0.588129
H	-0.836766	-1.139171	1.494592
H	0.454418	-1.805386	0.756941
C	-0.548681	1.176319	0.781744
H	-0.06701	1.189252	1.764304
H	-1.637115	1.1231	0.909991
H	-0.305303	2.114422	0.282023
F	2.647001	0.0	0.0
