17

C	-0.1332	-0.096415	-1.519998
C	0.0	0.0	0.0
F	-1.412793	-0.52317	-1.902277
H	1.095978	0.0	0.0
C	0.049318	1.227893	-2.163485
N	0.176468	2.275109	-2.680025
N	0.842818	-1.011032	-2.060088
H	1.724668	-0.71869	-1.602487
H	0.617012	-1.889256	-1.598078
N	-0.398916	-1.300936	0.539787
H	0.207523	-1.507987	1.322376
H	-1.358394	-1.279751	0.865308
C	-0.660352	1.196033	0.653753
H	-0.447107	1.18663	1.726575
H	-0.28142	2.136981	0.249363
H	-1.75044	1.178386	0.520102
F	2.697442	0.0	0.0
