13
Coordinates from ORCA-job run
  C   -0.53882421304860      0.32429174826883     -0.38649595878984
  C   0.61199251941139     -0.69147622127194     -0.20784914811848
  Cl  -1.11065182217680      0.28529736075143     -2.05218038750268
  H   0.22082526748162     -1.66909486857334     -0.51131288043114
  N   -1.71128199890389     -0.14189393808813      0.51180620860003
  O   -2.36569459588274      0.73354711434031      1.05311721613585
  O   -1.88516456976751     -1.35054496774587      0.55051595246905
  C   -0.14279751642052      1.66689914084215      0.00162086686698
  N   0.22691586258472      2.74237836821080      0.30219147249428
  C   1.00273603764676     -0.74907786352422      1.20351702274444
  N   1.29329146336572     -0.78701092465938      2.34103906109966
  C   1.74522591533693     -0.32483742621733     -1.05819592741209
  N   2.65242765037292     -0.03847752233329     -1.74677349815608
