13
Coordinates from ORCA-job run
  C   -0.47221059492669      0.52633779791851     -0.32560724836102
  C   0.93620423834599     -0.10508205752230     -0.23986721874078
  Cl  -0.88519337457581      0.84761999479719     -2.00792198369932
  H   1.62568801844978      0.66384682559545     -0.61395025677640
  N   -1.53993219615640     -0.43883430542461      0.24520578633047
  O   -1.18315000114917     -1.59120466843844      0.43891143250185
  O   -2.64080391556613      0.05457913451317      0.42132229992919
  C   -0.52561421388168      1.75126237782334      0.45974518583680
  N   -0.51786637799386      2.74244980180478      1.09299014406547
  C   1.08140562610454     -1.28575179283298     -1.09473867654583
  N   1.26280492494226     -2.19887111572080     -1.81017667673506
  C   1.28415672256800     -0.39060434125055      1.15458345540194
  N   1.57451114383918     -0.57474765126276      2.27750375679268
