13
Coordinates from ORCA-job run
  C   -0.57492153334282      0.29797045539044     -0.35450562065864
  C   0.63796968424258     -0.65410271624541     -0.24824034839695
  Cl  -1.22634945783601      0.24571392384121     -1.99095493576743
  H   0.28736405083700     -1.64740548239520     -0.54998832729396
  N   -1.67295889747180     -0.24242978135961      0.59351577643992
  O   -2.34711515679325      0.58942130610227      1.17780079807664
  O   -1.77716932961360     -1.45923009859008      0.62459991001802
  C   -0.23399753205507      1.65660102175157      0.03083278541246
  N   0.09097453490187      2.74790965839616      0.32580138225843
  C   1.09936391495912     -0.71052411646591      1.14160203588653
  N   1.44779593784614     -0.74805763390344      2.26274942189417
  C   1.70643596432753     -0.21055125031553     -1.14436143155670
  N   2.56260781999830      0.13768471379353     -1.86885144631250
