13
Coordinates from ORCA-job run
  C   -0.51580920678187      0.34240529601040     -0.33445433336328
  C   0.80411511064595     -0.28746256149093      0.18392126330403
  Cl  -0.89638481167860     -0.19664674053453     -1.94694992362630
  H   0.95903572397864      0.09460401228668      1.20046042758886
  N   -1.60956037919683     -0.11567443949786      0.68578027032246
  O   -1.37151965160816      0.24926420527682      1.82862478963009
  O   -2.54358041867802     -0.77633587374734      0.27871254802885
  C   -0.44388734587043      1.79434748305903     -0.25816716235616
  N   -0.36420440158966      2.96611011297917     -0.19467216866516
  C   1.92493412828252      0.12114357414882     -0.66256569660918
  N   2.82558234102917      0.46265825159575     -1.33439267039658
  C   0.67509055946271     -1.74541090406980      0.24370582059677
  N   0.55618835200457     -2.91200241601622      0.30999683554559
