13
Coordinates from ORCA-job run
  C   -0.50743202535622      0.37445173318170     -0.31162770575460
  C   0.78593730897498     -0.35769898043885      0.13421523962849
  Cl  -1.08263477091786     -0.21407282834905     -1.84727914978047
  H   1.06847875128213      0.06263564183597      1.10727568627093
  N   -1.54416531537080      0.09002595687837      0.82512456783872
  O   -1.16950936723245      0.49361485606957      1.91726604056881
  O   -2.57106501345274     -0.49314892274747      0.54247992348269
  C   -0.28854347492802      1.81337715038827     -0.33794939672753
  N   -0.09372990945518      2.97295081874707     -0.36416776282021
  C   1.86082201545501     -0.11536437511125     -0.82777684291035
  N   2.72797047711685      0.09269450308105     -1.59191138919626
  C   0.52056655963012     -1.78876680495831      0.29978210431578
  N   0.29330476425418     -2.93069874857708      0.45456868508401
