13
Coordinates from ORCA-job run
  C   -0.56599310665683      0.30041042220805     -0.36563730203733
  C   0.62395560293903     -0.67546699246249     -0.22565015496050
  Cl  -1.21372438566590      0.21329723866602     -2.00193527918763
  H   0.25123677329676     -1.66927659007654     -0.49797448387539
  N   -1.67950126518097     -0.18630580613012      0.59430067015242
  O   -1.81232165179812     -1.39888277456533      0.66062299685518
  O   -2.33610515837850      0.67769884585434      1.15128775321132
  C   -0.19625173337297      1.66206488701332     -0.02000062073475
  N   0.15208785113694      2.75463457275347      0.24212900614753
  C   1.07952693257764     -0.70015922106538      1.16699925372277
  N   1.42190419039744     -0.71185478937643      2.29051642520796
  C   1.70498447138988     -0.28549764178713     -1.13162583715065
  N   2.57020147931558      0.02133784896824     -1.86403242735095
