13
Coordinates from ORCA-job run
  C   -0.44781517945839      0.53940224744355     -0.33770189171131
  C   0.93698205795514     -0.13746389214910     -0.22050023684333
  Cl  -0.81707000183082      0.86357572362231     -2.02958996767762
  H   1.65900286271117      0.60546326907390     -0.58565859610466
  N   -1.55783665629262     -0.38673789210178      0.21751605155512
  O   -2.64494600169110      0.14395001186359      0.36931098945975
  O   -1.24320636689606     -1.54890787590432      0.42504871927124
  C   -0.47627601312367      1.77039500080457      0.43949762932646
  N   -0.44643282347219      2.76554397568000      1.06582948807849
  C   1.05845884496692     -1.32794902174215     -1.06537055584349
  N   1.21741471652840     -2.25134588486909     -1.77277094006393
  C   1.24860319921274     -0.42462434457871      1.18218201443159
  N   1.51312136139049     -0.61030131714277      2.31120729612169
