13
Coordinates from ORCA-job run
  C   -0.44837518556347      0.54119582326808     -0.03120541346329
  C   0.75213143618543     -0.43332674781777      0.09605236130791
  Cl  -0.23021361072653      1.66188217095519     -1.34733156995052
  H   0.52681147715634     -1.10620864527842      0.93254377001003
  N   -1.69061274077016     -0.37834603244747     -0.27421073265670
  O   -2.32487970121890     -0.23895730192189     -1.30023644591465
  O   -1.87192315126772     -1.17678952496728      0.63435358515240
  C   -0.67119514687134      1.23382621336711      1.22966492402602
  N   -0.83219599676556      1.79236906439262      2.25216889587444
  C   1.97699700024063      0.30999653733023      0.39090598176459
  N   2.95682522861863      0.90605076206920      0.64353511652972
  C   0.88407383775042     -1.22980749278908     -1.12620947466073
  N   0.97055655323223     -1.88088482616052     -2.10003099801921
