13
Coordinates from ORCA-job run
  C   -0.54314960982056      0.31766375439405     -0.38601201408772
  C   0.60973237433782     -0.69489676074807     -0.20325022148175
  Cl  -1.13614602566152      0.24718165374946     -2.04359404020436
  H   0.21526793662283     -1.67725573954205     -0.48624178327187
  N   -1.70405703246171     -0.13187294649291      0.53575212141252
  O   -2.35161938019749      0.75335595933499      1.06926641311695
  O   -1.87744013650916     -1.33951445009362      0.59829440736517
  C   -0.14293798787908      1.66766433356205     -0.02869121386327
  N   0.22831892372273      2.74897916280191      0.24788490314918
  C   1.01627462972902     -0.72941483847948      1.20430084478958
  N   1.31934261560188     -0.74841737152699      2.33903223125512
  C   1.73346772294133     -0.34285114356368     -1.07205840560863
  N   2.63394596957391     -0.06962161339569     -1.77468324257093
