13
Coordinates from ORCA-job run
  C   -0.55107308168486      0.31601646446926     -0.36922595289754
  C   0.62320607355471     -0.67760931949735     -0.22713702477530
  Cl  -1.14738180804244      0.29325709126516     -2.02777530667812
  H   0.25117571149859     -1.65810810855518     -0.54431650140220
  N   -1.70632362092036     -0.18077664755047      0.53384803132500
  O   -2.42990757254803      0.68014251370354      1.00593934530994
  O   -1.80389909212492     -1.39378838209685      0.64023911974077
  C   -0.17657913630558      1.66032917727852      0.03503710288418
  N   0.17667454883410      2.73771565245453      0.34824786940740
  C   1.04290566867719     -0.75624682082819      1.17468830509285
  N   1.36622045649844     -0.81528718069835      2.30244175171310
  C   1.73342919324760     -0.26655553304867     -1.08799036688804
  N   2.62155265931556      0.05891109310406     -1.78399637283204
