13
Coordinates from ORCA-job run
  C   -0.58593565685390      0.26698499097743     -0.36040446622252
  C   0.65385984090473     -0.64601504780955     -0.22765484697615
  Cl  -1.25175599731741      0.12872534205108     -1.98584447067983
  H   0.32838034830856     -1.66058254498688     -0.48337876879777
  N   -1.65906582844750     -0.26378372557070      0.62143760495237
  O   -1.73043329304144     -1.48064059927914      0.70203815934123
  O   -2.34933739144004      0.57251647321966      1.18001957177461
  C   -0.27967165632917      1.64934097751333     -0.03501524126476
  N   0.01668260744707      2.76087952920220      0.21059866088344
  C   1.13023315427107     -0.63036661912389      1.15816661928135
  N   1.48877409324933     -0.60898912065029      2.27655389874245
  C   1.70064305589978     -0.21264758152441     -1.15394339579688
  N   2.53862672334893      0.12657792598117     -1.90357332523753
