13
Coordinates from ORCA-job run
  C   -0.49087083037947      0.51315250235972     -0.31898003666441
  C   0.92953585308216     -0.09501801199590     -0.26861797252449
  Cl  -0.96398932664879      0.79772011197617     -1.99199455261044
  H   1.59426684151248      0.67735723954578     -0.67866176088685
  N   -1.52371801128326     -0.45827580686633      0.30406594819466
  O   -2.62566647266506      0.02148881375834      0.50885132315090
  O   -1.14206396082834     -1.60119573594136      0.50553908814384
  C   -0.53825045697143      1.75113345040763      0.44610524779125
  N   -0.52266928896061      2.75379862828112      1.06088918133658
  C   1.06470680539760     -1.28849751802276     -1.10717424818636
  N   1.23459895253940     -2.21169951752999     -1.81232705841598
  C   1.32725127271531     -0.35012647637301      1.11836987096298
  N   1.65786862249002     -0.50983767959941      2.23393496970831
