13
Coordinates from ORCA-job run
  C   -0.54932236641568      0.29785695972180     -0.38633777535930
  C   0.62730766218131     -0.68476742736656     -0.19470064696661
  Cl  -1.13734267849359      0.20181899724065     -2.04494318221333
  H   0.25848504318840     -1.68016689663248     -0.46579575964991
  N   -1.70773777769142     -0.16409214891693      0.53179715603330
  O   -1.80574519635992     -1.37224856328469      0.68370459366021
  O   -2.43459365604757      0.71386238269270      0.96625590857563
  C   -0.18143618512771      1.65920403059667     -0.03672452280938
  N   0.16418533115560      2.74928337531280      0.23938591601423
  C   1.04117995681734     -0.69346042235241      1.21104209575623
  N   1.35489781057159     -0.68940733860785      2.34299082815868
  C   1.73909978799161     -0.31246121092001     -1.07080985194208
  N   2.63202226823004     -0.02342173748371     -1.77686475925767
