13
Coordinates from ORCA-job run
  C   -0.55150682520343      0.40219419091401     -0.28239866417582
  C   0.57481446001680     -0.65192466280437     -0.37404375787524
  Cl  -1.22618453641773      0.68894935049062     -1.88451178209377
  H   0.13474768537559     -1.54608116496525     -0.82960134882193
  N   -1.68031119667740     -0.20115348479687      0.58928373558266
  O   -1.89038185013907     -1.39167223832745      0.41329958182507
  O   -2.27139939096188      0.56989872625767      1.32677988501130
  C   -0.08864844249702      1.63975642152381      0.32152428152205
  N   0.33603913853747      2.63106106730620      0.79113523034239
  C   1.04878743022866     -0.98361052423900      0.97244518304249
  N   1.40662417758575     -1.23975030941500      2.06155230980120
  C   1.66577558311636     -0.15398411837040     -1.21278069507634
  N   2.54064376703589      0.23531674642603     -1.89268395908407
