13
Coordinates from ORCA-job run
  C   -0.39349850765542      0.58416108753854     -0.03912380663456
  C   0.69821648212213     -0.50420818255941      0.13838557763527
  Cl  0.05217976724247      1.75174775090532     -1.25270442161011
  H   0.33353575336338     -1.19521122349994      0.90834996215003
  N   -1.68068179897432     -0.20158959742729     -0.45859397089598
  O   -2.01954009397119     -1.03115553150071      0.37378985760943
  O   -2.19500638469762      0.05524901770537     -1.52811246122097
  C   -0.67932374816876      1.22056036027088      1.23844131749452
  N   -0.88686372374145      1.72370922126628      2.28106715536338
  C   1.94916143759889      0.10382822882777      0.59138662591496
  N   2.94853914823557      0.58955381893165      0.97167477061916
  C   0.87669067706001     -1.24521928457167     -1.11229676539378
  N   0.99559099158632     -1.85142566588680     -2.11126384103135
