13
Coordinates from ORCA-job run
  C   -0.40784172404970      0.56832621589538     -0.07293968392581
  C   0.71434054818214     -0.47915258561010      0.15141380758534
  Cl  -0.03101927272938      1.64231435219477     -1.39147686860310
  H   0.38789631760966     -1.12088081156182      0.97911617077688
  N   -1.69111017451397     -0.27419387177900     -0.38074737640533
  O   -2.24823326772868     -0.11498786584456     -1.44766211532277
  O   -1.98325432977499     -1.03818617500059      0.52844872107139
  C   -0.66672540756178      1.30083054720576      1.15805066275530
  N   -0.85671433791975      1.88787150962200      2.15940459702448
  C   1.96122331236622      0.18899608317219      0.52329012852078
  N   2.95648875528153      0.72430220850004      0.84316973328511
  C   0.87770534419688     -1.30514582227536     -1.04722463551311
  N   0.98724423664181     -1.97909378451871     -2.00284314124917
