13
Coordinates from ORCA-job run
  C   -0.53636785676127      0.32790242920057     -0.37973442242058
  C   0.60308091929090     -0.70139502067000     -0.20990251490388
  Cl  -1.11809994668969      0.29789390035398     -2.04334404716828
  H   0.20125111825596     -1.67462111438051     -0.51284299382891
  N   -1.71569270891301     -0.11534090639719      0.51993564159593
  O   -2.41652397147288      0.77666326477958      0.96836175582530
  O   -1.85352627172699     -1.32252143448257      0.64709182586448
  C   -0.12123036793461      1.66562086460707      0.00661671874639
  N   0.26597316257732      2.73585933445689      0.30398076240453
  C   1.00659234104665     -0.76746979793250      1.19741599216748
  N   1.31238582326510     -0.81307013213612      2.33056782229313
  C   1.73376985935718     -0.34337586810105     -1.06781125643176
  N   2.63938789970533     -0.06414551929816     -1.76133528414383
