13
Coordinates from ORCA-job run
  C   -0.54933146762361      0.28908412798467     -0.39849688581258
  C   0.62883445116664     -0.68655928677402     -0.17890560412945
  Cl  -1.13268432106917      0.14933521019810     -2.05519034343518
  H   0.26431319081706     -1.68690738536467     -0.43710611355653
  N   -1.70338536028600     -0.15830835653847      0.53307907198720
  O   -1.83674932532212     -1.36712029165801      0.64902475670798
  O   -2.38625637150200      0.72809195674323      1.01855930287333
  C   -0.18512834675232      1.66011886517164     -0.08459592352643
  N   0.15871529469002      2.75930011519244      0.15455433169254
  C   1.02638681725710     -0.67024067055204      1.23135968517196
  N   1.32209796578773     -0.64816089519680      2.36799759514533
  C   1.74846772602955     -0.32614620883359     -1.04946107265416
  N   2.64571974680713     -0.04148718037247     -1.75181880046402
