13
Coordinates from ORCA-job run
  C   -0.49222577803607      0.51736694901261     -0.30734053352446
  C   0.93042314815785     -0.08641694737540     -0.27148806853480
  Cl  -0.96838190779812      0.83394390467534     -1.97390059562183
  H   1.59159151757876      0.69636344749992     -0.66728250017915
  N   -1.52081637591237     -0.46987577520079      0.29668395487024
  O   -2.62490393722654      0.00134461109580      0.51055022952515
  O   -1.13485615439863     -1.61522762685068      0.47579339443626
  C   -0.54367536512086      1.73969162596549      0.48219069318790
  N   -0.53609106341661      2.73129751068874      1.11480091943767
  C   1.06761356773605     -1.26273419662166     -1.13362635251666
  N   1.23458391916584     -2.17188610103261     -1.85736791216531
  C   1.33181409289868     -0.36717170600124      1.10955103760358
  N   1.66392433637202     -0.54769569585551      2.22143573348140
