13
Coordinates from ORCA-job run
  C   -0.58382270074579      0.26764681758752     -0.36579291884346
  C   0.65166240022545     -0.64964315817869     -0.22263278983384
  Cl  -1.24036631902011      0.12641871240798     -1.99482632155158
  H   0.32504867608223     -1.66346385680510     -0.47968460247208
  N   -1.66525285311042     -0.25528084287834      0.61131365125772
  O   -1.73974581068783     -1.47153857151521      0.69829531723556
  O   -2.35719552031608      0.58587539852167      1.16033297839942
  C   -0.27328294534700      1.64965419844639     -0.04301706938514
  N   0.03180851137218      2.75872667892063      0.20288676477537
  C   1.11835293455558     -0.63449464328388      1.16652680832185
  N   1.47225094603812     -0.61602493621418      2.28648985085298
  C   1.70697831294507     -0.21911346571234     -1.14047350286266
  N   2.55356436800862      0.12223766870355     -1.87941816589415
