13
Coordinates from ORCA-job run
  C   -0.51868759345165      0.34054773526687     -0.33416955273514
  C   0.79349491281650     -0.32742554759607      0.15531258533320
  Cl  -1.07952641969401     -0.36193199966424     -1.82648462775084
  H   1.06531325631726      0.16243181711862      1.09853742245132
  N   -1.54603731339748      0.10438822233928      0.82175581548719
  O   -1.18010161765046      0.58822747151981      1.88383142177216
  O   -2.55827838079206     -0.52168961227339      0.58136383105164
  C   -0.33642571553772      1.77969182743519     -0.45480795767310
  N   -0.16977076395477      2.93964968183072     -0.55523770178667
  C   1.86309697163598     -0.11989218178930     -0.82071422177422
  N   2.73026462894880      0.05699054721444     -1.59283677055570
  C   0.56620099286694     -1.75152833534388      0.41206829157811
  N   0.37045704189268     -2.88845962605805      0.63238146460205
