13
Coordinates from ORCA-job run
  C   -0.43090354936068      0.55496605054398     -0.04259454228035
  C   0.73477370886836     -0.45599555885905      0.11882209054214
  Cl  -0.13258340399156      1.67878220904879     -1.34042458230456
  H   0.46036454957138     -1.12795350987567      0.94146202003813
  N   -1.69034506454449     -0.32457902465759     -0.33707240109600
  O   -1.92786337577429     -1.12337537814858      0.55814717402735
  O   -2.28285337628252     -0.15938125355332     -1.38399782556189
  C   -0.67748379781430      1.24436858434418      1.21546869207727
  N   -0.85926853738685      1.79574650267217      2.23839867868284
  C   1.97009889568660      0.24832213750673      0.46195925624673
  N   2.95846854616776      0.81284811469647      0.75153987604620
  C   0.88650597424104     -1.24789259605723     -1.10427354200272
  N   0.99008943061955     -1.89585627766087     -2.07843489441514
