13
Coordinates from ORCA-job run
  C   -0.39991744930018      0.57736741287689     -0.33486989488911
  C   0.93419706694146     -0.19050521606046     -0.19134982174560
  Cl  -0.68344180477791      0.97759396781116     -2.02711482409716
  H   1.71433309788788      0.51614369754209     -0.50521739254014
  N   -1.58630054017625     -0.29214534847364      0.14854909321837
  O   -2.64270743228144      0.30235259444801      0.27908196837659
  O   -1.35391241309880     -1.47821607906444      0.32747452166074
  C   -0.37977228810364      1.78266677005118      0.48176369379630
  N   -0.31173522418258      2.75339101072558      1.14249102807107
  C   1.01255234787024     -1.35914958225358     -1.07108320781703
  N   1.14179728925077     -2.26843209898525     -1.80239941325480
  C   1.17347938325595     -0.54164098826889      1.21098031540777
  N   1.38242796671450     -0.78042614034865      2.34169393381300
