13
Coordinates from ORCA-job run
  C   -0.53715427249514      0.41465458723459     -0.29010661721471
  C   0.55387140521338     -0.67742201431797     -0.36204766586005
  Cl  -1.19906442134179      0.69787951464896     -1.89824610635204
  H   0.08589565435037     -1.56375312386550     -0.80479308316109
  N   -1.68724591294396     -0.13680866483103      0.58834000424449
  O   -1.93665632125028     -1.32226133343926      0.43013081258083
  O   -2.25353644863409      0.66485424143115      1.31251082072858
  C   -0.03469788140768      1.64590101751582      0.29479508487198
  N   0.42135313471539      2.63055595502185      0.74876798018891
  C   1.01415970555073     -1.00275715090229      0.99066276131590
  N   1.36338375762330     -1.25180017824011      2.08423160975429
  C   1.66203830087930     -0.22758614806229     -1.20544457571408
  N   2.54865329974047      0.12754329780608     -1.88880102538302
