13
Coordinates from ORCA-job run
  C   -0.52854259878113      0.31120727192726     -0.34594103321332
  C   0.81533541383046     -0.24557110860407      0.19386496394801
  Cl  -0.87513584101080     -0.28241652090475     -1.94653891683080
  H   0.94709231427895      0.16704911509535      1.20169861927642
  N   -1.60656310650904     -0.17326381998268      0.68046839110829
  O   -2.50745001932679     -0.88448397187171      0.28439752744372
  O   -1.39106777947006      0.22751262555877      1.81567900153509
  C   -0.52388227239320      1.76615555694080     -0.30249474447112
  N   -0.49931972206731      2.94147991948907     -0.26411144230065
  C   1.92173879836132      0.19399333026394     -0.65620935727499
  N   2.81120659022805      0.56019794366158     -1.32997778028597
  C   0.75258621238069     -1.70599136756245      0.28769019302348
  N   0.68600201047888     -2.87486897401110      0.38147457804184
