13
Coordinates from ORCA-job run
  C   -0.52540590656198      0.39248193983141     -0.25827638232674
  C   0.78925132732744     -0.36602810391106      0.06269673421624
  Cl  -1.20628579473315     -0.11449693914150     -1.77951915127425
  H   1.13839496049801      0.00268480695365      1.03509803468075
  N   -1.48595988497759      0.05295039514068      0.93019450388044
  O   -1.03634193855131      0.39860786142105      2.01381926788988
  O   -2.53313966950367     -0.51160681326329      0.68745618598863
  C   -0.29889855351964      1.82993299735061     -0.22491333363604
  N   -0.09512649815491      2.98809626741986     -0.20130243007846
  C   1.80158094899994     -0.07870336038988     -0.95341607219634
  N   2.62271198656671      0.16066529578714     -1.75821072126192
  C   0.52613394866490     -1.80299569916742      0.17093621820730
  N   0.30408507394525     -2.95158864803126      0.27543714591052
