13
Coordinates from ORCA-job run
  C   -0.47407142686633      0.52586452339638     -0.32315166670460
  C   0.92736795002675     -0.12371589925479     -0.26340844031279
  Cl  -0.93023346105548      0.81759814886113     -1.99966352538836
  H   1.61633239407243      0.62792994537381     -0.67191418587239
  N   -1.53854455115573     -0.41143933917735      0.29800709427823
  O   -1.19309563043206     -1.56503004324619      0.50474935718468
  O   -2.62665648269661      0.10202049872602      0.49540347035277
  C   -0.48789529224849      1.76776590277903      0.43693900402240
  N   -0.44708195663585      2.77244384127214      1.04722263194639
  C   1.03259869893050     -1.32357864061849     -1.09682982070822
  N   1.17764687548128     -2.25491747116914     -1.79680294866012
  C   1.31095032494409     -0.38500028905820      1.12653293416147
  N   1.63268255763551     -0.54994117788435      2.24391609570056
