13
Coordinates from ORCA-job run
  C   -0.53732726593362      0.41057602450710     -0.29353880478470
  C   0.55766174578107     -0.67795574592131     -0.35644986931876
  Cl  -1.20029496788642      0.67721495711876     -1.90399140963894
  H   0.09264048013369     -1.56888810995135     -0.79313158004455
  N   -1.68544022389575     -0.13852246862037      0.58966195978447
  O   -2.25466995384126      0.66641546409251      1.30776353056678
  O   -1.93093232519905     -1.32579142679542      0.43971093196450
  C   -0.04149611222904      1.64932113538445      0.28088203426558
  N   0.40297664308172      2.64339230376453      0.72585603422749
  C   1.01738151711717     -0.99311874468003      0.99890512319233
  N   1.36476225315601     -1.23665317919798      2.09424117892900
  C   1.66491393802194     -0.23045721711942     -1.20212125105754
  N   2.54982427169354      0.12446700741853     -1.88778787808565
