13
Coordinates from ORCA-job run
  C   -0.55989843515215      0.37989854212228     -0.29580597915547
  C   0.58654054554555     -0.65479330600770     -0.35198935706938
  Cl  -1.24384894991998      0.59369241758680     -1.90556061009268
  H   0.16386106041237     -1.57274959821598     -0.77546610026997
  N   -1.67465147955061     -0.21272832457419      0.60091513083621
  O   -1.86527623355575     -1.41162903947305      0.46452900291806
  O   -2.27545108833584      0.57187813571686      1.31586420654383
  C   -0.11979017419432      1.64806251478052      0.25964237973139
  N   0.28703082745835      2.66447084519490      0.68971040861123
  C   1.06801975631510     -0.92972571388155      1.00472942779547
  N   1.43296254740722     -1.14209808831638      2.10089492437086
  C   1.66701695082521     -0.16346610004916     -1.20791272857905
  N   2.53248467274485      0.22618771511665     -1.89955070564051
