13
Coordinates from ORCA-job run
  C   -0.54003825307685      0.32838314643330     -0.38062951862128
  C   0.61170931800572     -0.68940330589080     -0.21920196044561
  Cl  -1.11811958692509      0.30832907390222     -2.04500121968257
  H   0.22146602246908     -1.66201418481839     -0.53930719646916
  N   -1.70871966235331     -0.14778140130332      0.51644950115165
  O   -1.88353957336368     -1.35665561703035      0.54026451949417
  O   -2.36067558011167      0.72156318957579      1.07063889149435
  C   -0.14203438544791      1.66692590264189      0.01990647049210
  N   0.22853388827640      2.73926797192853      0.33034251586573
  C   1.00331517939698     -0.77119318328963      1.19065013028307
  N   1.29515029491898     -0.82729474784098      2.32710187867068
  C   1.74353923825971     -0.30597186825972     -1.06399351712678
  N   2.64941309995163     -0.00315497604852     -1.74722049510637
