13
Coordinates from ORCA-job run
  C   -0.55155417028292      0.30653724444037     -0.38117200337125
  C   0.63225070238618     -0.67203110002113     -0.21296952422351
  Cl  -1.13710207986896      0.24811754698771     -2.04214004092336
  H   0.26953053513476     -1.66160520152567     -0.51251728723516
  N   -1.70117724359175     -0.19533742919382      0.52721390898258
  O   -2.38297873326688      0.66010005754485      1.06657278771654
  O   -1.83340046839753     -1.40895922718692      0.57272831323630
  C   -0.19550961774678      1.66199738848731      0.00177422393984
  N   0.14254494316133      2.74969397032071      0.29524922739290
  C   1.03609119308706     -0.71666783956431      1.19522847124215
  N   1.33550013839425     -0.74326000194669      2.33070269733062
  C   1.74608061722402     -0.26986887605287     -1.07252075776282
  N   2.63972418376720      0.04328346771047     -1.76715001632482
