13
Coordinates from ORCA-job run
  C   -0.41217635317467      0.56853848678915     -0.03894739356268
  C   0.71872397903368     -0.48045014012570      0.12784888830095
  Cl  -0.04427048425917      1.71750379989400     -1.29561283783826
  H   0.40114024574471     -1.16490777979354      0.92404038900382
  N   -1.68703941498426     -0.26716769463306     -0.39497100893720
  O   -2.24085711524303     -0.05873646439441     -1.45523739706179
  O   -1.97515878629721     -1.08049328319890      0.47183198292429
  C   -0.67820426220292      1.22968609830513      1.23024272852228
  N   -0.87649273882655      1.76148241539850      2.26050150401243
  C   1.96330785548750      0.17766508238530      0.52523690485251
  N   2.95770906831337      0.70475081029462      0.86056470442759
  C   0.88233498832928     -1.24320804780584     -1.11192213370716
  N   0.99098301807926     -1.86466328311525     -2.10257633093677
