13
Coordinates from ORCA-job run
  C   -0.45923566781056      0.54697013289037     -0.30750814877767
  C   0.93488034941553     -0.11815686430276     -0.24341924038293
  Cl  -0.86390598994006      0.93302097226946     -1.97836143444249
  H   1.64113095348800      0.64715781512256     -0.59273298741119
  N   -1.54847945263653     -0.41240972195629      0.23113820664101
  O   -1.21757127648991     -1.57809236551384      0.38759738941749
  O   -2.63848356135393      0.09919459554632      0.42267278698850
  C   -0.48632047370080      1.74647060959619      0.51746518497667
  N   -0.45947375077160      2.71788653821208      1.18014454092434
  C   1.05261858620078     -1.27353280204331     -1.13628874321172
  N   1.20851863711051     -2.16838690766173     -1.88009073418838
  C   1.27589323411767     -0.45672243167164      1.14085146205085
  N   1.56042841237090     -0.68339957048741      2.25753171741552
