13
Coordinates from ORCA-job run
  C   -0.51317791273148      0.32155867679327     -0.35814012278154
  C   0.80543578895357     -0.25797577061569      0.21869262236279
  Cl  -0.81284481378490     -0.24824469685754     -1.97697747576987
  H   0.90898796045601      0.14063384396498      1.23534526257986
  N   -1.63036083639675     -0.16103334685846      0.62511487130311
  O   -2.52576685114040     -0.85689315517983      0.19078040661516
  O   -1.44934140637686      0.22496602631512      1.77156931215792
  C   -0.49234122436125      1.77584582534491     -0.29733428747901
  N   -0.45710335083923      2.95038064677155     -0.24663661087285
  C   1.94413336149297      0.17823562411627     -0.58948973371604
  N   2.85858989967711      0.54022227645528     -1.23137477428895
  C   0.72312645546559     -1.71869563672657      0.29118995250991
  N   0.64166292958560     -2.88800031352328      0.36626057737952
