13
Coordinates from ORCA-job run
  C   -0.38111710566615      0.58912129561790     -0.04277170223423
  C   0.68853386820438     -0.52054731817832      0.13707721272342
  Cl  0.07578108876291      1.72897063355480     -1.27860199463432
  H   0.31467572876840     -1.19718247805306      0.91522082661826
  N   -1.69053238684130     -0.17268464484430     -0.43489455701445
  O   -2.21104306250675      0.07854268526632     -1.50279517576898
  O   -2.03878072449488     -0.98095435553432      0.41445891034294
  C   -0.63861580507037      1.25171883836457      1.22750858905174
  N   -0.82840515353268      1.78245885659145      2.25986410858255
  C   1.95486297295952      0.06610492469364      0.57472925978717
  N   2.96670510270744      0.53538871265636      0.94246113538420
  C   0.84305364622067     -1.27483311805970     -1.10887405388254
  N   0.94488183048881     -1.88810403207534     -2.10538255895575
