13
Coordinates from ORCA-job run
  C   -0.46139833713977      0.61843624544889     -0.28930015166509
  C   0.91821285211436     -0.09794142424650     -0.27130041632594
  Cl  -0.81723164905774      1.15473043514955     -1.91727452850592
  H   1.64440602441895      0.63346245448937     -0.64857515256960
  N   -1.51931576007351     -0.41954230539203      0.18371169085699
  O   -1.63601709707481     -0.49285498478231      1.39895814367645
  O   -2.06602639162277     -1.08611732330579     -0.67535398236347
  C   -0.46535667630460      1.73541185827315      0.64215762766515
  N   -0.42542932889191      2.66418010056368      1.36277532882175
  C   0.91900413289395     -1.25943991195712     -1.16506153321337
  N   0.94871838849380     -2.19101654023007     -1.87972097994785
  C   1.30567381747373     -0.48210582679739      1.08884530340912
  N   1.65376002477031     -0.77820277721345      2.17113865016178
