13
Coordinates from ORCA-job run
  C   -0.39163161701696      0.62980677947997     -0.31363007855583
  C   0.94178569808589     -0.15981810630848     -0.21846620317811
  Cl  -0.57059562689315      1.26515570704663     -1.93695786862284
  H   1.70607575889711      0.49957070568403     -0.64890221677102
  N   -1.57339742020702     -0.33982152537566      0.01318200892774
  O   -2.59702966490479     -0.22094430528123     -0.63011035027513
  O   -1.33461345328711     -1.10551949915678      0.93468476893057
  C   -0.44420795764524      1.69526169517507      0.67634330724428
  N   -0.47904641117633      2.55812369906080      1.47542517638055
  C   0.86447356788620     -1.36995145955306     -1.04075943658123
  N   0.79990395231123     -2.33039224317387     -1.71326525941809
  C   1.34181390422247     -0.46234837056094      1.15753399757535
  N   1.73746926972771     -0.65812307703646      2.24592215434375
