13
Coordinates from ORCA-job run
  C   -0.41399011165900      0.56679082732389     -0.03167367201265
  C   0.72187078345256     -0.48001148995154      0.11721911133511
  Cl  -0.06256167038830      1.72362637422278     -1.28578940908442
  H   0.41400456465845     -1.17060088764929      0.91194216493670
  N   -1.69061962980205     -0.27003044759332     -0.37818475985598
  O   -2.26006213555627     -0.05288159611594     -1.42835039765592
  O   -1.96417531410733     -1.09273498994779      0.48447406503991
  C   -0.66758533608282      1.22020825724674      1.24414053749274
  N   -0.85643263027617      1.74566965183523      2.27936111449608
  C   1.96748307727468      0.18072215223122      0.50665736740765
  N   2.96159585175890      0.71271191856411      0.83507047385215
  C   0.87479634963562     -1.23423608313803     -1.12913656836531
  N   0.97467620109174     -1.84923368702806     -2.12473002758607
