13
Coordinates from ORCA-job run
  C   -0.54660121158639      0.29399400362666     -0.39327372346157
  C   0.61855624435848     -0.69683976064043     -0.17532967760085
  Cl  -1.13952161341726      0.15576173902945     -2.04726699296432
  H   0.23756680798037     -1.69460084523807     -0.41990880931480
  N   -1.70703737961234     -0.12757315559119      0.54089132000199
  O   -2.41249674807651      0.77183395730500      0.96649015883418
  O   -1.82720965281500     -1.33081783592117      0.71498831470713
  C   -0.16144396349953      1.66090571150430     -0.08645907060607
  N   0.20003636416932      2.75527327214483      0.14888070934747
  C   1.03221770408958     -0.67428332834743      1.23035972705806
  N   1.34486599271778     -0.64998378340953      2.36227959570805
  C   1.73428886009045     -0.36180990346178     -1.06147271400811
  N   2.62677859560102     -0.10186007100064     -1.77917883770116
