13
Coordinates from ORCA-job run
  C   -0.40675876954480      0.57368429500157     -0.03563917623392
  C   0.71258615122124     -0.48772214744484      0.13093198141403
  Cl  -0.01099520584294      1.73817697108049     -1.26946171875441
  H   0.37919120185228     -1.17998303606455      0.91385832696211
  N   -1.68356172787224     -0.24489925943368     -0.42218722861676
  O   -2.22271484539061     -0.01261441066349     -1.48505681492274
  O   -1.98870286513500     -1.07163293511211      0.42588041412833
  C   -0.68416993605969      1.21763803765101      1.23995285654671
  N   -0.89083942506649      1.73243900912003      2.27707842910930
  C   1.95838369049986      0.15360446313276      0.55117320234084
  N   2.95445331550962      0.66708764408660      0.90232676745791
  C   0.88443224504157     -1.23608754221387     -1.11663907082890
  N   0.99869617078719     -1.84869108913993     -2.11221796860251
