13
Coordinates from ORCA-job run
  C   -0.49330283522667      0.50621253777518     -0.32550865421347
  C   0.93274717023456     -0.08664546786232     -0.25917349651580
  Cl  -0.95338626062111      0.77788497500130     -2.00444774143012
  H   1.59314311463212      0.69085076423026     -0.66658010299823
  N   -1.52186667276014     -0.47248051654404      0.29211741731577
  O   -1.13067990902739     -1.61047037638891      0.50358429304680
  O   -2.63093864716017     -0.00343518637245      0.48287982768275
  C   -0.56078919812354      1.74746031595447      0.43272669197288
  N   -0.56368524405859      2.75370684126470      1.04173163900306
  C   1.08807992368865     -1.28274388110334     -1.09042644199838
  N   1.27218203005052     -2.20793521927586     -1.78933382574095
  C   1.32117186762526     -0.33076358080475      1.13252605543541
  N   1.64632466074651     -0.48164120587423      2.25090433844028
