13
Coordinates from ORCA-job run
  C   -0.55856571858841      0.28642602513373     -0.38658761868834
  C   0.64185690327199     -0.66822133062533     -0.19768840918844
  Cl  -1.15175114787979      0.17076156107482     -2.04175838738427
  H   0.29443982874909     -1.67111409245912     -0.47018572925350
  N   -1.69543094203511     -0.20691996223158      0.54167315019592
  O   -2.38771681573766      0.65327203584435      1.06014464494080
  O   -1.80791764158476     -1.42065517530618      0.62388359816666
  C   -0.22128284923798      1.65746675600092     -0.04474153484469
  N   0.10197608082142      2.75803563652255      0.21597273231608
  C   1.05305828279012     -0.66960982340409      1.20897382699465
  N   1.35697031066385     -0.66015166186769      2.34358915977624
  C   1.74460800872050     -0.26969339903921     -1.07341495974267
  N   2.62775570004675      0.04240343035682     -1.78186047328844
