16

C	-0.366169	0.082149	-1.471011
C	0.0	0.0	0.0
F	-1.719412	0.523946	-1.610477
H	1.093939	0.0	0.0
H	-0.348933	-0.950406	0.41668
N	0.4369	1.083931	-2.103152
H	0.333078	1.038418	-3.110497
H	1.411929	0.913184	-1.864539
N	-0.2652	-1.207691	-2.09253
H	-0.527333	-1.129448	-3.069739
H	-0.909399	-1.848667	-1.644578
C	-0.517616	1.182743	0.806449
H	-0.196264	2.116168	0.342733
H	-1.608509	1.186412	0.865035
H	-0.109333	1.14882	1.819587
Br	3.713797	0.0	0.0
