16

C	-0.386821	-0.010815	-1.467513
C	0.0	0.0	0.0
F	-0.265907	1.305463	-1.978166
H	1.095843	0.0	0.0
H	-0.320009	-0.958061	0.424008
N	0.486944	-0.893212	-2.169678
H	0.402529	-0.740504	-3.168107
H	1.451755	-0.730475	-1.885729
N	-1.792139	-0.319578	-1.680561
H	-2.025283	-0.067033	-2.636091
H	-1.883368	-1.325755	-1.599266
C	-0.585987	1.166493	0.774909
H	-0.330323	1.082023	1.834044
H	-0.178754	2.108212	0.406555
H	-1.673747	1.194452	0.673832
Br	3.724205	0.0	0.0
