16

C	-0.308005	0.007253	-1.482738
C	0.0	0.0	0.0
F	-1.683992	0.038218	-1.737132
H	1.097337	0.0	0.0
H	-0.346541	-0.953347	0.406698
N	0.209732	1.229375	-2.065676
H	0.102698	1.187011	-3.074294
H	1.20375	1.273597	-1.852421
N	0.163317	-1.242003	-2.046153
H	0.160553	-1.170635	-3.058425
H	1.128254	-1.363502	-1.749278
C	-0.573767	1.181617	0.7621
H	-1.664665	1.201725	0.686651
H	-0.188504	2.120677	0.365138
H	-0.299225	1.116673	1.818371
Br	3.646833	0.0	0.0
