16

C	-0.305876	-0.016391	-1.486605
C	0.0	0.0	0.0
F	-1.693874	0.038738	-1.686604
H	1.096796	0.0	0.0
H	-0.341927	0.958764	0.404458
N	0.217745	1.138228	-2.198038
H	1.221288	1.154757	-2.026845
H	-0.16481	1.979194	-1.776352
N	0.177524	-1.233196	-2.069822
H	1.109121	-1.416241	-1.706906
H	0.253326	-1.086244	-3.070081
C	-0.580697	-1.166056	0.783989
H	-0.192125	-2.114825	0.41239
H	-0.315531	-1.082662	1.841373
H	-1.670258	-1.190038	0.69653
Br	3.639369	0.0	0.0
