16

C	-0.427521	-0.051267	-1.455049
C	0.0	0.0	0.0
F	-1.772409	0.450228	-1.52007
H	1.092081	0.0	0.0
H	-0.319068	0.977089	0.381911
N	0.315815	0.826782	-2.330202
H	1.322786	0.647325	-2.139481
H	0.117267	1.806442	-2.027821
N	-0.368105	-1.356984	-1.997416
H	-0.614489	-1.288914	-2.977296
H	-1.006286	-1.975898	-1.5125
C	-0.546854	-1.116297	0.879289
H	-0.251078	-0.954571	1.918328
H	-1.639917	-1.166155	0.839172
H	-0.130392	-2.080606	0.576077
Br	3.698271	0.0	0.0
