16

C	-0.436033	0.020259	-1.447457
C	0.0	0.0	0.0
F	0.000178	-1.220645	-2.037998
H	1.09506	0.0	0.0
H	-0.335551	0.942396	0.440799
N	-1.865416	0.078757	-1.601512
H	-2.234452	-0.833094	-1.359245
H	-2.084045	0.241558	-2.578417
N	0.183619	1.103393	-2.131402
H	0.139718	0.932234	-3.130299
H	1.165544	1.11966	-1.867065
C	-0.528175	-1.189935	0.787807
H	-1.616754	-1.158865	0.904855
H	-0.085043	-1.197252	1.78592
H	-0.249451	-2.123122	0.295844
Br	3.720293	0.0	0.0
