16

C	-0.329752	0.000772	-1.482607
C	0.0	0.0	0.0
F	-1.725524	-0.036697	-1.648755
H	1.096594	0.0	0.0
H	-0.353504	0.94349	0.426187
N	0.163106	1.209466	-2.067203
H	1.07233	1.419933	-1.667467
H	0.28165	1.049473	-3.061245
N	0.1514	-1.157474	-2.218837
H	-0.283302	-1.995436	-1.848446
H	1.151899	-1.227289	-2.0442
C	-0.553511	-1.188303	0.767998
H	-1.640721	-1.254433	0.669239
H	-0.307046	-1.097623	1.828575
H	-0.112388	-2.125883	0.420249
Br	3.65158	0.0	0.0
