16

C	-0.392491	-0.087922	-1.470251
C	0.0	0.0	0.0
F	-0.207276	1.215228	-1.997372
H	1.095736	0.0	0.0
H	-0.358078	0.95361	0.398058
N	0.425107	-1.043499	-2.121798
H	1.401088	-0.885235	-1.884161
H	0.290544	-0.971504	-3.12213
N	-1.77214	-0.392332	-1.79255
H	-1.968895	-1.328604	-1.463907
H	-2.37367	0.255513	-1.296857
C	-0.495733	-1.178625	0.827656
H	-0.167869	-2.117157	0.375938
H	-0.075373	-1.13168	1.834734
H	-1.587113	-1.195687	0.918452
Br	3.706969	0.0	0.0
