15

C	-0.603292	-0.097008	-1.457065
C	-0.013559	-0.173807	-0.047748
Cl	0.559777	0.800688	-2.552785
H	1.058546	-0.379349	-0.106112
H	-0.525926	-1.014237	0.436269
N	-0.692597	-1.464737	-2.123738
O	0.03385	-2.359179	-1.701101
O	-1.479918	-1.575885	-3.059402
N	-1.883258	0.457829	-1.407586
H	-2.206602	0.76699	-2.312801
H	-1.78864	1.220009	-0.729509
N	-0.25449	1.103236	0.606283
H	-0.558886	0.910033	1.552938
H	0.76378	1.501938	0.682427
F	2.198996	1.555366	0.707327
