15

C	-0.596159	-0.074286	-1.462971
C	-0.016552	-0.174356	-0.050885
Cl	0.579588	0.829775	-2.538785
H	1.052884	-0.38388	-0.103236
H	-0.538428	-1.017547	0.417972
N	-0.689263	-1.432771	-2.147704
O	0.03266	-2.335562	-1.735073
O	-1.473013	-1.528025	-3.088088
N	-1.872799	0.488001	-1.414601
H	-2.18876	0.811338	-2.317418
H	-1.778522	1.239809	-0.725146
N	-0.253432	1.095303	0.619338
H	0.766678	1.485731	0.702579
H	-0.56458	0.89187	1.561676
F	2.204625	1.525653	0.712733
