15

C	-0.459957	-0.049761	-1.454263
C	0.0	0.0	0.0
Cl	-0.185992	1.552107	-2.221894
H	1.088434	0.0	0.0
H	-0.36008	-0.895799	0.515211
C	0.411498	-1.079036	-2.173572
H	0.242207	-2.067332	-1.737781
H	0.160664	-1.108643	-3.234796
H	1.460501	-0.808688	-2.031945
C	-1.876439	-0.387768	-1.619865
N	-2.978779	-0.741985	-1.819669
N	-0.570678	1.150266	0.748344
O	0.172791	1.782283	1.489566
O	-1.775162	1.362734	0.59621
Cl	3.367856	0.0	0.0
