15

C	-0.436228	0.086513	-1.463466
C	0.0	0.0	0.0
Cl	-2.211081	0.42745	-1.571926
H	1.091118	0.0	0.0
H	-0.410459	-0.881101	0.485361
C	0.33586	1.116644	-2.276787
H	1.402931	0.927347	-2.132642
H	0.106079	2.117722	-1.91655
H	0.067662	1.028887	-3.330194
C	-0.240288	-1.248252	-2.040748
N	-0.087481	-2.319516	-2.500191
N	-0.475385	1.159807	0.787774
O	-0.155609	2.28578	0.41075
O	-1.16353	0.920585	1.783247
Cl	3.286676	0.0	0.0
