15

C	-0.463826	-0.034974	-1.454074
C	0.0	0.0	0.0
Cl	-0.165318	1.566747	-2.209443
H	1.088445	0.0	0.0
H	-0.367734	-0.894832	0.510424
C	0.388709	-1.071453	-2.182059
H	0.198425	-2.059253	-1.755854
H	1.442079	-0.822272	-2.035165
H	0.140301	-1.087223	-3.244898
C	-1.885026	-0.350753	-1.622309
N	-2.992402	-0.692659	-1.818494
N	-0.566029	1.154537	0.746163
O	-1.784718	1.31809	0.658969
O	0.195261	1.843156	1.415235
Cl	3.368495	0.0	0.0
