15

C	-0.454236	-0.113879	-1.46303
C	0.0	0.0	0.0
Cl	-0.325301	1.556165	-2.134761
H	1.088947	0.0	0.0
H	-0.403007	0.89017	0.47536
C	0.437989	-1.027325	-2.295054
H	1.474732	-0.716094	-2.14738
H	0.16243	-0.962006	-3.349163
H	0.327169	-2.051158	-1.946444
C	-1.864738	-0.497248	-1.565044
N	-2.991646	-0.816381	-1.654804
N	-0.47442	-1.147044	0.813613
O	-0.343821	-2.279174	0.350431
O	-0.965017	-0.888718	1.912602
Cl	3.307664	0.0	0.0
