15

C	-0.591521	0.100205	-1.405374
C	0.0	0.0	0.0
Cl	-0.195465	-1.472248	-2.200352
H	1.088664	0.0	0.0
H	-0.365578	-0.905516	0.484915
C	-2.110834	0.24706	-1.394859
H	-2.500019	0.186934	-2.412944
H	-2.548074	-0.557493	-0.799966
H	-2.385339	1.214093	-0.968864
C	-0.008838	1.157283	-2.233928
N	0.353489	2.022584	-2.941146
N	-0.461679	1.129712	0.849597
O	-0.499922	2.253448	0.340431
O	-0.758765	0.873539	2.018192
Cl	3.252768	0.0	0.0
