15

C	-0.461778	-0.063442	-1.450958
C	0.0	0.0	0.0
Cl	-0.115104	1.500747	-2.264658
H	1.088408	0.0	0.0
H	-0.34796	-0.894962	0.526283
C	0.366484	-1.147818	-2.143286
H	1.425953	-0.91923	-2.004534
H	0.120553	-1.188332	-3.204967
H	0.147932	-2.11816	-1.688048
C	-1.891031	-0.351801	-1.606206
N	-3.004304	-0.689406	-1.773285
N	-0.556908	1.149113	0.760183
O	0.118533	1.591502	1.682251
O	-1.684029	1.539923	0.451034
Cl	3.348859	0.0	0.0
