16

C	-0.623288	0.023555	-1.396812
C	0.0	0.0	0.0
Br	0.153939	1.406212	-2.513846
H	1.094903	0.0	0.0
N	-0.370468	-1.312905	-2.085782
O	-1.353916	-1.945522	-2.461389
O	0.792744	-1.648917	-2.201691
C	-2.065287	0.241601	-1.310888
N	-3.206232	0.449105	-1.112029
N	-0.429233	-1.25683	0.602103
H	-1.243135	-1.139572	1.192373
H	0.338004	-1.609232	1.159449
N	-0.381215	1.232231	0.667795
H	0.392747	1.506466	1.261144
H	-1.218547	1.119285	1.228855
F	2.579728	0.0	0.0
