16

C	-0.488845	-0.022113	-1.433753
C	0.0	0.0	0.0
Br	0.05193	-1.64083	-2.366602
H	1.095943	0.0	0.0
N	-2.030854	0.030258	-1.541561
O	-2.519197	0.207456	-2.65132
O	-2.665232	-0.115408	-0.500882
C	-0.001452	1.125233	-2.192767
N	0.361315	2.043192	-2.82985
N	-0.377254	-1.205477	0.711374
H	0.398825	-1.444353	1.315596
H	-1.218849	-1.078368	1.256116
N	-0.401872	1.293223	0.544493
H	-1.234631	1.217807	1.115315
H	0.369366	1.638517	1.102493
F	2.581345	0.0	0.0
