16

C	-0.541921	0.022495	-1.433577
C	0.0	0.0	0.0
Br	0.163923	1.536862	-2.441772
H	1.09662	0.0	0.0
N	-0.072843	-1.254269	-2.136471
O	-0.943494	-2.065244	-2.438271
O	1.126871	-1.372063	-2.308201
C	-1.997864	0.079687	-1.491765
N	-3.171902	0.143436	-1.498886
N	-0.460786	-1.239521	0.580143
H	0.271158	-1.603789	1.175531
H	-1.318926	-1.104698	1.102984
N	-0.557693	1.166063	0.712135
H	-0.107797	1.992379	0.325069
H	-0.174174	1.087737	1.651029
F	2.606379	0.0	0.0
