16

C	-0.436595	-0.18668	-1.445029
C	0.0	0.0	0.0
Br	-2.376859	-0.5888	-1.627651
H	1.099012	0.0	0.0
N	-0.145104	1.103046	-2.228297
O	-1.062875	1.843486	-2.540138
O	1.048472	1.28286	-2.431913
C	0.275749	-1.278701	-2.095241
N	0.800161	-2.191626	-2.61808
N	-0.338019	-1.146177	0.825993
H	-1.159036	-1.64681	0.511662
H	0.464105	-1.764151	0.854266
N	-0.496482	1.274561	0.473299
H	0.243706	1.669799	1.042976
H	-1.302905	1.125948	1.068424
F	2.557955	0.0	0.0
