16

C	-0.457861	-0.039855	-1.433146
C	0.0	0.0	0.0
Br	-2.42478	0.238861	-1.599565
H	1.097659	0.0	0.0
N	0.175922	1.067685	-2.292752
O	-0.005034	0.974101	-3.503696
O	0.803473	1.942908	-1.720465
C	-0.163658	-1.307206	-2.089584
N	0.042767	-2.315065	-2.657237
N	-0.414677	-1.244033	0.616989
H	0.266487	-1.482097	1.327274
H	-1.335359	-1.170256	1.036904
N	-0.433743	1.237601	0.639626
H	0.394292	1.658419	1.045068
H	-1.09265	1.033371	1.381448
F	2.559323	0.0	0.0
