16

C	-0.414725	-0.026142	-1.46869
C	0.0	0.0	0.0
Br	-2.362467	-0.022561	-1.741031
H	1.098492	0.0	0.0
N	0.183813	1.213133	-2.150455
O	-0.500812	2.218902	-2.242997
O	1.350096	1.079652	-2.499821
C	0.109373	-1.204555	-2.148554
N	0.483729	-2.19354	-2.66248
N	-0.535052	-1.209272	0.655903
H	-0.222856	-1.125258	1.620043
H	-0.010392	-2.002984	0.292064
N	-0.469145	1.20873	0.611692
H	-1.374535	1.07539	1.047628
H	0.216899	1.513951	1.288909
F	2.581268	0.0	0.0
