16

C	-0.529939	0.149797	-1.424904
C	0.0	0.0	0.0
Br	0.368679	1.599723	-2.374918
H	1.109739	0.0	0.0
N	-0.264236	-1.115592	-2.23896
O	-1.122425	-1.429822	-3.062147
O	0.789974	-1.691066	-2.034035
C	-1.966562	0.408613	-1.453799
N	-3.101106	0.700695	-1.351194
N	-0.578195	-1.26203	0.474494
H	-1.06898	-1.054626	1.335282
H	0.203881	-1.867174	0.700762
N	-0.376408	1.126064	0.837789
H	0.432084	1.729826	0.91349
H	-1.167676	1.658565	0.498101
F	2.593627	0.0	0.0
