18

C	0.0	0.0	0.0
C	-0.494335	-0.226944	-1.454037
Br	1.971144	0.0	0.0
H	-1.585425	-0.085976	-1.367885
C	-0.434842	1.371773	0.491047
H	-0.071333	1.517021	1.509276
H	-1.528829	1.397057	0.484836
H	-0.044767	2.163155	-0.150809
N	-0.46513	-0.987686	0.933144
H	-1.484545	-0.892012	0.976335
H	-0.246654	-1.922546	0.609662
C	-0.231302	-1.624276	-2.015134
H	-0.581938	-1.681008	-3.047512
H	-0.789598	-2.365257	-1.440207
H	0.834297	-1.86584	-1.993204
C	0.021454	0.788542	-2.370148
N	0.430301	1.582144	-3.134824
Br	-3.815334	0.0	0.0
