18

C	0.0	0.0	0.0
C	-0.294047	-0.433037	-1.470255
Br	1.967895	0.0	0.0
H	0.248076	0.282493	-2.099257
C	-0.496527	1.409422	0.276718
H	-1.591248	1.386444	0.283159
H	-0.149091	1.736812	1.26026
H	-0.142504	2.123236	-0.471764
N	-0.494905	-1.003353	0.904502
H	-0.330186	-0.707217	1.86124
H	-1.508316	-1.050913	0.777534
C	-1.757338	-0.446052	-1.914851
H	-2.334981	-1.235156	-1.440816
H	-1.780489	-0.589257	-2.998966
H	-2.266812	0.485084	-1.680488
C	0.285148	-1.753701	-1.748757
N	0.691462	-2.811553	-2.057064
Br	-4.464054	0.0	0.0
