18

C	0.0	0.0	0.0
C	-0.511795	0.064407	-1.453086
Br	1.965971	0.0	0.0
H	-1.606966	0.139982	-1.336346
C	-0.418068	1.247438	0.772506
H	-1.511384	1.283335	0.769281
H	-0.011542	2.158261	0.328159
H	-0.062521	1.176006	1.804229
N	-0.475008	-1.236425	0.5735
H	-1.498658	-1.197557	0.506278
H	-0.245286	-1.241684	1.562319
C	-0.187069	-1.170457	-2.294392
H	-0.55731	-2.057948	-1.783956
H	-0.672572	-1.08744	-3.269582
H	0.890364	-1.268668	-2.44122
C	-0.054594	1.277416	-2.128274
N	0.310928	2.230983	-2.709401
Br	-3.823473	0.0	0.0
