18

C	0.0	0.0	0.0
C	-0.344856	0.219668	-1.492347
Br	2.045676	0.0	0.0
H	0.241231	1.078343	-1.837023
C	-0.476611	1.138809	0.874125
H	-1.569739	1.106546	0.906178
H	-0.084837	1.026032	1.887649
H	-0.140403	2.099274	0.48075
N	-0.514421	-1.220611	0.449164
H	-0.16998	-2.02961	-0.049067
H	-0.45208	-1.345597	1.449226
C	-1.838991	0.468492	-1.728016
H	-2.045963	0.462671	-2.801219
H	-2.14156	1.43619	-1.330084
H	-2.468904	-0.274831	-1.240922
C	0.099924	-0.940011	-2.271993
N	0.413697	-1.881134	-2.901084
Br	-4.909008	0.0	0.0
