18

C	0.0	0.0	0.0
C	-0.494382	-0.225476	-1.454235
Br	1.971103	0.0	0.0
H	-1.585467	-0.084477	-1.367857
C	-0.434752	1.371333	0.492441
H	-0.044597	2.163343	-0.148587
H	-0.071227	1.515498	1.510824
H	-1.528717	1.396702	0.486284
N	-0.465162	-0.988566	0.932188
H	-1.484582	-0.892869	0.975403
H	-0.246736	-1.923127	0.60778
C	-0.231568	-1.622311	-2.016698
H	0.834035	-1.864184	-1.994898
H	-0.582121	-1.677887	-3.049162
H	-0.790145	-2.363726	-1.442504
C	0.021462	0.790831	-2.369362
N	0.430435	1.585095	-3.133253
Br	-3.815252	0.0	0.0
