18

C	0.0	0.0	0.0
C	-0.275471	0.285552	-1.521221
Br	1.982149	0.0	0.0
H	0.335688	1.151938	-1.797367
C	-0.506698	1.133155	0.869043
H	-0.146727	2.098211	0.508031
H	-1.602035	1.122415	0.856856
H	-0.164426	0.97978	1.89314
N	-0.4966	-1.24145	0.500347
H	-0.310678	-2.001799	-0.144914
H	-1.504272	-1.157007	0.634663
C	-1.73096	0.565139	-1.88716
H	-2.393987	-0.259033	-1.638468
H	-2.115321	1.431501	-1.353181
H	-1.793193	0.760513	-2.961093
C	0.204685	-0.845975	-2.320853
N	0.531379	-1.766312	-2.973953
Br	-4.468079	0.0	0.0
