14
Coordinates from ORCA-job run
  C   0.78759906159499      0.12022251469959      0.13154695768804
  C   -0.64303089975288     -0.10268015126036     -0.40700152233869
  Br  0.99742744390434     -1.11146752626015      1.74595785082025
  H   -0.70439274545345      0.52823882217616     -1.30108062219361
  N   0.94655752127113      1.48210324692210      0.42246017743509
  H   0.17958522677335      1.80494284523850      1.00163523010678
  H   1.84787567335903      1.70526505059738      0.82246100354027
  C   1.78858745514112     -0.34650105730617     -0.82331028766817
  N   2.58440583980024     -0.69719429228217     -1.61401628247685
  N   -1.59376847168061      0.40408187880202      0.56634662838177
  H   -2.48371048065710      0.59002539433753      0.12120670838273
  H   -1.73789237659316     -0.27918146074244      1.30094830565549
  C   -0.85904708071101     -1.49890649173940     -0.81849320638552
  N   -1.11119616699598     -2.59794877318260     -1.14866094094760
