14
Coordinates from ORCA-job run
  C   0.75783066817704      0.27671786337728      0.42345632337157
  C   -0.76913231978135      0.05457721032202      0.19548927800241
  Br  1.03423277027995      0.43582330727563      2.35528233458971
  H   -1.27851215535967      0.87746345856633      0.70772739928533
  N   1.31868733503266      1.44209910513146     -0.20005833529541
  H   0.84872885037971      2.28332010515742      0.11314083455193
  H   1.27472511798329      1.37230946729985     -1.21113616974858
  C   1.46246085608453     -0.91788003637939     -0.04928333712580
  N   1.95985452931926     -1.89364149274108     -0.47561340988472
  N   -1.21501287160629     -1.19600033509521      0.76240324241197
  H   -2.22024572931273     -1.20403393024520      0.87570922743582
  H   -0.94963124402512     -1.97789829062032      0.17474770736664
  C   -1.01746116499196      0.19240686172328     -1.25617005025125
  N   -1.20652464217931      0.25773670622793     -2.41469504470963
