14
Coordinates from ORCA-job run
  C   0.91289405648781     -0.50522043394107      0.60368145367851
  C   -0.25116206114847     -0.11996660714180     -0.30928912130863
  F   0.89526623581985      0.23355402158522      1.76783114589317
  H   -0.26030668530765     -0.87819943153526     -1.11136746911409
  H   0.83247097103579     -1.56203430734399      0.88076424167604
  C   2.19737017944381     -0.29342029922392     -0.08338589595014
  N   3.19112653350685     -0.13519312336081     -0.68710495705467
  N   -0.04714243679393      1.23819318527910     -0.79123810526116
  H   0.65799898276333      1.26481174904984     -1.51818014295273
  H   -0.90729619609054      1.60182503352960     -1.18085512401244
  C   -1.55836155248589     -0.19955594322192      0.46487432701681
  H   -1.68836018412123     -1.17960448820947      0.92934258974641
  H   -2.40455191139039     -0.03128107397267     -0.20581739040340
  H   -1.56894593171937      0.56509171850716      1.24174444804632
