14
Coordinates from ORCA-job run
  C   1.24694320905789     -0.13013658818661      0.04198468156586
  C   -0.21316770414749     -0.15459533351597     -0.41662910277352
  F   2.05357039677398     -0.58326062081427     -0.98373747044653
  H   -0.41832134657708     -1.18756425343850     -0.72367012560912
  H   1.53615496046475      0.90188850869609      0.26143824974945
  C   1.46388008087479     -0.99235251081598      1.21838778610615
  N   1.58729964643912     -1.67079668617015      2.16825950226569
  N   -0.32387924683649      0.75404428489368     -1.55198543369912
  H   -0.96197850344631      1.51075553321433     -1.35164076662749
  H   -0.63644543389923      0.27984136309743     -2.38501236345447
  C   -1.15124669455184      0.23520637778137      0.72179042895264
  H   -2.18412163011617      0.18813962558659      0.37666189916096
  H   -0.95107289263248      1.26395687154904      1.03590891728542
  H   -1.04961484140344     -0.41612657187705      1.58824379752409
