14
Coordinates from ORCA-job run
  C   1.19642407230165     -0.06039547398527      0.04413780605091
  C   -0.26330772446793     -0.12138103036660     -0.37901180188596
  F   1.99833199818816     -0.37332439298416     -1.04715673685611
  H   -0.45276625138401     -1.15508802885346     -0.71045695681901
  H   1.44396010629158      0.95987377608412      0.35088957453740
  C   1.49466205864458     -1.00480672007576      1.12978502495706
  N   1.70507493408265     -1.75886635833428      2.00388179131513
  N   -0.42448702597220      0.87002122503907     -1.43569683292407
  H   -1.39503159726632      0.90896083012789     -1.72251111007822
  H   0.12445349362760      0.60291130277230     -2.24386896625835
  C   -1.17755787640007      0.21560608168567      0.78782170338454
  H   -1.07213801827709     -0.50071187842789      1.60456709224670
  H   -2.22020567843406      0.19649636771618      0.46109731602651
  H   -0.95941249093453      1.22070429960222      1.15652209630348
