14
Coordinates from ORCA-job run
  C   1.04383730400124     -0.73721400321783     -0.09158405607626
  C   -0.31827771575189     -0.17064399666879     -0.49101372189730
  F   0.89418613049837     -2.04022823758825      0.35980173629408
  H   -0.74810223574545     -0.90135614488513     -1.19250747408053
  H   1.70888837888298     -0.76587052180675     -0.96030961395163
  C   1.67419445750322      0.06660758561647      0.96546268492498
  N   2.17003782500994      0.68698590859440      1.82894420772008
  N   -0.06441284574197      1.13336988044629     -1.09054193507976
  H   -0.87260721966244      1.73407286366980     -0.99778606665996
  H   0.15016320016647      1.04944525546764     -2.07613758798728
  C   -1.23527974705312     -0.03992688084119      0.71215807883348
  H   -0.86266278674041      0.73254582611294      1.38915216708055
  H   -1.29842173421946     -0.98347261661770      1.25556444363880
  H   -2.24254301114747      0.23568508171810      0.38979713724076
