14
Coordinates from ORCA-job run
  C   0.94452337247830     -0.39734203421496      0.47796769374236
  C   -0.36274446754598     -0.17708781309327     -0.29529361193819
  F   1.13385358804853      0.65906209882754      1.35996058194077
  H   -0.46470002774968     -1.02404499524668     -0.98422023528075
  H   0.91237422882185     -1.31769676344477      1.06982412234558
  C   2.09255493709700     -0.45090993088902     -0.43895817420073
  N   2.99401924713247     -0.52699552860589     -1.18649118049446
  N   -0.36825626050461      1.04101913440912     -1.08672629828438
  H   0.33146130019842      1.00686443087870     -1.81878555370366
  H   -0.16440781439259      1.83654546594551     -0.49319009419045
  C   -1.53980859145421     -0.16920346608359      0.67100995577695
  H   -1.59186532881413     -1.09612871914515      1.24755570849340
  H   -2.46469720138257     -0.04942153057921      0.10728323297026
  H   -1.45230698193279      0.66433965124167      1.37106385282328
