16

C	0.0	0.0	0.0
C	-0.501598	-0.129053	-1.442447
Br	1.980341	0.0	0.0
H	-0.212614	0.721729	-2.055659
H	-1.599741	-0.199432	-1.285142
C	-0.435355	1.376058	0.489399
H	-0.019176	2.173545	-0.1302
H	-0.096731	1.500486	1.519215
H	-1.529755	1.352309	0.441572
N	-0.511789	-0.982775	0.908664
H	-1.53577	-0.80163	0.82534
H	-0.346797	-1.902536	0.511432
N	-0.001257	-1.318951	-2.160047
O	-0.172372	-2.428998	-1.649815
O	0.555701	-1.142783	-3.246966
F	-2.879421	0.0	0.0
