16

C	0.0	0.0	0.0
C	-0.178413	0.254714	-1.527958
Br	1.987417	0.0	0.0
H	0.19989	1.243172	-1.785291
H	0.377807	-0.509381	-2.069943
C	-0.453781	1.179456	0.83674
H	-0.0086	2.112375	0.485296
H	-1.546154	1.17668	0.733414
H	-0.168582	1.006678	1.876511
N	-0.570065	-1.198204	0.490141
H	-0.422829	-1.939653	-0.187902
H	-1.604997	-0.929843	0.451343
N	-1.548923	0.178199	-2.122572
O	-1.941995	-0.94015	-2.441435
O	-2.105033	1.236804	-2.39534
F	-2.811608	0.0	0.0
