16

C	0.0	0.0	0.0
C	-0.525986	0.122542	-1.443955
Br	1.951403	0.0	0.0
H	-0.038217	0.922297	-2.002848
H	-1.611617	0.250178	-1.304867
C	-0.4614	1.253126	0.732652
H	-0.089565	1.220241	1.757787
H	-1.555433	1.194671	0.707764
H	-0.094373	2.158403	0.241556
N	-0.540315	-1.14253	0.687544
H	-0.299557	-1.991038	0.187166
H	-1.568451	-0.967028	0.582559
N	-0.354333	-1.120299	-2.253382
O	0.78293	-1.560843	-2.427093
O	-1.369292	-1.633492	-2.724869
F	-2.904198	0.0	0.0
