16

C	0.0	0.0	0.0
C	-0.51875	0.119873	-1.431677
Br	1.962302	0.0	0.0
H	-1.611932	0.232844	-1.284123
H	-0.260623	-0.780555	-1.982401
C	-0.420926	1.165416	0.892365
H	-0.018278	2.120448	0.558214
H	-1.51479	1.153861	0.849387
H	-0.073671	0.967911	1.911544
N	-0.537616	-1.264338	0.443705
H	-0.31955	-1.359322	1.432119
H	-1.56466	-1.05915	0.374206
N	0.016118	1.255375	-2.211694
O	0.65003	0.994575	-3.238144
O	-0.218432	2.400122	-1.822295
F	-2.886955	0.0	0.0
