16

C	0.0	0.0	0.0
C	-0.144287	0.158945	-1.539806
Br	2.052034	0.0	0.0
H	0.224391	1.133792	-1.85672
H	0.421543	-0.63445	-2.026781
C	-0.428658	1.234997	0.761072
H	-1.521408	1.243977	0.662054
H	-0.143425	1.124828	1.808909
H	0.026647	2.137641	0.348914
N	-0.57886	-1.151102	0.553071
H	-1.618637	-0.862031	0.504963
H	-0.456416	-1.933361	-0.083401
N	-1.51502	0.025372	-2.128262
O	-2.081484	1.052852	-2.48652
O	-1.902874	-1.120064	-2.346707
F	-2.804355	0.0	0.0
