16

C	0.0	0.0	0.0
C	-0.4611	0.016618	-1.457798
Br	2.055773	0.0	0.0
H	-1.562292	-0.061768	-1.332418
H	-0.158016	0.923078	-1.977112
C	-0.408409	1.326233	0.619119
H	-1.503095	1.321535	0.567453
H	0.019529	2.174169	0.08031
H	-0.073297	1.345791	1.657019
N	-0.508873	-1.062354	0.798033
H	-1.534234	-0.851597	0.741251
H	-0.362745	-1.934497	0.30089
N	0.039754	-1.100906	-2.286229
O	0.54778	-0.822597	-3.374779
O	-0.090223	-2.25192	-1.865099
F	-2.850302	0.0	0.0
