13

C	-0.529475	0.016772	-1.425516
C	0.0	0.0	0.0
F	-1.926787	0.104378	-1.38989
H	1.092746	0.0	0.0
H	-0.341127	0.935679	0.460349
C	-0.055088	1.188269	-2.184456
N	0.277623	2.129633	-2.801264
C	-0.197963	-1.219038	-2.154558
N	0.021889	-2.207254	-2.748191
N	-0.495934	-1.19816	0.660707
H	-1.227703	-0.98343	1.319723
H	0.27055	-1.636075	1.152664
Cl	3.360268	0.0	0.0
