13

C	-0.538869	-0.000441	-1.422116
C	0.0	0.0	0.0
F	-1.936409	0.07879	-1.375934
H	1.092838	0.0	0.0
H	-0.339093	0.940434	0.452288
C	-0.076326	1.167344	-2.194278
N	0.274257	2.098566	-2.817016
C	-0.204092	-1.241296	-2.140885
N	0.043611	-2.233497	-2.716113
N	-0.493083	-1.191104	0.676141
H	-1.22356	-0.971043	1.335561
H	0.275034	-1.623708	1.169566
Cl	3.365552	0.0	0.0
