13

C	-0.534653	-0.009354	-1.423066
C	0.0	0.0	0.0
F	-1.932571	0.066856	-1.380605
H	1.093401	0.0	0.0
H	-0.339481	0.943474	0.446497
C	-0.076182	1.157047	-2.199631
N	0.221715	2.113424	-2.811758
C	-0.196381	-1.252895	-2.135483
N	0.035886	-2.231703	-2.739888
N	-0.489981	-1.189185	0.679424
H	-1.25225	-0.976698	1.305539
H	0.26919	-1.598077	1.206843
Cl	3.362751	0.0	0.0
