13

C	-0.542359	0.019632	-1.418735
C	0.0	0.0	0.0
F	-1.941938	-0.052105	-1.372941
H	1.093598	0.0	0.0
H	-0.339439	-0.946154	0.440321
C	-0.203833	1.268423	-2.123764
N	0.003946	2.261618	-2.712713
C	-0.08855	-1.137952	-2.206103
N	0.249935	-2.078339	-2.82203
N	-0.48389	1.184579	0.689905
H	0.272844	1.580603	1.23001
H	-1.253845	0.971883	1.305713
Cl	3.363077	0.0	0.0
