17
Coordinates from ORCA-job run
  C   -0.52564983894895      0.20785829824288      0.58161425526544
  C   0.92328731335860      0.07320260703057      0.10223647394614
  F   -0.55212539794826      0.19675655549542      1.94081622967055
  H   1.52659042946872      0.65548294550004      0.80525766255199
  C   -1.21466703103858      1.45386142303147      0.08356719992804
  H   -0.63877878267870      2.32718447525129      0.39153407094389
  H   -1.29304281677167      1.45208317921038     -1.00099466885161
  H   -2.20640385945977      1.49681614971061      0.53816004348449
  N   -1.33785586222790     -0.98287640822571      0.09963586007208
  O   -2.19033503933186     -1.43514066422294      0.84322455750723
  O   -1.09601746592227     -1.33866349866796     -1.05304484911263
  N   1.13589829092830      0.53480717208045     -1.21685829622751
  H   2.12380936488410      0.56533044960024     -1.42765213596063
  H   0.67442106822327     -0.07645763749948     -1.87888454234944
  N   1.42078910806542     -1.37348900258108      0.33409032894689
  O   0.87995302604384     -2.03157226948382      1.21484271215119
  O   2.36912749335570     -1.72418377447236     -0.35854490196612
