17
Coordinates from ORCA-job run
  C   -0.65529962953500      0.00288377867431      0.52861716436790
  C   0.80005148711663     -0.45391903685237      0.33932924691755
  F   -0.90903738694374     -0.06939737641556      1.86457507563650
  H   0.91284171618757     -1.40590146623348      0.85983932898984
  C   -0.98744756983513      1.37500317842627      0.01709136610645
  H   -0.74667412993726      1.47719323757581     -1.03864211650236
  H   -2.05173531060851      1.56429613846883      0.15884609896163
  H   -0.42207141733168      2.09821962770632      0.60520627886672
  N   -1.53996947296273     -1.05523716612097     -0.12431766592456
  O   -1.71911461484490     -2.08242298092711      0.51704198112470
  O   -1.95995110119349     -0.80535241059900     -1.25020937429350
  N   1.69742301284156      0.52391151052392      0.83074887975328
  H   2.60730502979644      0.12540108498781      1.01818080752304
  H   1.79708343872604      1.28562487332084      0.17109034612047
  N   1.00890901439271     -0.78312190370833     -1.14156560305941
  O   0.81035397766653     -1.94352413668190     -1.48742491086089
  O   1.35633295646496      0.14634304785462     -1.86740690372736
