17
Coordinates from ORCA-job run
  C   -0.58979528598049     -0.09236428552199      0.18547174658301
  C   0.83091863922341     -0.07272485094621     -0.40137281336504
  F   -0.82931979366256     -1.32863293822026      0.70126647736468
  H   0.99438694624757      0.87738544958410     -0.90585390203320
  C   -0.93946012643260      0.96825229718628      1.19376073552399
  H   -2.00051567443557      0.88888792836868      1.43838404943651
  H   -0.35911492390661      0.81048056653075      2.10260958378132
  H   -0.72660475098524      1.96044336779918      0.79940126699214
  N   -1.50135363317777      0.06399364695452     -1.02723256316074
  O   -1.36037217300863      1.11415026142889     -1.64756707117587
  O   -2.27592074450059     -0.84490168349157     -1.28729239384750
  N   1.14419347533740     -1.16558346325608     -1.24800600691590
  H   0.94498728236560     -0.97374220704949     -2.21775701720637
  H   0.72247576717291     -2.03180034003679     -0.94517862289401
  N   1.76701075920195     -0.06422468518680      0.78875163540536
  O   2.11095076210881      1.04142688340805      1.20350277287829
  O   2.06653347443241     -1.15104594755124      1.26711212263333
