17
Coordinates from ORCA-job run
  C   -0.63485300704675     -0.10458880181105      0.17943080807796
  C   0.74644839761828     -0.04607556026041     -0.47222704822988
  F   -0.79049401597918     -1.33686318929551      0.74022719474963
  H   0.85750361013400      0.89898695061275     -1.00146856235946
  C   -0.98111607113143      0.96415048052236      1.18096474808566
  H   -2.02957575378225      0.84855974504626      1.46233919034694
  H   -0.36496235876255      0.84806775597580      2.07177048423530
  H   -0.82169453540546      1.95470757165681      0.75900361559461
  N   -1.61796122972446     -0.00944414181514     -0.98311923615656
  O   -2.40048725086908     -0.93067473143978     -1.14716532515308
  O   -1.53787529017569      1.02487947366861     -1.63686523174983
  N   0.91256729092506     -1.15335176972247     -1.32873451146978
  H   1.76476353852822     -1.09541076955547     -1.86788300931772
  H   0.88685441707678     -2.02421912173571     -0.81525084178650
  N   1.76337779138811      0.03192669210407      0.67428367535280
  O   2.23813478193883     -1.02609263077026      1.07504271052102
  O   2.00836968526758      1.15444204681915      1.11065133925890
