17
Coordinates from ORCA-job run
  C   -0.49820538005036      0.14336873522565      0.62512561248166
  C   0.92594619993532      0.11562573347990      0.05864287744612
  F   -0.44724119248948      0.04767134529816      1.98005754725664
  H   1.54228146208219      0.67170986979704      0.77139904703384
  C   -1.27809634201458      1.37779838067433      0.24631436044877
  H   -1.41910354549358      1.43863970297726     -0.83016489254590
  H   -2.24287460287775      1.33750273128074      0.75591047930806
  H   -0.73140343237561      2.26106166900350      0.57800466661350
  N   -1.27373653987280     -1.05875950317743      0.11174285072786
  O   -2.05178612605689     -1.60812714230766      0.87145185479179
  O   -1.08503787389813     -1.32272013486736     -1.07510843328553
  N   1.03960441746193      0.68246852598948     -1.23081158059918
  H   0.56988840958632      0.09754038099679     -1.91073137233251
  H   2.01073874468727      0.77741329120293     -1.49383492179500
  N   1.49485352267186     -1.32067111442568      0.15138388455054
  O   2.37316245571751     -1.60012303930374     -0.65609685956275
  O   1.07200982298678     -2.04239943184392      1.04671487946206
