17
Coordinates from ORCA-job run
  C   -0.54333233986305      0.11070763600180      0.46808163155625
  C   0.95784484173859      0.03224804413151      0.14166302355104
  F   -0.67602220508494     -0.11713578659862      1.80440425721414
  H   1.44249487524696      0.79125646255269      0.75784243739398
  C   -1.15757590017681      1.43847115659340      0.10691999585670
  H   -2.20801172244341      1.43877691260098      0.40380404617847
  H   -0.64120469094097      2.23052523036968      0.65243148107168
  H   -1.08815686250058      1.61955352659269     -0.96370900373709
  N   -1.32567674798860     -0.98250339548403     -0.24659564194631
  O   -1.91439623936558     -1.80757945918609      0.43031931435202
  O   -1.31970404778624     -0.90355521146932     -1.47358983071588
  N   1.37206576161844      0.14153675093038     -1.21108485064323
  H   0.71484599339192     -0.27179662423336     -1.85692781771970
  H   1.60651624639497      1.08645211351905     -1.47052578697622
  N   1.46824554962359     -1.28156057789416      0.69617957145707
  O   2.28418423336224     -1.23417242144821      1.60927898018330
  O   1.02988325477349     -2.29022435697840      0.15150819292376
