17
Coordinates from ORCA-job run
  C   -0.64744358798200     -0.04071628262212      0.16227177520979
  C   0.75584458338706     -0.15101954307945     -0.43396308256276
  F   -0.91285394534003     -1.18813351034252      0.84763803581562
  H   0.95226842613678      0.71763075786341     -1.06033145940064
  C   -0.94508994264504      1.15499183805947      1.02624228438739
  H   -2.00789740761369      1.14633076029558      1.27567941728078
  H   -0.69818380555901      2.07883909360411      0.50630891586437
  H   -0.36882456700494      1.09498120790684      1.94878037903379
  N   -1.58104103474161     -0.00759515154453     -1.04364448287791
  O   -2.42274910657009     -0.88543098323825     -1.13911003936426
  O   -1.40354283171073      0.93922141209986     -1.80212000990502
  N   0.87115768087136     -1.35831433285974     -1.15266147489518
  H   0.76218924380562     -2.16014235806586     -0.54605311805485
  H   1.74410316692238     -1.42195656245011     -1.65684576662077
  N   1.73584297554103     -0.01039041783741      0.73775229260763
  O   2.10824366405826     -1.04439272832985      1.28344344222684
  O   2.05697648844464      1.13509680054055      1.04661289125519
