17
Coordinates from ORCA-job run
  C   -0.51817507727302      0.15117978171804      0.60528285956657
  C   0.92072175917788      0.11884138928644      0.08004551778076
  F   -0.50276046356492      0.07505644179525      1.96258180214656
  H   1.51260547145991      0.70091447913492      0.79287329454423
  C   -1.28751090606988      1.37953111847085      0.18741540200187
  H   -2.26585644049442      1.34675471904306      0.67094917002134
  H   -0.74999089054025      2.26767534363657      0.52129017582890
  H   -1.39842692819567      1.42440907568446     -0.89336363380170
  N   -1.27965538866353     -1.05838669021264      0.08894763565536
  O   -1.05359774268136     -1.34655803041980     -1.08560349581632
  O   -2.08401957137318     -1.59089381304970      0.83303537612548
  N   1.06812807135655      0.65209216458116     -1.22092567301685
  H   2.04621315684857      0.74602614581296     -1.45731755982528
  H   0.62005860851539      0.04772451842672     -1.89832498607331
  N   1.50193508742556     -1.30717535144570      0.22849984393740
  O   1.02320966405943     -2.03510646797326      1.09004684816555
  O   2.44712159001294     -1.57208482448932     -0.50543257724058
