17
Coordinates from ORCA-job run
  C   -0.59839578041036     -0.11072119622023      0.14260486578564
  C   0.85808586289560     -0.04614891969555     -0.34498970856408
  F   -0.83842148841588     -1.35895799899566      0.62880886780968
  H   1.02865969187050      0.91266235837879     -0.83030619544755
  C   -1.04463997596133      0.92782096795674      1.13568603482241
  H   -0.82656148689542      1.93031096303742      0.77152515889721
  H   -2.11839263560140      0.82134308360703      1.30213476458910
  H   -0.52786985246514      0.76855862073814      2.08198755096241
  N   -1.42909237484889      0.03568156254723     -1.12773944662150
  O   -1.27409872816136      1.09591587386446     -1.72696832188934
  O   -2.16151224902079     -0.88907368662377     -1.44712548497680
  N   1.25913406211428     -1.12245806255986     -1.17567590136385
  H   1.12333974737053     -0.92759900863509     -2.15570146389488
  H   0.84135597463722     -2.00234855935759     -0.90894451695905
  N   1.70949521755773     -0.02184230577366      0.90627877559990
  O   2.00385415843885     -1.10354165839130      1.39924659523979
  O   1.99405985689589      1.08939796612290      1.35017842601093
