17
Coordinates from ORCA-job run
  C   -0.54449777990617      0.05087111454614      0.54091560237164
  C   0.90260174929262      0.13513392942086      0.06236276127534
  F   -0.50200926826861     -0.31809110320661      1.85189997100560
  H   1.40605765519129      0.82777181700471      0.73994110301112
  C   -1.28919152970234      1.35159816872935      0.38709561571964
  H   -1.34833426980617      1.63315123478705     -0.66176259153365
  H   -0.76373317264468      2.13123082525590      0.94085832354987
  H   -2.29073284161291      1.23450369561796      0.80563068285385
  N   -1.34234626523326     -1.02029958758189     -0.19270515036283
  O   -1.32738694313481     -0.93379559815371     -1.41762713378631
  O   -1.97721550152510     -1.81528495671216      0.47685740004038
  N   1.05388728546397      0.57338423189964     -1.27577089647156
  H   2.02515492846583      0.73769624050696     -1.50353560887879
  H   0.62186896884311     -0.06178983869286     -1.93325117226248
  N   1.60634403533074     -1.19251632171623      0.34910860035051
  O   2.76569452098749     -1.10569181250664      0.74600271807041
  O   1.00283842825899     -2.22887203919846      0.08497977504726
