17
Coordinates from ORCA-job run
  C   -0.61855496385051     -0.06092459288316      0.42731964875979
  C   0.84955973728007     -0.50736569673131      0.25154341643488
  F   -0.85657198559877     -0.15504790767789      1.77474219504974
  H   0.91166868777252     -1.53804965028232      0.60413289777614
  C   -0.98594784199601      1.31138702089404     -0.05533790955018
  H   -2.03922032330349      1.49389053798507      0.16060883049034
  H   -0.39020375121502      2.04684860453804      0.48633981462566
  H   -0.81819180220817      1.42162289585801     -1.12326916087110
  N   -1.48658329024436     -1.12595069544733     -0.22899126614085
  O   -1.97865115543179     -0.85094168914071     -1.31921456065836
  O   -1.57805570167498     -2.18868473300064      0.37326138912045
  N   1.83333365731160      0.29520585784803      0.89944183256415
  H   1.80200773394811      1.25731151614200      0.59059219004066
  H   1.72956554771477      0.23970683085517      1.90346106636718
  N   1.14674941717538     -0.54245636784267     -1.21964315051729
  O   1.53115987353708      0.50871290086907     -1.72559680673514
  O   0.94893616078357     -1.60526483198339     -1.80139042675605
