17
Coordinates from ORCA-job run
  C   -0.52402179097001      0.10145381413933      0.56065584985748
  C   0.92198394419558      0.14035900489694      0.05666708925994
  F   -0.49151943058664     -0.23934174119518      1.87647914443377
  H   1.47354937676223      0.79147501689443      0.73778397250527
  C   -1.26318412438565      1.39794279533732      0.37158154363323
  H   -2.26285731517558      1.29993604245544      0.79952050413343
  H   -0.72753840720005      2.18708631829375      0.90190824993581
  H   -1.32826692346029      1.65286368425298     -0.68240167349192
  N   -1.28438892345688     -1.01155204797744     -0.15856256647877
  O   -1.63862344760923     -1.97894988670053      0.49603189312729
  O   -1.47917491113586     -0.81982967002754     -1.35605998784514
  N   1.03381172259856      0.57832838485274     -1.28049425569775
  H   0.56159807682081     -0.04955040587801     -1.91826026420977
  H   2.00089605414676      0.68957962207195     -1.55310667440460
  N   1.52546189874329     -1.24774003356924      0.32373411007589
  O   2.16846336466360     -1.38953078790444      1.35844348306194
  O   1.31481083604937     -2.10253010994251     -0.53392041789609
