17
Coordinates from ORCA-job run
  C   -0.62843948872826     -0.10022127339288      0.20335603653727
  C   0.72948549605529     -0.05540263158835     -0.49664794313545
  F   -0.76596463857487     -1.32221544108842      0.79065320156819
  H   0.82326636860196      0.88023299884530     -1.04567706957261
  C   -0.93905411074714      0.98630834082525      1.19731943145116
  H   -0.28988509015096      0.88795430371026      2.06652452813771
  H   -0.79784881768032      1.96906430010289      0.75123213042212
  H   -1.97606751316121      0.87431531395413      1.51968105494974
  N   -1.65083931280912     -0.02384303333081     -0.92610181768562
  O   -1.59230515070316      0.99843790768430     -1.60069980832596
  O   -2.43995915756660     -0.94613131944289     -1.04656726127359
  N   0.86481053549546     -1.17761466394756     -1.33910685448915
  H   0.85776796875935     -2.03922109303328     -0.80959717052453
  H   1.69738725175458     -1.12947165938529     -1.90904278758363
  N   1.78649179952587      0.04053926176087      0.61187213265169
  O   2.04753574617459      1.16957714130960      1.02102043899083
  O   2.27461811375453     -1.01130845298313      1.01278175788183
