17
Coordinates from ORCA-job run
  C   -0.55257608643915      0.10637183354795      0.55099658122095
  C   0.87486191590776      0.09856941266615     -0.01955210946512
  F   -0.55679103842323     -0.34992255868063      1.83368046327795
  H   1.41844046431891      0.91694938924793      0.45614175100992
  C   -1.18303766009885      1.46790009784724      0.48170337661351
  H   -0.63266287697703      2.12970315342607      1.15329378093622
  H   -2.21950762041273      1.41007716685627      0.81369917943734
  H   -1.14794636840143      1.85435278720336     -0.53344777185644
  N   -1.36330028680544     -0.91306189261400     -0.24489570565204
  O   -2.20544734751506     -0.49375764839107     -1.03195738599054
  O   -1.07129351196618     -2.08784542619491     -0.04036347410694
  N   0.84082565607399      0.26026739410411     -1.42619105272952
  H   0.56792612201629     -0.60227559374922     -1.88319280970447
  H   1.74651300655459      0.53224054770732     -1.78363077266865
  N   1.63642249159809     -1.15153942029303      0.44779632392954
  O   1.80479663892421     -2.04308740942458     -0.37784528078041
  O   2.04177650164525     -1.13594183325896      1.60376490652870
