17
Coordinates from ORCA-job run
  C   -0.64053296824185     -0.06878213262170      0.54212891692168
  C   0.79006586049203     -0.53435906683347      0.22727157354662
  F   -0.86164022770283     -0.36879823325227      1.85188168205867
  H   0.87891207396671     -1.56700478145555      0.56738250029242
  C   -0.93096338708101      1.38309302498109      0.29238374559110
  H   -0.32323434581052      1.96960672727316      0.98180071882970
  H   -1.98315308338265      1.58117586500638      0.49791425174192
  H   -0.71161688210553      1.66358613940960     -0.73536541672740
  N   -1.58375524920669     -0.96258877477762     -0.25809215500342
  O   -1.78876549433498     -2.07989000147983      0.19812015521870
  O   -2.02119132866372     -0.50234001912530     -1.30843355827458
  N   1.73797910323231      0.30952543781533      0.85378385765617
  H   1.85142330507477      1.17153346909232      0.33470707632569
  H   2.63570909577678     -0.14733632661873      0.93887404159191
  N   0.94684342163663     -0.60240618452872     -1.29451225320786
  O   1.31309444566917      0.42812541130907     -1.85600334278032
  O   0.69182566068137     -1.67514055419374     -1.83284179378100
