17
Coordinates from ORCA-job run
  C   -0.62420722985689     -0.14898090294224      0.18522536750184
  C   0.73503359495705      0.02798949088219     -0.49145705088312
  F   -0.70592783384995     -1.42695870736034      0.65146905989022
  H   0.78720394146648      1.01614283157993     -0.94573820850627
  C   -0.99367716835831      0.82109413013055      1.27492998858132
  H   -0.34843344968679      0.66786314087674      2.13912442945333
  H   -0.89350337201416      1.84782779091488      0.92783165414864
  H   -2.02727737095521      0.63227394292587      1.57128427942103
  N   -1.64101964596004     -0.01347488159903     -0.94348897112200
  O   -2.38151399220329     -0.95758101599308     -1.16297701532741
  O   -1.62841451695098      1.07125323748654     -1.51512085642888
  N   0.93022464601336     -0.99953666393686     -1.43651092497891
  H   0.95773980475864     -1.90801957347299     -0.99298542409325
  H   1.76485027588549     -0.85930225768067     -1.98790962329716
  N   1.77705634146563      0.06527576971135      0.63443488840741
  O   2.30870111294468     -0.99701661929437      0.94126401602439
  O   1.98216486234429      1.16115028777154      1.15162439120882
