17
Coordinates from ORCA-job run
  C   -0.49861562345577      0.04035658738228      0.52469356004723
  C   0.96274593544486      0.08429112509318      0.04796867564446
  F   -0.47889083617739     -0.28844717030187      1.84639654455911
  H   1.46122316675204      0.83081592739541      0.66836656807606
  C   -1.22348698584097      1.34695104562952      0.32848402611945
  H   -2.23659605686615      1.25601513877255      0.72458369488733
  H   -1.27322131106825      1.60842537009114     -0.72657336023792
  H   -0.70220832143368      2.13062908099278      0.88135314649887
  N   -1.28898650809681     -1.04725765079558     -0.18989292068075
  O   -1.40217123692634     -0.89041830811056     -1.40403349309823
  O   -1.77336187627926     -1.94286535475188      0.47971514978273
  N   1.22845463882070      0.31151477853734     -1.32607268760382
  H   0.52862399856656     -0.08614593670076     -1.93543493863895
  H   1.40608581269750      1.28020704410918     -1.53688870000389
  N   1.60613665353243     -1.22683033898832      0.45376063500232
  O   1.15531145523404     -2.22877581112455     -0.09296175563849
  O   2.52995709509648     -1.18046552722987      1.25753585528447
