17
Coordinates from ORCA-job run
  C   -0.48979736437518      0.04622511536564      0.53368246150127
  C   0.96482412488788      0.07874967515309      0.03424909750249
  F   -0.45251343921215     -0.27758604186800      1.85623656653906
  H   1.47850284429664      0.82151638239387      0.64669739788033
  C   -1.20906382972287      1.35647940994531      0.34286463346318
  H   -2.21560465175789      1.27525326540532      0.75738888811864
  H   -0.67270003055652      2.13962482364684      0.88191875620050
  H   -1.27626934272361      1.61203318163129     -0.71259563878307
  N   -1.29370181574205     -1.04117155569154     -0.16548424531228
  O   -1.75582098845993     -1.94303730877262      0.51164863443643
  O   -1.43547824725651     -0.88052551385371     -1.37616489624343
  N   1.21149051309474      0.30431262968476     -1.34515636032177
  H   0.50407931199832     -0.10236249557344     -1.94034960030999
  H   1.36213475635305      1.27776195648174     -1.55739575606116
  N   1.60391423460685     -1.23655618516241      0.42733808586870
  O   1.15251684634621     -2.23107621543600     -0.13246519725887
  O   2.52348707822304     -1.20164112335012      1.23658717277997
