17
Coordinates from ORCA-job run
  C   -0.49925083457753      0.13479979456444      0.62482528067682
  C   0.92311573928940      0.11536447318844      0.05570148144699
  F   -0.44326281627258      0.01958245724860      1.97823421910976
  H   1.53797256339648      0.67531656958085      0.76682330348275
  C   -1.27828564293209      1.37551735585300      0.26568186252875
  H   -2.24176049248913      1.32994561444039      0.77722040453007
  H   -0.72925600112165      2.25303696448450      0.60877685858913
  H   -1.42157182887324      1.45151499496358     -0.80953639852695
  N   -1.27841478364778     -1.05861365062702      0.09675307604173
  O   -1.08809177419141     -1.31252729308529     -1.09188337294870
  O   -2.06139639834986     -1.61128753660718      0.84882928042686
  N   1.03253027811989      0.68565077768036     -1.23324745976405
  H   2.00321420117304      0.78531847858998     -1.49625555624934
  H   0.56278883780808      0.10199503144428     -1.91410326064469
  N   1.50487991275541     -1.31545452918260      0.14522346596999
  O   1.05115646537243     -2.06649497308588      1.00037529253952
  O   2.42663257454053     -1.56066452945045     -0.62441847720863
