17
Coordinates from ORCA-job run
  C   -0.61351862474992      0.04213830563532      0.43835258118635
  C   0.86818912302113     -0.38911589015058      0.36911339698141
  F   -0.83843154263159      0.31882038588911      1.76252932394254
  H   0.96847858542989     -1.27628135181773      0.99633624238401
  C   -1.03188604510438      1.21383915678251     -0.40027640822420
  H   -0.86841322555064      1.03083936006362     -1.45886118170189
  H   -0.46301934384690      2.09033116285263     -0.08808633579189
  H   -2.09098485334593      1.41219130802769     -0.23232235636215
  N   -1.44783010869198     -1.19044916943962      0.11733487331921
  O   -1.50230306044084     -2.04465572747732      0.99355952149654
  O   -1.95144736523801     -1.24664234684783     -1.00055839446548
  N   1.82843981275888      0.59343420293756      0.74666415815398
  H   1.75910946026688      1.43030229294763      0.18398848468348
  H   1.74311942403764      0.81481597831733      1.72915505612432
  N   1.15407320106550     -0.82874041237756     -1.03808262447628
  O   0.98955554738081     -2.01835364525858     -1.29292991952685
  O   1.49586901563948      0.04852638991582     -1.82691641772309
