17
Coordinates from ORCA-job run
  C   -0.60460984346066      0.01311824738384      0.58543436009271
  C   0.84643670923213     -0.40078092468455      0.29192198801456
  F   -0.73460280864134      0.01920934404492      1.94090295801173
  H   1.04683243923867     -1.31099421168483      0.85869434586534
  C   -1.03901663945331      1.33573664425841      0.02240391008119
  H   -2.09306890244073      1.49562771821751      0.25047678346713
  H   -0.89924684036175      1.37604950412093     -1.05547429106148
  H   -0.45352103408204      2.11615254395188      0.50889656305056
  N   -1.49919563360200     -1.11662570916057      0.08331800780530
  O   -1.58277594477431     -2.10307405223217      0.80317972874266
  O   -2.02327713567017     -0.95784327223479     -1.01507388693075
  N   1.74087027135081      0.64065965144517      0.63615265681455
  H   2.68008107426138      0.28946554464622      0.76434587930198
  H   1.74903471407036      1.35893763527410     -0.07755371457152
  N   0.93555875161910     -0.81976818632274     -1.17822599509263
  O   0.75502909199960     -2.00691160164037     -1.43028391359662
  O   1.17747173071426      0.07104112461706     -1.99011537999471
