17
Coordinates from ORCA-job run
  C   -0.49344994895332      0.05849826314901      0.52949028772000
  C   0.96436517079487      0.07845557065783      0.03916151559341
  F   -0.46620053234269     -0.23740280297125      1.85879130981878
  H   1.47610329899966      0.83298431759146      0.63871099730119
  C   -1.20905234262922      1.36557152055248      0.30566913491102
  H   -2.22037542856793      1.29387219165888      0.71019128681374
  H   -0.67729157619164      2.15798262302618      0.83565968214283
  H   -1.26400357201460      1.60101986300878     -0.75514961255862
  N   -1.29388890095216     -1.04260977449700     -0.15216092692805
  O   -1.76040220908684     -1.93035083656205      0.54042483930660
  O   -1.42898240776250     -0.90594152731663     -1.36655960419089
  N   1.21916648065188      0.27406940379124     -1.34263292897793
  H   0.51523479925395     -0.14205723605337     -1.93510924158536
  H   1.38198152973218      1.24043966308833     -1.57616624034660
  N   1.59804085102227     -1.22984824493903      0.46531385262152
  O   2.50539345514518     -1.18009309106170      1.28753627170238
  O   1.15436133290090     -2.23458990312316     -0.08217062334403
