17
Coordinates from ORCA-job run
  C   -0.58884082305561     -0.10709777089447      0.17767472690108
  C   0.83689047459746     -0.04992780044039     -0.39379785178340
  F   -0.80747897074387     -1.35454399272178      0.67595640377667
  H   0.98517223785478      0.90961274515239     -0.88487808131638
  C   -0.97093126033894      0.93292944774362      1.19567997185484
  H   -0.39862719959956      0.77290622730769      2.10928401657675
  H   -2.03309619601174      0.82960353910769      1.42613418592361
  H   -0.77224642721453      1.93452510912691      0.81803723710901
  N   -1.49179414789205      0.04555679176688     -1.04183151354069
  O   -1.36394898757539      1.10445739535707     -1.65006566865059
  O   -2.24907236458893     -0.87347297292191     -1.31690971573448
  N   1.18293557181640     -1.12548623268880     -1.25121370533724
  H   0.97954673059727     -0.92700326087277     -2.21899218183468
  H   0.77791616088555     -2.00387807154944     -0.96023588253189
  N   1.76030825897488     -0.03710070169524      0.80492342075013
  O   2.07879470963727      1.07017989514493      1.23563833680480
  O   2.07447223265700     -1.12326034692238      1.27559630103245
