17
Coordinates from ORCA-job run
  C   -0.49596608939246      0.12210325069785      0.58127475029138
  C   0.92296605012319      0.14406450880720      0.00436713659037
  F   -0.39584670775649     -0.16592773630216      1.90637930892440
  H   1.50442790309759      0.82402323405534      0.63019199809849
  C   -1.24896791300869      1.40859141237043      0.37864910960954
  H   -1.36305983602485      1.62415123554636     -0.67996399055174
  H   -0.69300218880237      2.21803206547001      0.85477067842161
  H   -2.22747870571525      1.32407782251561      0.85555217350744
  N   -1.28743768084632     -1.01979974033740     -0.05381098542377
  O   -1.60799204144086     -1.95909999531827      0.65664383154626
  O   -1.54056300911017     -0.87721873446944     -1.24726515615257
  N   0.96656100869671      0.52804484447020     -1.35333372565333
  H   1.91854125225523      0.63088722911191     -1.67754174396228
  H   0.46609669182144     -0.12612863833048     -1.94112944583882
  N   1.54535849774513     -1.23022150467496      0.29687087865225
  O   2.24194219622563     -1.32701957668540      1.30171243606152
  O   1.29442057213254     -2.12055967692680     -0.51236725412077
