17
Coordinates from ORCA-job run
  C   -0.50885913109993      0.09410151435448      0.57511764173687
  C   0.92071962725518      0.15484153110124      0.02836635589567
  F   -0.43134544859911     -0.24333279899807      1.88994639352184
  H   1.48109904453646      0.81809681527775      0.69030688246975
  C   -1.27367031478562      1.37851107143284      0.40631166441654
  H   -2.26012607464076      1.26478254012209      0.86017405919596
  H   -0.73690566621648      2.17565109574522      0.92344815528639
  H   -1.36997513588283      1.63271136289448     -0.64546779026517
  N   -1.27358821088868     -1.03184215015083     -0.11908734753965
  O   -1.50462799988252     -0.84664863526284     -1.31107187495383
  O   -1.59539643992527     -2.00170967115820      0.54830905382442
  N   0.98621628651003      0.58972068196202     -1.31297117155540
  H   1.94293393027607      0.71576741639367     -1.61411953058078
  H   0.50485088633369     -0.04689458354869     -1.93494403245794
  N   1.55504744886881     -1.22150941302517      0.28230520630721
  O   2.23659429714917     -1.34595587913959      1.29434251974606
  O   1.32803290099179     -2.08529089800041     -0.56196618504792
