17
Coordinates from ORCA-job run
  C   -0.49835782802599      0.11946021188318      0.58070432204363
  C   0.92153434902809      0.15632341299188      0.00675177021651
  F   -0.39926106635240     -0.16094389422946      1.90723214839594
  H   1.49442835310255      0.84418350385140      0.63187826872135
  C   -1.26768917988966      1.39471089855669      0.36892473470963
  H   -2.24453822798639      1.30138700394649      0.84757872979588
  H   -1.38592833719752      1.59999493653795     -0.69127688501698
  H   -0.72153048092108      2.21530275981001      0.83718069932281
  N   -1.27219632873755     -1.03661882918199     -0.05174428683024
  O   -1.52560415494468     -0.90256085947237     -1.24612411176138
  O   -1.57847074466132     -1.97868665546175      0.66143368655685
  N   0.96281881935264      0.53741112880948     -1.35165437434164
  H   1.91407520861517      0.64980772634556     -1.67477146595817
  H   0.47069641203607     -0.12352737139700     -1.93891803091048
  N   1.55878232796079     -1.21078252354878      0.30400437471820
  O   2.24234282495973     -1.30112047405100      1.31822236550220
  O   1.32989805366157     -2.10234097539029     -0.51042194516413
