17
Coordinates from ORCA-job run
  C   -0.40954119031506      0.50188983390693      0.41655724226905
  C   0.96002326689786     -0.01856786239720     -0.03958775595526
  F   -0.21420562027782      1.82497680600085      0.73496369869767
  H   1.62952135886761     -0.02616252058909      0.82775318700000
  C   -1.51900483075808      0.37234925880908     -0.58221682878111
  H   -1.20994021665148      0.86714655251274     -1.50191814111631
  H   -2.41582581716543      0.84702323966377     -0.18307118781450
  H   -1.73983406114356     -0.67119399112514     -0.79449140627539
  N   -0.74914354981952     -0.18427994745517      1.73583004632757
  O   -1.65760307691310     -1.00744312245870      1.72944977960841
  O   -0.06061990507315      0.14405501462916      2.69418715485204
  N   1.37980412582477      0.73079638046158     -1.18283253775268
  H   2.29005104355026      0.42281602057488     -1.50051451483404
  H   1.43488500382094      1.71036713761516     -0.93305119455992
  N   0.80386383247100     -1.47974031720723     -0.40084054355822
  O   0.66208678876102     -1.78394500774246     -1.57847825108692
  O   0.81648284792374     -2.24908747519914      0.55826125297961
