17
Coordinates from ORCA-job run
  C   -0.49217989899836      0.03158332246439      0.53305269602687
  C   0.96417284201796      0.08875002189216      0.04010173001048
  F   -0.45884103391853     -0.31881126515693      1.84864335069733
  H   1.46955030850789      0.82286451403488      0.66964350682088
  C   -1.22419928737804      1.33774040980372      0.36452159873008
  H   -2.23346910171307      1.23711554116367      0.76800564583835
  H   -1.28507296395917      1.61653054418467     -0.68534553062501
  H   -0.70061058484205      2.11365780174020      0.92617466380116
  N   -1.27926558211090     -1.05121978002317     -0.19252039888822
  O   -1.72517663756143     -1.97787002584706      0.46179854863066
  O   -1.42425758447926     -0.86300632219479     -1.39896679872274
  N   1.21155796953033      0.34566526171289     -1.33311888972776
  H   0.51130521385446     -0.05587124801732     -1.93998463880789
  H   1.35618025621368      1.32403031535631     -1.52544676202153
  N   1.61215411539095     -1.22920317816346      0.40927826190081
  O   1.18939432778443     -2.21228110898381     -0.19159899395300
  O   2.50675764166111     -1.20767480396633      1.24676201028954
