17
Coordinates from ORCA-job run
  C   -0.51582945739814      0.08984774926570      0.65926784649138
  C   0.90921614990840     -0.28963074539222      0.22563518110507
  F   -0.45436206473779      0.34608112197398      1.99526155627660
  H   1.26230195483122     -1.06345424629099      0.90862164090789
  C   -1.13461157536943      1.25472057659569     -0.05838630269053
  H   -2.15684293825130      1.39356338510803      0.29428713403699
  H   -1.14895535765935      1.09902293526619     -1.13476988839711
  H   -0.55581965978602      2.14549017505628      0.18676016992780
  N   -1.37312268029186     -1.16375369500344      0.51143051135873
  O   -1.26813473458357     -1.99988799184191      1.39938286716115
  O   -2.06056137879162     -1.24550932874928     -0.50204114293270
  N   1.75274080164707      0.84680676347874      0.23685150921352
  H   2.72677911423612      0.57981136153919      0.27994785421534
  H   1.60032231947823      1.41656876595391     -0.58625611924180
  N   0.82672419083175     -0.97374140810902     -1.14178647869208
  O   0.71239053987566     -2.19543087818539     -1.14692701564862
  O   0.87776477606064     -0.24050454066545     -2.12727932309166
