17
Coordinates from ORCA-job run
  C   -0.49494797553137      0.11487938903949      0.58365009346916
  C   0.92218960831748      0.15043608078840      0.00281471862051
  F   -0.38912709953324     -0.18208509838282      1.90623684852580
  H   1.50118868678741      0.82965405340738      0.63170124813867
  C   -1.25736664400151      1.39746238748171      0.39211188245348
  H   -2.23305179417317      1.30367993692583      0.87301910024972
  H   -1.37793088399125      1.61785553671137     -0.66478205552629
  H   -0.70448505854907      2.20805794616440      0.86981946786113
  N   -1.28056018911910     -1.02788388252835     -0.05752240183525
  O   -1.53803114793923     -0.87898766471426     -1.24924217120633
  O   -1.59347396823709     -1.97407625399733      0.64720366967103
  N   0.95927833418438      0.54405476238597     -1.35203956473671
  H   0.46229900159595     -0.10900519586295     -1.94386299448859
  H   1.90925192886625      0.65867946204520     -1.67795396451298
  N   1.55446059325427     -1.22202021709328      0.28420451636346
  O   1.30589306924709     -2.10842239879901     -0.53006222756195
  O   2.25541353882218     -1.32127884357177      1.28570383451515
