17
Coordinates from ORCA-job run
  C   -0.50453569391860      0.11454511932037      0.57660002361804
  C   0.92320354064134      0.14369854199966      0.02214121161480
  F   -0.42672287417684     -0.19311123789123      1.89839150866855
  H   1.49723348487706      0.81057256031937      0.66856879607129
  C   -1.25427685210882      1.40379441473221      0.37983139614992
  H   -2.23681162260606      1.31531764781363      0.84764486915084
  H   -0.70167403964010      2.20881933220176      0.86711965021328
  H   -1.35956183973548      1.62872999288933     -0.67771264466024
  N   -1.28489818658471     -1.01869971658611     -0.08875355916080
  O   -1.61164690303393     -1.97090851914091      0.60147788567844
  O   -1.52203279333326     -0.85750350778026     -1.28304762040486
  N   0.98751370095737      0.55164321755973     -1.32739276582810
  H   0.49509098812285     -0.09043633746054     -1.93487723605087
  H   1.94411123013998      0.65978163603687     -1.63571974101146
  N   1.53836664864679     -1.23786169981361      0.29947802391047
  O   1.30606928055159     -2.11005761345917     -0.53466791521196
  O   2.20957193120082     -1.35732383074110      1.31891811725263
