17
Coordinates from ORCA-job run
  C   -0.48129827131297      0.01661013978118      0.58179848100273
  C   0.94502323134375     -0.36299757749607      0.12644756346400
  F   -0.36624369170199      0.26934477075384      1.92497724551488
  H   1.23099355184607     -1.25062331629310      0.69293025467048
  C   -1.13663609029319      1.18362024085767     -0.09637704688503
  H   -0.53401509546157      2.07563813638317      0.07789639407844
  H   -1.24532819398149      1.01937950737204     -1.16501433774575
  H   -2.12243349321137      1.34235636069524      0.34220343361687
  N   -1.33250370978544     -1.23964411516360      0.45993679910027
  O   -1.13901474697971     -2.10374609589700      1.30629352842410
  O   -2.09955402575149     -1.30174849461773     -0.49627226957159
  N   1.93924255102924      0.64883895363799      0.26051588525999
  H   1.70068583564057      1.48814323553098     -0.24981232287336
  H   2.10466978332622      0.85778089843983      1.23549157536413
  N   0.87366228813616     -0.78156854657473     -1.31386769937864
  O   0.96370871617462      0.11527168113959     -2.14841378139754
  O   0.69904136098259     -1.97565577854931     -1.53873370264397
