16

C	-0.394664	0.038659	-1.484556
C	0.0	0.0	0.0
F	-0.258166	-1.273005	-1.954475
H	1.088088	0.0	0.0
H	-0.405599	0.887412	0.491111
N	-1.753615	0.421317	-1.799961
H	-1.83639	1.422534	-1.674955
H	-2.369061	-0.019543	-1.122296
C	0.630423	0.896032	-2.198631
H	0.484989	1.952325	-1.946686
H	0.52148	0.765905	-3.277532
H	1.619378	0.596936	-1.83205
N	-0.648136	-1.155867	0.641852
O	-1.858214	-1.04502	0.905759
O	0.001412	-2.174303	0.852281
F	2.658872	0.0	0.0
