16

C	-0.117884	0.016805	-1.522983
C	0.0	0.0	0.0
F	-1.428468	0.298296	-1.939061
H	1.090415	0.0	0.0
H	-0.446326	-0.872706	0.470597
N	0.768588	0.980838	-2.138342
H	0.481043	1.890705	-1.793147
H	1.671121	0.799459	-1.679005
C	0.27565	-1.366583	-2.000434
H	-0.428548	-2.121191	-1.641627
H	0.298683	-1.366266	-3.090857
H	1.273867	-1.56754	-1.604911
N	-0.547646	1.172895	0.681663
O	-0.393029	2.291789	0.184538
O	-1.129587	0.987719	1.7552
F	2.622625	0.0	0.0
