16

C	-0.473294	0.005449	-1.427181
C	0.0	0.0	0.0
Br	-2.369526	0.379762	-1.605573
H	1.092786	0.0	0.0
H	-0.323475	0.941276	0.448317
N	0.213202	1.075559	-2.275021
O	0.265235	0.86621	-3.480037
O	0.580265	2.077557	-1.680716
N	-0.136823	-1.334118	-2.078529
O	-1.035026	-2.148501	-2.249766
O	1.057107	-1.489852	-2.291438
C	-0.515825	-1.200558	0.783471
H	-1.605633	-1.282779	0.763222
H	-0.085772	-2.129031	0.402656
H	-0.191307	-1.100582	1.820718
Cl	3.393861	0.0	0.0
