16

C	-0.442989	0.042179	-1.434103
C	0.0	0.0	0.0
Br	-0.137193	1.723991	-2.293974
H	1.095357	0.0	0.0
H	-0.333072	-0.96433	0.391346
N	0.242661	-1.099898	-2.206902
O	1.016495	-0.849576	-3.110491
O	-0.09133	-2.20683	-1.795146
N	-1.93065	-0.303491	-1.637942
O	-2.302562	-0.43231	-2.797866
O	-2.623602	-0.441783	-0.637272
C	-0.484712	1.149263	0.875815
H	-0.175938	0.941916	1.902505
H	-1.568816	1.268853	0.857093
H	-0.009622	2.084701	0.580168
Cl	3.381927	0.0	0.0
