16

C	-0.450493	-0.003289	-1.4381
C	0.0	0.0	0.0
Br	0.448334	1.34624	-2.461366
H	1.093227	0.0	0.0
H	-0.324461	0.956039	0.417701
N	-0.228361	-1.387019	-2.052244
O	0.836791	-1.61426	-2.598919
O	-1.141596	-2.184682	-1.849062
N	-1.951843	0.25018	-1.630216
O	-2.590594	0.611127	-0.64811
O	-2.393146	0.097672	-2.762001
C	-0.503664	-1.169803	0.839402
H	-1.588643	-1.278766	0.816349
H	-0.04414	-2.106591	0.520881
H	-0.190201	-0.995756	1.870856
Cl	3.370817	0.0	0.0
