16

C	-0.486359	0.010471	-1.421332
C	0.0	0.0	0.0
Br	0.306645	-1.348639	-2.50512
H	1.090891	0.0	0.0
H	-0.338244	0.933955	0.45635
N	-2.01612	-0.110034	-1.418656
O	-2.546651	-1.154126	-1.762433
O	-2.581121	0.880811	-0.964291
N	-0.257021	1.351674	-2.12346
O	0.44709	2.170233	-1.554023
O	-0.815589	1.483835	-3.206821
C	-0.516642	-1.201477	0.784946
H	-0.054517	-1.186897	1.773357
H	-1.602949	-1.184172	0.914279
H	-0.235273	-2.139951	0.304768
Cl	3.422009	0.0	0.0
