9
Coordinates from ORCA-job run
  C   0.42636173528588     -0.38944970310670     -0.19597867996026
  C   -1.00724798870046     -0.06361817639543      0.16587456946876
  F   0.50915474865363     -0.66359820078374     -1.55212121786109
  H   -1.09423358063489      0.14676732314164      1.23317117750584
  H   0.77765667212212     -1.27822804656969      0.33502360665870
  H   -1.34167109334844      0.80779023858846     -0.39740193844192
  H   -1.64180923218259     -0.91480053109828     -0.08364999431062
  C   1.33346969860596      0.72885020100445      0.11338839195129
  N   2.03831904019880      1.62728689521929      0.38169408498930
