14

C	-0.613522	0.09426	-1.381213
C	0.0	0.0	0.0
Br	0.348947	1.344249	-2.525188
H	1.092437	0.0	0.0
H	-1.641178	0.449936	-1.358547
N	-0.652703	-1.227212	-2.088945
O	-1.687978	-1.485369	-2.706535
O	0.336827	-1.94581	-2.011285
C	-0.492597	-1.183079	0.687157
N	-0.910186	-2.112208	1.2782
N	-0.322871	1.240243	0.716432
H	-0.974819	1.070884	1.470815
H	0.557664	1.562825	1.113885
H	2.583663	0.0	0.0
