14

C	-0.480743	-0.016581	-1.428429
C	0.0	0.0	0.0
Br	-2.434397	0.007035	-1.623044
H	1.094239	0.0	0.0
H	-0.129351	-0.903823	-1.951645
N	0.10131	1.148521	-2.185262
O	1.134656	0.883967	-2.797048
O	-0.440039	2.243467	-2.11415
C	-0.417748	-1.235437	0.656059
N	-0.731675	-2.218423	1.22224
N	-0.353797	1.209547	0.709233
H	-1.197918	1.109904	1.255925
H	0.429422	1.446753	1.310761
H	2.582559	0.0	0.0
