14

C	-0.412148	-0.11584	-1.440159
C	0.0	0.0	0.0
Br	-0.154155	-1.890546	-2.174826
H	1.091403	0.0	0.0
H	0.181767	0.57198	-2.03674
N	-1.848562	0.259453	-1.675467
O	-2.661627	0.000132	-0.794589
O	-2.10809	0.79239	-2.74988
C	-0.490125	-1.056819	0.874652
N	-0.808857	-1.860192	1.674411
N	-0.344143	1.352557	0.438958
H	-1.146676	1.349156	1.053657
H	0.466295	1.717201	0.931804
H	2.621132	0.0	0.0
