14

C	-0.350233	0.042151	-1.479511
C	0.0	0.0	0.0
Br	0.282088	-1.496469	-2.45252
H	1.095206	0.0	0.0
H	0.105494	0.931619	-1.915429
N	-1.83363	0.196641	-1.669523
O	-2.235528	1.365821	-1.590977
O	-2.551974	-0.789438	-1.792537
C	-0.549692	-1.182858	0.646461
N	-0.95873	-2.15584	1.166832
N	-0.317955	1.212657	0.730245
H	-1.127749	1.69735	0.357358
H	0.50118	1.809825	0.667877
H	2.553258	0.0	0.0
