18

C	0.0	0.0	0.0
C	-0.375834	0.007619	-1.514836
F	1.395622	0.0	0.0
H	0.318853	0.765186	-1.906884
C	-0.535075	1.198119	0.743539
H	-0.115169	1.233574	1.752478
H	-0.257903	2.10992	0.206116
H	-1.626832	1.104942	0.786262
C	-0.383487	-1.25448	0.675488
N	-0.563128	-2.28013	1.219069
N	-1.721515	0.392965	-1.871314
H	-2.441835	0.024729	-1.201756
H	-1.818017	1.397814	-1.766667
C	-0.018237	-1.331273	-2.152907
H	-0.727755	-2.09901	-1.835027
H	-0.093599	-1.230605	-3.237303
H	0.993972	-1.649995	-1.886674
H	-3.580352	0.0	0.0
