18

C	0.0	0.0	0.0
C	-0.566479	0.055829	-1.418626
F	1.388456	0.0	0.0
H	-1.633513	0.291215	-1.2582
C	-0.517494	1.139113	0.853332
H	-0.232275	2.097225	0.413371
H	-0.098515	1.07047	1.860346
H	-1.613569	1.040008	0.87438
C	-0.359218	-1.287518	0.643776
N	-0.506781	-2.326702	1.169585
N	-0.399024	-1.253594	-2.071055
H	-0.639407	-1.134507	-3.050591
H	-1.119412	-1.862164	-1.687464
C	0.140555	1.114368	-2.249176
H	1.185447	0.83535	-2.405248
H	-0.348017	1.199883	-3.225506
H	0.100779	2.098084	-1.777663
H	-3.282253	0.0	0.0
