18

C	0.0	0.0	0.0
C	-0.518337	0.01175	-1.440014
F	1.39978	0.0	0.0
H	-1.614078	-0.055021	-1.313602
C	-0.525435	1.129012	0.851508
H	-0.177936	1.017763	1.88214
H	-0.178118	2.086315	0.458399
H	-1.624991	1.054528	0.801747
C	-0.344675	-1.304294	0.618994
N	-0.466997	-2.359586	1.119674
N	-0.047506	-1.141046	-2.212767
H	0.936334	-1.293031	-2.013692
H	-0.546954	-1.965243	-1.896155
C	-0.151045	1.29834	-2.165684
H	-0.677807	2.15835	-1.748111
H	-0.441669	1.189086	-3.21175
H	0.927214	1.487037	-2.125364
H	-3.25081	0.0	0.0
