18

C	0.0	0.0	0.0
C	-0.397279	-0.224626	-1.4963
F	1.397984	0.0	0.0
H	0.38578	0.347786	-2.014752
C	-0.513948	1.30642	0.552236
H	-1.605212	1.235578	0.615977
H	-0.227275	2.120555	-0.119849
H	-0.082609	1.489631	1.539823
C	-0.379329	-1.122284	0.878859
N	-0.546409	-2.03829	1.595252
N	-1.685026	0.265893	-1.928671
H	-2.43688	0.016719	-1.237109
H	-1.673237	1.281243	-1.921458
C	-0.249151	-1.693098	-1.874794
H	-0.313992	-1.785331	-2.960605
H	0.702938	-2.107712	-1.530255
H	-1.066371	-2.269837	-1.436228
H	-3.505515	0.0	0.0
