18

C	0.0	0.0	0.0
C	-0.373092	-0.038981	-1.500776
F	1.395886	0.0	0.0
H	0.398531	0.622654	-1.930647
C	-0.519087	1.22763	0.709584
H	-0.260786	2.112739	0.125694
H	-0.068101	1.291361	1.704467
H	-1.608571	1.148307	0.782907
C	-0.376687	-1.236739	0.71873
N	-0.540106	-2.245678	1.297043
N	-1.676081	0.533867	-1.75602
H	-2.003283	0.208701	-2.660295
H	-2.415313	0.251282	-1.051523
C	-0.13684	-1.437836	-2.084123
H	0.869848	-1.806589	-1.854829
H	-0.876532	-2.144613	-1.697909
H	-0.241131	-1.393644	-3.17395
H	-3.564169	0.0	0.0
