16

C	-0.584762	-0.004336	-1.411498
C	0.0	0.0	0.0
Br	0.253799	-1.462027	-2.385573
H	1.090059	0.0	0.0
N	-1.985428	-0.170991	-1.450392
H	-2.414751	0.619819	-0.982093
H	-2.300403	-0.202147	-2.412164
N	-0.122446	1.278776	-2.161979
O	-0.789852	1.56497	-3.152399
O	0.846292	1.881544	-1.730781
C	-0.46476	-1.168992	0.737213
N	-0.825919	-2.104917	1.348135
N	-0.438016	1.215867	0.782562
O	-1.213446	2.009	0.243102
O	0.015327	1.319562	1.911065
Cl	3.151432	0.0	0.0
