16

C	-0.46092	-0.000738	-1.440384
C	0.0	0.0	0.0
Br	0.320686	1.560461	-2.396258
H	1.095243	0.0	0.0
N	-0.134194	-1.231948	-2.044399
H	-0.446802	-1.255524	-3.009023
H	0.861491	-1.419064	-1.993378
N	-1.98369	0.110351	-1.601827
O	-2.401875	0.156004	-2.752912
O	-2.65395	0.053989	-0.581805
C	-0.46206	-1.163551	0.725631
N	-0.789558	-2.132244	1.309247
N	-0.373888	1.222103	0.802142
O	0.113464	1.243792	1.927371
O	-1.017501	2.121553	0.270791
Cl	2.67415	0.0	0.0
