16

C	-0.480492	0.046394	-1.448864
C	0.0	0.0	0.0
Br	-2.561471	0.21937	-1.375214
H	1.093348	0.0	0.0
N	0.152576	0.970156	-2.229448
H	-0.178313	1.013228	-3.180845
H	0.337648	1.851051	-1.774675
N	-0.312267	-1.301443	-2.163249
O	-0.582991	-1.289939	-3.356508
O	0.1146	-2.248001	-1.520143
C	-0.544713	-1.105018	0.769182
N	-0.993258	-1.967556	1.428683
N	-0.355661	1.290027	0.713339
O	-0.115423	2.338663	0.118865
O	-0.786427	1.213395	1.85572
Cl	3.104662	0.0	0.0
