16

C	-0.619617	-0.000268	-1.417194
C	0.0	0.0	0.0
Br	0.130324	-1.561704	-2.316751
H	1.092362	0.0	0.0
N	-2.031046	-0.038462	-1.531329
H	-2.40958	-0.814651	-1.00237
H	-2.426006	0.843599	-1.22996
N	-0.109215	1.229187	-2.196098
O	-0.927056	1.82987	-2.879782
O	1.076257	1.483011	-2.07243
C	-0.50743	-1.148123	0.736374
N	-0.981252	-2.069907	1.290773
N	-0.413433	1.231994	0.766492
O	-0.192211	1.228107	1.969069
O	-0.91039	2.160929	0.128456
Cl	3.150672	0.0	0.0
