16

C	-0.583416	-0.007686	-1.412183
C	0.0	0.0	0.0
Br	0.263345	-1.461872	-2.384486
H	1.086418	0.0	0.0
N	-1.984009	-0.178352	-1.453701
H	-2.296075	-0.209818	-2.416418
H	-2.416226	0.611584	-0.986584
N	-0.123493	1.276102	-2.162304
O	0.839083	1.885529	-1.727657
O	-0.786437	1.557074	-3.15659
C	-0.465622	-1.166889	0.740198
N	-0.834689	-2.089275	1.367011
N	-0.441009	1.216199	0.7808
O	-1.224687	2.002815	0.241288
O	0.016594	1.325288	1.908588
Cl	3.151705	0.0	0.0
