16

C	-0.505275	0.01428	-1.437792
C	0.0	0.0	0.0
Br	0.432139	-1.503489	-2.375105
H	1.087267	0.0	0.0
N	-1.88062	-0.012736	-1.579751
H	-2.20475	0.056908	-2.533094
H	-2.314854	-0.772093	-1.074249
N	0.033547	1.286541	-2.139968
O	-0.795161	2.131419	-2.481509
O	1.255179	1.40777	-2.232723
C	-0.563161	-1.110151	0.730939
N	-1.019863	-2.052757	1.272718
N	-0.406778	1.300173	0.692787
O	0.516359	1.979174	1.12253
O	-1.607457	1.535311	0.827469
Cl	2.683283	0.0	0.0
