16

C	-0.467709	-0.010213	-1.446848
C	0.0	0.0	0.0
Br	-2.378861	-0.195819	-1.691553
H	1.090641	0.0	0.0
N	-0.028226	1.174571	-2.085316
H	-0.375277	1.257027	-3.031895
H	0.984081	1.260771	-2.048611
N	0.160743	-1.298534	-2.136373
O	-0.417401	-1.808492	-3.087863
O	1.284813	-1.586574	-1.74881
C	-0.488729	-1.124498	0.762961
N	-0.823141	-2.037261	1.428533
N	-0.394134	1.296643	0.677232
O	-1.585017	1.55747	0.80393
O	0.544521	1.987232	1.071175
Cl	2.69127	0.0	0.0
