16

C	-0.512992	0.023037	-1.454694
C	0.0	0.0	0.0
Br	0.049993	-1.673322	-2.247625
H	1.093245	0.0	0.0
N	-1.889496	0.182683	-1.707271
H	-2.439952	-0.559914	-1.297641
H	-2.210376	1.097593	-1.420879
N	0.224058	1.138819	-2.247439
O	1.413328	1.292034	-2.002701
O	-0.407979	1.778644	-3.083226
C	-0.536241	-1.114467	0.744479
N	-0.991407	-2.033103	1.324558
N	-0.428603	1.266368	0.688588
O	-0.554533	2.252253	-0.043596
O	-0.439887	1.258784	1.911282
Cl	2.674848	0.0	0.0
