17

C	-0.599465	0.019548	-1.395404
C	0.0	0.0	0.0
Br	0.070335	-1.685143	-2.315985
H	1.087895	0.0	0.0
N	-1.973393	0.190546	-1.427289
H	-2.425543	-0.526998	-0.876791
H	-2.332559	0.272873	-2.368274
N	0.043467	1.086252	-2.306515
O	1.244882	1.251656	-2.223392
O	-0.720196	1.637369	-3.09425
N	-0.415288	-1.179558	0.776646
O	0.335102	-1.506365	1.69557
O	-1.461662	-1.777497	0.47705
N	-0.375301	1.194359	0.722089
O	-0.642486	1.124893	1.931768
O	-0.283617	2.248473	0.071965
H	2.347717	0.0	0.0
