17

C	-0.42855	-0.023324	-1.491878
C	0.0	0.0	0.0
Br	0.427225	1.429403	-2.524105
H	1.116053	0.0	0.0
N	-0.060401	-1.293046	-2.089581
H	0.958536	-1.396413	-1.974739
H	-0.233701	-1.256603	-3.103084
N	-1.902045	0.230616	-1.683133
O	-2.328462	-0.0822	-2.885699
O	-2.305798	1.376818	-1.185918
N	-0.487488	-1.193762	0.730961
O	-1.754288	-1.112084	1.03214
O	0.346499	-1.572388	1.691454
N	-0.368832	1.203695	0.78356
O	0.174228	2.290313	0.253344
O	-0.180255	1.024154	2.083788
H	2.473938	0.0	0.0
