17

C	-0.415426	-0.026219	-1.500042
C	0.0	0.0	0.0
Br	-0.068731	1.758341	-2.302039
H	1.117487	0.0	0.0
N	0.322536	-1.019619	-2.243376
H	0.120102	-0.931912	-3.245143
H	1.324706	-0.815522	-2.119059
N	-1.896683	-0.211911	-1.699135
O	-2.628073	0.71614	-1.117606
O	-2.21911	-0.533451	-2.927705
N	-0.368136	-1.229635	0.734939
O	0.066105	-2.31115	0.101204
O	-0.04011	-1.130995	2.017896
N	-0.459613	1.175026	0.78802
O	0.482691	1.617235	1.610624
O	-1.658938	1.033531	1.287945
H	2.477854	0.0	0.0
