17

C	-0.458571	0.001911	-1.441326
C	0.0	0.0	0.0
Br	0.140228	1.680887	-2.274424
H	1.089845	0.0	0.0
N	0.056977	-1.065189	-2.180432
H	0.043599	-1.927861	-1.651182
H	-0.332208	-1.122527	-3.110186
N	-2.038019	-0.015341	-1.534564
O	-2.572683	-0.782822	-0.742707
O	-2.595462	0.56772	-2.45375
N	-0.349948	-1.170873	0.767729
O	-0.799422	-1.036682	1.913375
O	-0.036846	-2.266504	0.263892
N	-0.469903	1.194145	0.728008
O	0.24766	1.580839	1.649842
O	-1.519912	1.735192	0.36443
H	2.351336	0.0	0.0
