17

C	-0.489819	-0.000485	-1.436369
C	0.0	0.0	0.0
Br	0.293193	1.44951	-2.45223
H	1.089459	0.0	0.0
N	-0.132548	-1.223226	-2.049357
H	-0.744707	-1.968337	-1.739197
H	-0.174576	-1.151885	-3.056738
N	-2.013237	0.342061	-1.595039
O	-2.653615	-0.388316	-2.373525
O	-2.528568	1.041608	-0.717551
N	-0.473213	-1.207614	0.738172
O	0.3398	-1.763579	1.474493
O	-1.539567	-1.743879	0.326094
N	-0.42665	1.134921	0.877599
O	-0.015868	2.23662	0.541341
O	-1.025418	0.856032	1.915426
H	2.51168	0.0	0.0
