17

C	0.0	0.0	0.0
C	-0.33082	-0.050524	-1.51041
F	1.363815	0.0	0.0
H	0.603779	0.316908	-1.952962
H	-0.394702	-0.810876	0.598956
N	-0.340227	1.261525	0.733911
O	-0.220658	2.324112	0.117545
O	-0.478319	1.175045	1.9548
C	-1.444359	0.764596	-2.165479
H	-1.222424	0.810708	-3.244967
H	-2.410773	0.30824	-1.978089
H	-1.480517	1.778608	-1.773012
C	-0.482333	-1.527606	-1.875535
H	-1.403362	-1.893854	-1.414465
H	-0.553801	-1.647508	-2.961422
H	0.367437	-2.122441	-1.522576
H	-2.590298	0.0	0.0
