17

C	0.0	0.0	0.0
C	-0.255013	0.015349	-1.530344
F	1.363765	0.0	0.0
H	0.547912	0.678363	-1.875511
H	-0.362374	-0.854849	0.554561
N	-0.455721	1.20632	0.722521
O	-0.488882	1.133152	1.96367
O	-0.421506	2.282732	0.095038
C	-1.527661	0.537603	-2.185525
H	-1.282672	0.748802	-3.241967
H	-1.871079	1.449045	-1.70516
H	-2.335085	-0.187563	-2.13307
C	0.050379	-1.395372	-2.040248
H	0.030614	-1.41923	-3.134749
H	-0.713549	-2.088081	-1.673287
H	1.032701	-1.742174	-1.709461
H	-2.312682	0.0	0.0
