17

C	0.0	0.0	0.0
C	-0.450449	-0.013289	-1.451375
F	1.358555	0.0	0.0
H	-1.544265	-0.060594	-1.404051
H	-0.36584	-0.899884	0.5248
N	-0.579701	1.099995	0.769387
O	-1.75513	1.421063	0.28745
O	-0.294922	1.099288	1.997217
C	0.07852	-1.270628	-2.137009
H	-0.259736	-2.170555	-1.613496
H	-0.287789	-1.324502	-3.167561
H	1.172236	-1.282731	-2.163991
C	-0.01251	1.250636	-2.182351
H	-0.348162	1.222494	-3.225052
H	1.077552	1.350045	-2.18094
H	-0.450437	2.12434	-1.70027
H	-2.829709	0.0	0.0
