13

C	-0.53238	-0.017872	-1.433683
C	0.0	0.0	0.0
Cl	-0.073845	-1.619764	-2.114065
H	1.090562	0.0	0.0
H	-0.365793	-0.869852	0.543912
C	-1.99784	0.070705	-1.465172
N	-3.172768	0.092341	-1.462775
C	0.038521	1.021066	-2.296308
N	0.463559	1.845746	-3.017091
N	-0.474193	1.198234	0.731913
O	-0.44143	1.138718	1.955614
O	-0.838411	2.171536	0.07009
Cl	3.195796	0.0	0.0
