13

C	-0.527792	0.031682	-1.435039
C	0.0	0.0	0.0
Cl	-0.073047	-1.547354	-2.167268
H	1.090542	0.0	0.0
H	-0.371201	-0.886592	0.51227
C	-1.993176	0.125626	-1.468933
N	-3.1686	0.141361	-1.477823
C	0.045607	1.094296	-2.263437
N	0.475678	1.928565	-2.97008
N	-0.473424	1.175742	0.768057
O	-0.836582	2.169153	0.134553
O	-0.441249	1.079676	1.990032
Cl	3.196458	0.0	0.0
