13

C	-0.52404	-0.084361	-1.434591
C	0.0	0.0	0.0
Cl	0.315074	-1.34026	-2.391009
H	1.088199	0.0	0.0
H	-0.354527	0.917013	0.472956
C	-1.973934	-0.320901	-1.487921
N	-3.143001	-0.434558	-1.529069
C	-0.27093	1.21488	-2.072238
N	-0.152048	2.278929	-2.556642
N	-0.477215	-1.11797	0.850026
O	-0.377741	-0.943298	2.059432
O	-0.908956	-2.13384	0.306737
Cl	3.200244	0.0	0.0
