13

C	-0.521806	0.017249	-1.437698
C	0.0	0.0	0.0
Cl	0.302482	1.2427	-2.445433
H	1.088706	0.0	0.0
H	-0.352857	-0.89604	0.513074
C	-0.246059	-1.303244	-2.020638
N	-0.070905	-2.372763	-2.474167
C	-1.974268	0.23271	-1.50313
N	-3.143187	0.335925	-1.565182
N	-0.480627	1.153631	0.798616
O	-0.918422	2.141713	0.210214
O	-0.374795	1.035888	2.014771
Cl	3.200405	0.0	0.0
