13

C	-0.52741	-0.009444	-1.436296
C	0.0	0.0	0.0
Cl	0.317649	-1.207105	-2.460077
H	1.088755	0.0	0.0
H	-0.355963	0.889015	0.523071
C	-1.976038	-0.251583	-1.501774
N	-3.143312	-0.374611	-1.556938
C	-0.282202	1.323554	-2.003281
N	-0.150976	2.406421	-2.440782
N	-0.471336	-1.164846	0.789198
O	-0.903487	-2.150013	0.191698
O	-0.361774	-1.059615	2.005803
Cl	3.199575	0.0	0.0
