13

C	-0.521804	0.014789	-1.428092
C	0.0	0.0	0.0
Cl	-2.334075	-0.054044	-1.439085
H	1.093047	0.0	0.0
H	-0.372883	0.870979	0.536687
C	-0.151963	1.298481	-2.036423
N	0.131749	2.321976	-2.538821
C	-0.022236	-1.067423	-2.279334
N	0.399014	-1.881791	-3.013696
N	-0.460745	-1.193219	0.747682
O	-0.644822	-1.043781	1.952374
O	-0.584624	-2.247659	0.13005
Cl	3.184082	0.0	0.0
