13

C	-0.522918	-0.070217	-1.436372
C	0.0	0.0	0.0
Cl	0.315924	1.074405	-2.523817
H	1.08877	0.0	0.0
H	-0.354991	-0.860827	0.568969
C	-0.268383	-1.429554	-1.932569
N	-0.102847	-2.522445	-2.328572
C	-1.971868	0.162663	-1.514634
N	-3.138821	0.282662	-1.578752
N	-0.476565	1.203103	0.72546
O	-0.893353	2.160408	0.07598
O	-0.387172	1.155266	1.946827
Cl	3.19813	0.0	0.0
