13

C	-0.525099	-0.007564	-1.430217
C	0.0	0.0	0.0
Cl	-2.335816	-0.074952	-1.435646
H	1.093036	0.0	0.0
H	-0.372962	0.878807	0.523388
C	-0.144858	1.263874	-2.054621
N	0.13771	2.278638	-2.57639
C	-0.018786	-1.104168	-2.260267
N	0.382651	-1.933626	-2.989225
N	-0.458653	-1.180738	0.76512
O	-0.580305	-2.245557	0.164779
O	-0.64768	-1.012319	1.966932
Cl	3.180819	0.0	0.0
