15

C	-0.509753	0.028459	-1.453466
C	0.0	0.0	0.0
Cl	0.222567	1.392272	-2.278433
H	1.091553	0.0	0.0
N	-0.087783	-1.295191	-2.154105
O	-0.917458	-2.192373	-2.066459
O	1.003549	-1.328763	-2.683907
C	-1.964907	0.116296	-1.53781
N	-3.131188	0.240987	-1.622615
N	-0.485125	-1.260114	0.67266
O	0.197943	-2.259237	0.47938
O	-1.519192	-1.196249	1.334506
C	-0.50775	1.161249	0.711875
N	-0.885795	2.120025	1.276299
Cl	3.117279	0.0	0.0
