15

C	-0.515117	-0.035672	-1.439639
C	0.0	0.0	0.0
Cl	-2.281633	-0.023774	-1.534806
H	1.089586	0.0	0.0
N	0.007835	1.249152	-2.172183
O	-0.589926	1.567699	-3.18958
O	0.989078	1.774982	-1.673823
C	-0.002868	-1.182765	-2.178773
N	0.331047	-2.126811	-2.794956
N	-0.455604	-1.25948	0.702059
O	0.323488	-2.206407	0.661856
O	-1.564844	-1.244598	1.235123
C	-0.522157	1.16167	0.700945
N	-0.934656	2.104514	1.267325
Cl	3.146774	0.0	0.0
