15

C	-0.462176	0.00111	-1.458175
C	0.0	0.0	0.0
Cl	0.524911	-1.022921	-2.476233
H	1.098992	0.0	0.0
N	-1.967132	-0.432867	-1.546963
O	-2.66139	-0.015299	-0.630344
O	-2.323346	-1.073292	-2.515547
C	-0.445949	1.3632	-1.983756
N	-0.434657	2.459728	-2.406955
N	-0.401553	-1.268066	0.701526
O	-0.295323	-1.262927	1.920362
O	-0.744946	-2.217734	0.004968
C	-0.478873	1.139402	0.761661
N	-0.818259	2.076132	1.384989
Cl	3.071546	0.0	0.0
