15

C	-0.57825	-0.207186	-1.397833
C	0.0	0.0	0.0
Cl	-2.324653	-0.490367	-1.337321
H	1.115112	0.0	0.0
N	-0.321752	1.113758	-2.208554
O	0.768918	1.620224	-2.004129
O	-1.186434	1.473678	-2.987064
C	0.06429	-1.256894	-2.177583
N	0.506091	-2.061991	-2.912323
N	-0.33326	-1.174513	0.87716
O	-0.37189	-2.271126	0.33064
O	-0.462962	-0.954298	2.074949
C	-0.515566	1.219898	0.593102
N	-0.931724	2.229946	1.0279
Cl	3.04913	0.0	0.0
