15

C	-0.553573	-0.2496	-1.402636
C	0.0	0.0	0.0
Cl	-2.290965	-0.580732	-1.363231
H	1.108727	0.0	0.0
N	-0.323361	1.054519	-2.241998
O	0.702822	1.657126	-1.971035
O	-1.137746	1.307801	-3.112001
C	0.136953	-1.295472	-2.147649
N	0.643006	-2.090136	-2.851148
N	-0.33121	-1.164846	0.894176
O	-0.519751	-0.923426	2.079893
O	-0.305164	-2.274205	0.372859
C	-0.546339	1.221798	0.55968
N	-1.010061	2.218817	0.972792
Cl	3.064511	0.0	0.0
