15

C	-0.52411	0.005421	-1.43115
C	0.0	0.0	0.0
Cl	-2.293104	-0.194109	-1.466364
H	1.109828	0.0	0.0
N	-0.204944	1.394758	-2.084824
O	-0.752265	1.607769	-3.152627
O	0.592416	2.104622	-1.495628
C	0.093878	-0.965915	-2.32536
N	0.531596	-1.655129	-3.171603
N	-0.354376	-1.302683	0.666155
O	-0.568392	-1.273979	1.87094
O	-0.331517	-2.302806	-0.042237
C	-0.539927	1.102812	0.773881
N	-0.976699	2.009463	1.380456
Cl	3.061499	0.0	0.0
