15

C	-0.563206	-0.02527	-1.420606
C	0.0	0.0	0.0
Cl	-2.310618	-0.32178	-1.408766
H	1.093667	0.0	0.0
N	-0.313209	1.381305	-2.062286
O	0.682139	1.961769	-1.659897
O	-1.088512	1.731997	-2.937001
C	0.095476	-0.963722	-2.320074
N	0.612043	-1.650204	-3.123853
N	-0.341515	-1.283647	0.707999
O	-0.314184	-2.301604	0.025954
O	-0.540718	-1.221047	1.914733
C	-0.532502	1.128276	0.742884
N	-0.979259	2.057767	1.306461
Cl	3.066494	0.0	0.0
