19

C	-0.597341	0.017354	-1.412544
C	0.0	0.0	0.0
Br	0.24574	1.426225	-2.476134
H	1.094582	0.0	0.0
N	-0.265501	-1.311363	-2.082473
O	-1.161493	-2.16264	-2.058898
O	0.859886	-1.49128	-2.523199
C	-2.093763	0.244813	-1.457507
H	-2.284963	1.213908	-1.000236
H	-2.612908	-0.53575	-0.900871
H	-2.455341	0.23984	-2.487344
C	-0.415205	-1.232986	0.791244
H	0.120704	-1.189444	1.743926
H	-0.112298	-2.159445	0.300522
H	-1.493159	-1.276771	0.988574
N	-0.409167	1.24561	0.664899
H	-0.898578	1.031287	1.525277
H	0.451902	1.725712	0.91567
H	2.842855	0.0	0.0
