19

C	-0.383523	-0.008115	-1.463978
C	0.0	0.0	0.0
Br	-2.321139	-0.392876	-1.736508
H	1.097227	0.0	0.0
N	-0.138322	1.367242	-2.089711
O	0.631434	2.115902	-1.497367
O	-0.639663	1.596692	-3.188591
C	0.460864	-0.965901	-2.27679
H	0.245267	-1.996066	-1.996349
H	0.264442	-0.839569	-3.34248
H	1.511025	-0.748673	-2.028288
C	-0.389834	-1.288535	0.708444
H	-1.465441	-1.328638	0.904761
H	-0.103578	-2.177672	0.145444
H	0.156957	-1.318681	1.655955
N	-0.567843	1.15326	0.698764
H	0.175877	1.833361	0.809195
H	-0.85814	0.86467	1.624643
H	2.864888	0.0	0.0
