19

C	-0.385184	0.020128	-1.475839
C	0.0	0.0	0.0
Br	-0.302143	-1.765211	-2.298016
H	1.096235	0.0	0.0
N	-1.843446	0.442521	-1.665436
O	-2.127849	1.099457	-2.664608
O	-2.653819	0.093957	-0.809589
C	0.527242	0.939527	-2.250438
H	1.552355	0.645804	-2.009031
H	0.36717	1.954328	-1.884935
H	0.335341	0.897976	-3.319512
C	-0.457342	-1.159682	0.868039
H	-1.545415	-1.236352	0.934003
H	-0.048755	-2.105654	0.508997
H	-0.043806	-0.98945	1.86724
N	-0.390243	1.320592	0.509359
H	0.382598	1.662749	1.076129
H	-1.218748	1.240348	1.090293
H	2.884186	0.0	0.0
