19

C	-0.318737	-0.015522	-1.500061
C	0.0	0.0	0.0
Br	0.003764	-1.77854	-2.309183
H	1.103242	0.0	0.0
N	-1.808074	0.236789	-1.760841
O	-2.113816	1.079782	-2.606919
O	-2.619705	-0.389518	-1.083877
C	0.525531	0.995142	-2.24039
H	0.244378	2.002938	-1.932528
H	0.398788	0.915978	-3.319324
H	1.565498	0.807794	-1.943433
C	-0.5172	-1.130181	0.86972
H	-0.333995	-2.109832	0.427466
H	0.034792	-1.070125	1.81082
H	-1.583691	-1.028034	1.080351
N	-0.363109	1.286431	0.598192
H	-1.254223	1.644747	0.274289
H	0.368161	1.9617	0.411093
H	2.862835	0.0	0.0
