19

C	-0.627202	0.011394	-1.397827
C	0.0	0.0	0.0
Br	0.281072	1.316736	-2.539592
H	1.102548	0.0	0.0
N	-0.409122	-1.359362	-2.023368
O	0.703822	-1.652966	-2.434387
O	-1.376038	-2.127048	-1.992868
C	-2.104809	0.34517	-1.409682
H	-2.65749	-0.361843	-0.789883
H	-2.505603	0.308512	-2.424994
H	-2.210637	1.348284	-1.001184
C	-0.405106	-1.225665	0.809521
H	-1.482316	-1.276235	1.013599
H	0.135951	-1.165525	1.758941
H	-0.095382	-2.156409	0.329772
N	-0.375358	1.25644	0.662316
H	0.496461	1.683495	0.966739
H	-0.928238	1.065925	1.490193
H	2.821863	0.0	0.0
