19

C	-0.353065	0.184449	-1.485663
C	0.0	0.0	0.0
Br	0.290178	-1.323119	-2.555043
H	1.102386	0.0	0.0
N	-1.867735	0.208539	-1.607981
O	-2.39521	1.319884	-1.460577
O	-2.49458	-0.843983	-1.693505
C	0.26298	1.442659	-2.056339
H	-0.133495	2.321788	-1.552141
H	1.339818	1.367305	-1.87002
H	0.065969	1.526676	-3.12698
C	-0.559805	-1.256141	0.638981
H	-1.64517	-1.193865	0.778593
H	-0.093845	-1.345436	1.621764
H	-0.332161	-2.152364	0.060995
N	-0.35754	1.165394	0.806399
H	0.404774	1.833211	0.758153
H	-1.215204	1.610278	0.496865
H	2.812331	0.0	0.0
