16

C	0.0	0.0	0.0
C	-0.367178	0.175449	-1.493461
F	1.402662	0.0	0.0
H	0.596596	0.105362	-2.007683
H	-0.293293	-0.993105	0.343053
N	-0.465063	1.085236	0.804506
H	-0.288239	0.848482	1.774662
H	-1.483272	1.097991	0.695875
C	-1.055702	1.462237	-1.897363
H	-2.092278	1.446563	-1.564324
H	-0.53515	2.296226	-1.426479
H	-1.029472	1.576206	-2.981033
N	-1.084175	-1.035007	-2.049931
O	-0.816239	-2.130896	-1.563412
O	-1.780394	-0.865443	-3.04449
Br	-3.690546	0.0	0.0
