16

C	0.0	0.0	0.0
C	-0.366844	0.318937	-1.469206
F	1.402776	0.0	0.0
H	0.598211	0.307831	-1.984729
H	-0.293563	-1.020834	0.247309
N	-0.46392	1.004565	0.903689
H	-1.482757	1.024857	0.801637
H	-0.281368	0.681502	1.847752
C	-1.058212	1.636234	-1.749227
H	-2.08598	1.603585	-1.391431
H	-1.055792	1.835572	-2.820527
H	-0.512458	2.424475	-1.229431
N	-1.072265	-0.838253	-2.139142
O	-0.772953	-1.971675	-1.771292
O	-1.791944	-0.58291	-3.097414
Br	-3.691579	0.0	0.0
