13

C	-0.480891	0.001527	-1.43937
C	0.0	0.0	0.0
Br	0.179345	1.583901	-2.350124
H	1.092997	0.0	0.0
H	-0.340349	0.917536	0.483027
C	-0.083595	-1.185402	-2.181631
N	0.235734	-2.146143	-2.779353
N	-2.022763	0.104534	-1.496978
O	-2.546165	0.798974	-0.637454
O	-2.590257	-0.480994	-2.409931
C	-0.53816	-1.158326	0.702588
N	-0.997822	-2.087248	1.255174
Cl	3.228939	0.0	0.0
