13

C	-0.437728	0.251601	-1.430448
C	0.0	0.0	0.0
Br	-2.378252	0.038599	-1.654656
H	1.094445	0.0	0.0
H	-0.333689	-0.996371	0.295789
C	-0.078271	1.570747	-1.924855
N	0.178898	2.658708	-2.288497
N	0.19301	-0.823249	-2.333329
O	0.169837	-1.961883	-1.893393
O	0.610754	-0.454573	-3.421219
C	-0.539336	1.006306	0.89916
N	-0.988835	1.811265	1.626533
Cl	3.200855	0.0	0.0
