13

C	-0.539564	0.026734	-1.422252
C	0.0	0.0	0.0
Br	0.24071	-1.394556	-2.485377
H	1.09111	0.0	0.0
H	-0.331172	0.908389	0.513151
C	-1.993765	-0.085266	-1.484296
N	-3.166177	-0.178414	-1.491313
N	-0.183144	1.365247	-2.109007
O	-0.700481	1.548959	-3.202056
O	0.565014	2.119117	-1.510772
C	-0.512916	-1.166287	0.707286
N	-0.956662	-2.086039	1.287061
Cl	3.226084	0.0	0.0
