13

C	-0.54431	-0.004821	-1.420836
C	0.0	0.0	0.0
Br	0.269295	-1.447507	-2.43081
H	1.090995	0.0	0.0
H	-0.307915	-0.942195	0.464824
C	-1.993264	-0.160354	-1.475054
N	-3.158758	-0.311253	-1.46861
N	-0.209857	1.307365	-2.154589
O	-0.82963	1.509568	-3.190721
O	0.648957	2.01145	-1.652442
C	-0.564335	1.106674	0.762912
N	-1.068976	1.97566	1.367985
Cl	3.256864	0.0	0.0
