13

C	-0.480266	0.03582	-1.448336
C	0.0	0.0	0.0
Br	0.102358	-1.524179	-2.410598
H	1.093612	0.0	0.0
H	-0.33685	0.916798	0.489855
C	-1.93055	0.155622	-1.56331
N	-3.098414	0.267064	-1.639117
N	0.08693	1.326229	-2.107664
O	0.50515	1.264496	-3.248191
O	-0.015656	2.323846	-1.408644
C	-0.543349	-1.152904	0.696683
N	-1.014706	-2.062322	1.270131
Cl	3.255789	0.0	0.0
