13

C	-0.486357	0.016813	-1.437582
C	0.0	0.0	0.0
Br	0.193113	1.595972	-2.339611
H	1.092912	0.0	0.0
H	-0.337224	0.91474	0.490602
C	-0.102598	-1.16874	-2.188889
N	0.2103	-2.128141	-2.79145
N	-2.027132	0.131275	-1.488254
O	-2.603232	-0.450473	-2.398265
O	-2.541397	0.829818	-0.626938
C	-0.541449	-1.16176	0.693301
N	-0.998733	-2.095409	1.239673
Cl	3.231019	0.0	0.0
