14

C	0.0	0.0	0.0
C	-0.474926	-0.179305	-1.419661
F	1.406071	0.0	0.0
H	-1.563787	-0.080812	-1.398417
H	-0.308253	0.990206	0.345282
H	-0.226471	-1.204369	-1.742266
C	-0.493296	-1.077963	0.931904
H	-0.127812	-0.899855	1.946397
H	-0.132305	-2.055929	0.599713
H	-1.586119	-1.06912	0.933535
N	0.107115	0.859359	-2.273385
H	-0.300661	0.798029	-3.198027
H	1.100541	0.683789	-2.360053
Br	-4.059133	0.0	0.0
