14

C	0.0	0.0	0.0
C	-0.444206	0.128287	-1.44266
F	1.404184	0.0	0.0
H	-0.030107	-0.726125	-1.991915
H	-0.317621	0.880744	0.567296
H	-1.534261	0.066086	-1.473187
C	-0.463779	-1.271941	0.66546
H	-0.117979	-2.133683	0.086411
H	-0.044732	-1.34479	1.67272
H	-1.554608	-1.27611	0.716183
N	4.5e-05	1.360166	-2.100994
H	-0.560436	2.127673	-1.749159
H	0.958645	1.53526	-1.82054
Br	-3.977995	0.0	0.0
