14

C	0.0	0.0	0.0
C	-0.365801	0.184063	-1.477893
F	1.400305	0.0	0.0
H	-0.035634	-0.720873	-2.002229
H	-0.312018	0.87967	0.574264
H	0.267792	1.000296	-1.843972
C	-0.541881	-1.254855	0.630401
H	-1.634851	-1.207903	0.627115
H	-0.214697	-2.133169	0.066399
H	-0.198937	-1.351167	1.663513
N	-1.73948	0.460262	-1.841127
H	-2.091481	1.265883	-1.338972
H	-2.370616	-0.279188	-1.552443
Br	-4.576146	0.0	0.0
