14

C	0.0	0.0	0.0
C	-0.543621	-0.190627	-1.404188
F	1.395908	0.0	0.0
H	0.121674	0.347551	-2.088099
H	-0.293074	1.002094	0.334206
H	-1.532826	0.279776	-1.423549
C	-0.490225	-1.029977	0.987435
H	-0.132841	-2.01609	0.688968
H	-0.113421	-0.79842	1.986863
H	-1.582241	-1.013284	1.002725
N	-0.598456	-1.607407	-1.795956
H	-0.692318	-1.651185	-2.805116
H	-1.472477	-1.972656	-1.425679
Br	-4.023371	0.0	0.0
