14

C	0.0	0.0	0.0
C	-0.384818	-0.285763	-1.455873
F	1.399758	0.0	0.0
H	0.285559	0.328989	-2.067622
H	-0.314353	1.013931	0.272501
H	-0.118663	-1.329998	-1.663673
C	-0.532986	-1.000675	0.991904
H	-0.198713	-2.006671	0.723237
H	-1.626107	-0.966578	0.976956
H	-0.188137	-0.771513	2.003243
N	-1.74697	-0.05054	-1.885524
H	-2.432577	-0.564604	-1.340882
H	-2.003215	0.91785	-1.737883
Br	-4.588377	0.0	0.0
