17
Coordinates from ORCA-job run
  C   -0.57335472500039     -0.38046503765592     -0.10581793791583
  C   0.71443841298418      0.46279329932561     -0.23177929020899
  Br  -0.82255404045201     -1.43752852055595     -1.74414214632744
  H   0.81204021452529      0.97103358471475      0.73978623258505
  C   -1.80757525526487      0.49823830211261      0.05785042269714
  H   -2.69330721827691     -0.12675440641370      0.18741627745786
  H   -1.96487506112466      1.15250659201521     -0.80050825015618
  H   -1.68545293023480      1.11815653848682      0.95392380985647
  N   -0.36736169672422     -1.32943600871105      0.97580107337782
  H   -0.38498889354545     -0.82281195780082      1.85735428674573
  H   -1.12718254674145     -2.00057044698090      0.99167932213239
  C   0.55948243048944      1.51331225970050     -1.23937997232703
  N   0.45699752034724      2.35700043280394     -2.04974341618358
  C   1.98841969759648     -0.34735890848628     -0.48169019519052
  H   2.03833928988569     -1.16661741948859      0.23414459695540
  H   1.99147792346125     -0.75677350272609     -1.49152043862905
  H   2.86345687807518      0.29527519965985     -0.36537437486925
