17
Coordinates from ORCA-job run
  C   -0.71156794640130     -0.35511553334942     -0.33265166380965
  C   0.55273157885467      0.32655896221264     -0.89648874702942
  Br  -1.82559312049821     -0.87632947340974     -1.86884659135280
  H   0.22899825645029      1.19107628865380     -1.48743532904589
  C   -1.54297611270694      0.60459946884979      0.51230318052797
  H   -1.77896864809131      1.52320254699236     -0.02988328545616
  H   -2.47910793499567      0.12427592475506      0.80156148492608
  H   -0.99862023183628      0.86196559137213      1.42547473437439
  N   -0.32853922324077     -1.58170026923100      0.34329352773667
  H   0.01434980085552     -1.35732770125566      1.27226554757466
  H   -1.13110202029500     -2.19056264211410      0.45016703946836
  C   1.27362925005948     -0.57741168528339     -1.79672813381962
  N   1.91550986596575     -1.25382331233463     -2.50972654761414
  C   1.51429936822932      0.79990213600459      0.20340401762752
  H   1.86703896276961     -0.04399387633086      0.79896150101162
  H   2.38852225301937      1.26623084893690     -0.25404273368787
  H   1.04339590186147      1.53745272553154      0.85437199856826
