17
Coordinates from ORCA-job run
  C   -0.80114982251628     -0.26990054699958     -0.30129551199206
  C   0.64738626562132      0.00363027491790     -0.80146891213073
  Br  -2.00352737203150      0.68697638789344     -1.54650091751840
  H   0.68683739921505     -0.32587121922690     -1.84686084893390
  C   -1.04394400014435      0.25148965883955      1.10257456447920
  H   -2.06012451286214     -0.00442703471616      1.40252347127564
  H   -0.91990848416357      1.33190846002991      1.16077529878829
  H   -0.34103135987556     -0.22286852233839      1.79629764620922
  N   -1.18205706895349     -1.65711396813659     -0.36133623104371
  H   -0.69280416204413     -2.18254575519195      0.35576536373579
  H   -0.97347878413102     -2.06120299075695     -1.26732207770201
  C   1.54007274115050     -0.86996055883579     -0.03171035490733
  N   2.22807837780746     -1.56325980680596      0.62110600050807
  C   1.13331507163613      1.45266043865736     -0.71178731854917
  H   0.44486550768152      2.11307923120907     -1.23860799383805
  H   2.11952806572186      1.54134303116049     -1.17164770634734
  H   1.21694213788820      1.77606292030054      0.32649552796649
