17
Coordinates from ORCA-job run
  C   -0.52777701951722     -0.44105458197342     -0.10059939862319
  C   0.65687094498759      0.54018083581885     -0.23876878854987
  Br  -0.68459430062547     -1.50721024695315     -1.74462660998633
  H   0.71112053227944      1.05322723547792      0.73364031493463
  C   -1.84854243799890      0.29485114516507      0.08931599499758
  H   -2.08946922680553      0.93588765868828     -0.75943875563725
  H   -2.65828045043261     -0.42485754572961      0.22393285785821
  H   -1.78210811179575      0.91566599149811      0.99048635024975
  N   -0.20140388935742     -1.36942351008869      0.96887285715985
  H   -0.88556306783449     -2.11733019328386      0.99362821050169
  H   -0.25449566623427     -0.87315808724701      1.85487169642100
  C   0.37325960825303      1.56988603140347     -1.24005991848544
  N   0.16960576597141      2.39788938840772     -2.04730706998308
  C   2.00897794009262     -0.12340767730457     -0.51061400536374
  H   2.15852751428667     -0.93695861747599      0.19761069049871
  H   2.04348056027840     -0.52311349045224     -1.52366254498697
  H   2.80939130445249      0.61092566404910     -0.40028188100556
