14
Coordinates from ORCA-job run
  C   -0.51422364091979     -0.07141137284748      0.52164355263983
  C   0.75466767368679      0.75952535139928      0.26541386581066
  Br  -1.47473286800401      0.76158009476163      2.02135889932267
  H   1.29311262671695      0.87508620671280      1.21447216058137
  H   0.43017470247496      1.75263388666512     -0.05667608711544
  C   -0.12330679560309     -1.41396841516362      0.94487302763258
  N   0.24255411308463     -2.48979093121482      1.24588378830815
  C   -1.42997429647156     -0.12729836070071     -0.69279624121210
  H   -2.31449424212129     -0.73037590253612     -0.48570543329236
  H   -1.74562581192835      0.88456469655150     -0.95540316931838
  H   -0.87236953239145     -0.55820179961438     -1.52510880885353
  N   1.52298767267753      0.12858943021181     -0.79742529877795
  H   2.09124100624237      0.81085380313679     -1.28061556385008
  H   2.13798939255631     -0.58078668736180     -0.41891469187543
