14
Coordinates from ORCA-job run
  C   -0.42045564737234     -0.23308197071914      0.46114652436420
  C   1.04945258703295      0.03291259423089      0.09973208714770
  Br  -0.99039795663197      1.12876916196331      1.77168538103464
  H   1.65047551806990     -0.06594593994693      1.01331951154605
  H   1.34784632798244     -0.77150835639806     -0.58160738913894
  C   -0.51765795697566     -1.52706566426870      1.13045585981308
  N   -0.57135808503482     -2.59379517044520      1.62132255157383
  C   -1.34335146669241     -0.16967521358133     -0.74719874417754
  H   -2.38001550164517     -0.33487611356195     -0.45301915595052
  H   -1.23772062959862      0.80315287695902     -1.22350420425329
  H   -1.04865476312165     -0.94772693653971     -1.45798148894962
  N   1.18897433513314      1.30299657325486     -0.59103715030490
  H   2.05023489661975      1.31503253160475     -1.12082326571939
  H   1.22262834223445      2.06181162744819      0.07750948301469
