13

C	-0.436298	-0.00459	-1.492416
C	0.0	0.0	0.0
Br	0.313465	1.572486	-2.376777
H	1.09708	0.0	0.0
C	0.062407	-1.202919	-2.167525
N	0.424284	-2.156535	-2.75221
C	-1.893412	0.055705	-1.621343
N	-3.065333	0.10347	-1.709636
C	-0.490944	-1.212464	0.650629
N	-0.888974	-2.194918	1.15864
C	-0.49924	1.190446	0.680675
N	-0.9038	2.144177	1.235411
Br	3.252415	0.0	0.0
