13

C	-0.45124	0.001825	-1.482834
C	0.0	0.0	0.0
Br	0.306096	-1.570194	-2.386146
H	1.097039	0.0	0.0
C	-1.906793	-0.072255	-1.595382
N	-3.080448	-0.110618	-1.680814
C	0.054187	1.203842	-2.145564
N	0.487045	2.174634	-2.649353
C	-0.501241	-1.183412	0.678595
N	-0.848589	-2.151548	1.256441
C	-0.479667	1.20645	0.65479
N	-0.858864	2.191428	1.181822
Br	2.736306	0.0	0.0
