17

C	-0.445631	0.022236	-1.477207
C	0.0	0.0	0.0
Br	0.34112	-1.416174	-2.444202
H	1.088292	0.0	0.0
N	-1.971996	0.036116	-1.63754
O	-2.489911	1.071366	-1.22299
O	-2.546532	-0.919627	-2.124189
N	-0.027855	1.32695	-2.164322
O	-0.473707	1.481774	-3.294809
O	0.702693	2.087745	-1.548633
N	-0.513754	-1.307123	0.560306
O	-1.742914	-1.393197	0.634986
O	0.285897	-2.152197	0.935806
N	-0.460646	1.033337	0.859448
H	0.225496	1.773224	0.878967
H	-1.377604	1.381783	0.622443
Cl	3.255345	0.0	0.0
