17

C	-0.395978	0.012659	-1.486927
C	0.0	0.0	0.0
Br	0.195878	1.656385	-2.27263
H	1.09033	0.0	0.0
N	0.229772	-1.161671	-2.245316
O	0.389193	-1.037224	-3.448766
O	0.463229	-2.153634	-1.567569
N	-1.904924	-0.094724	-1.741009
O	-2.585575	0.771289	-1.208809
O	-2.30439	-1.006174	-2.447896
N	-0.523157	-1.248566	0.668582
O	0.162707	-1.737504	1.550208
O	-1.649933	-1.625203	0.336842
N	-0.445829	1.097479	0.791317
H	0.297567	1.772159	0.890553
H	-1.300769	1.516493	0.459778
Cl	3.215183	0.0	0.0
