17

C	-0.585566	-0.006897	-1.407785
C	0.0	0.0	0.0
Br	-2.480892	-0.304018	-1.399418
H	1.091254	0.0	0.0
N	-0.258403	1.373692	-2.026014
O	0.937109	1.527436	-2.230041
O	-1.163359	2.158473	-2.246273
N	0.084488	-0.967816	-2.395161
O	1.133525	-1.479344	-2.039961
O	-0.462944	-1.057574	-3.490032
N	-0.400706	-1.298087	0.703907
O	-0.613393	-1.219901	1.910832
O	-0.45709	-2.324652	0.035515
N	-0.433975	1.16361	0.68045
H	0.21816	1.38866	1.419603
H	-1.36737	1.066267	1.058794
Cl	3.246219	0.0	0.0
