17

C	-0.425473	0.012919	-1.453259
C	0.0	0.0	0.0
Br	0.467982	1.518445	-2.349166
H	1.115253	0.0	0.0
N	0.023688	-1.203672	-2.212058
O	-0.389038	-1.230002	-3.451048
O	1.314004	-1.429607	-2.024176
N	-1.912077	0.104334	-1.685205
O	-2.254174	0.646224	-2.843005
O	-2.533021	-0.991369	-1.362352
N	-0.473029	-1.175445	0.793203
O	0.370942	-1.454674	1.766252
O	-1.725256	-1.071916	1.165077
N	-0.421784	1.222587	0.669988
H	-0.098158	1.191053	1.651712
H	-1.446906	1.313977	0.687285
Cl	2.615172	0.0	0.0
