17

C	-0.602058	0.03375	-1.406796
C	0.0	0.0	0.0
Br	-2.527506	0.140563	-1.327107
H	1.115915	0.0	0.0
N	-0.142606	1.273318	-2.228435
O	0.131765	1.050737	-3.400519
O	-0.162044	2.356851	-1.677254
N	-0.149505	-1.144955	-2.278574
O	1.061527	-1.282814	-2.293339
O	-0.986328	-1.778998	-2.89821
N	-0.405087	-1.341099	0.641904
O	-0.379487	-2.353573	-0.051047
O	-0.69763	-1.310083	1.833949
N	-0.404276	1.096547	0.788833
H	-1.269987	0.928466	1.280184
H	0.331292	1.325334	1.44281
Cl	3.181679	0.0	0.0
