17

C	-0.447628	0.001172	-1.457808
C	0.0	0.0	0.0
Br	0.347338	-1.4511	-2.412973
H	1.093909	0.0	0.0
N	-1.962996	0.032678	-1.696636
O	-2.537766	-1.011272	-1.978526
O	-2.478794	1.085291	-1.329675
N	0.009619	1.289931	-2.152453
O	-0.460869	1.502083	-3.261897
O	0.841242	1.968559	-1.563047
N	-0.392275	-1.342094	0.581551
O	-1.59179	-1.607257	0.660454
O	0.523428	-2.039404	1.011214
N	-0.673671	1.004247	0.783174
H	-0.391672	0.899585	1.751359
H	-0.361629	1.91721	0.476499
Cl	2.695488	0.0	0.0
