17

C	-0.488518	-0.013031	-1.477058
C	0.0	0.0	0.0
Br	0.178339	-1.560622	-2.47009
H	1.11485	0.0	0.0
N	-1.986066	-0.079002	-1.613014
O	-2.464363	-1.16272	-1.058157
O	-2.394177	0.169872	-2.832659
N	0.028	1.221817	-2.143104
O	1.34582	1.269318	-2.119567
O	-0.60887	2.306625	-1.785563
N	-0.351982	-1.201892	0.785906
O	0.273259	-2.287209	0.384293
O	-0.319577	-0.981578	2.087139
N	-0.451998	1.222343	0.647898
H	-1.434348	1.131269	0.94539
H	0.11134	1.379325	1.500672
Cl	2.600804	0.0	0.0
