17

C	0.0	0.0	0.0
C	-0.511813	0.132104	-1.464835
Br	1.964088	0.0	0.0
H	0.348752	0.326395	-2.114486
H	-0.244341	-0.99609	0.371134
C	-0.537178	1.022688	0.975464
H	-0.132696	0.845733	1.977045
H	-1.624179	0.86606	0.962781
H	-0.302268	2.036527	0.651285
N	-1.427874	1.265841	-1.583224
H	-2.265343	0.960588	-1.037077
H	-1.705201	1.31228	-2.561014
C	-1.158195	-1.199171	-1.864247
H	-1.464073	-1.165833	-2.916496
H	-2.045748	-1.298809	-1.231837
H	-0.470427	-2.045465	-1.735083
F	-3.132957	0.0	0.0
