17

C	0.0	0.0	0.0
C	-0.571178	0.038516	-1.404354
Br	1.970592	0.0	0.0
H	-1.652323	-0.070582	-1.158654
H	-0.256025	-0.980968	0.399654
C	-0.547007	1.077933	0.905654
H	-1.641718	0.947653	0.793349
H	-0.234237	0.91236	1.940439
H	-0.218658	2.075189	0.600797
N	-0.117913	-1.138962	-2.154538
H	-0.714774	-1.241608	-2.96828
H	0.828229	-0.977325	-2.491642
C	-0.337236	1.35782	-2.133164
H	0.732482	1.57236	-2.248229
H	-0.811259	2.190435	-1.608363
H	-0.782532	1.304447	-3.132789
F	-2.995914	0.0	0.0
