17

C	0.0	0.0	0.0
C	-0.565593	0.318558	-1.383143
Br	1.967046	0.0	0.0
H	-1.651501	0.301898	-1.143158
H	-0.270824	-1.032127	0.228197
C	-0.532178	0.899594	1.094115
H	-1.628087	0.795182	0.978256
H	-0.204709	1.933936	0.959423
H	-0.202612	0.558687	2.080047
N	-0.299563	-0.721289	-2.382521
H	-0.832264	-1.543136	-2.114692
H	0.685055	-0.973169	-2.341991
C	-0.150068	1.669235	-1.939402
H	-0.690668	1.838121	-2.873029
H	0.923173	1.708117	-2.155736
H	-0.392793	2.480155	-1.248957
F	-2.969385	0.0	0.0
