17

C	0.0	0.0	0.0
C	-0.502931	0.163215	-1.480005
Br	1.96838	0.0	0.0
H	0.370819	0.38129	-2.104565
H	-0.249843	-0.999212	0.360353
C	-0.542644	1.008765	0.984796
H	-0.177055	0.798432	1.993763
H	-1.63341	0.871794	0.929571
H	-0.261208	2.031545	0.72153
N	-1.494699	1.201682	-1.706095
H	-1.145923	2.092227	-1.369161
H	-2.304469	0.920745	-1.112225
C	-1.143073	-1.157505	-1.912221
H	-2.050314	-1.254075	-1.307372
H	-1.407009	-1.08913	-2.971354
H	-0.469946	-2.011404	-1.758649
F	-3.121907	0.0	0.0
