17

C	0.0	0.0	0.0
C	-0.460582	-0.222701	-1.470726
F	1.401851	0.0	0.0
H	0.45839	-0.10395	-2.06388
H	-0.302715	-0.851551	0.616072
C	-0.512008	1.261389	0.642532
H	-1.604035	1.157149	0.647404
H	-0.123157	1.346448	1.662523
H	-0.200561	2.146571	0.079024
N	-1.480233	0.67552	-1.999634
H	-2.284948	0.548008	-1.34473
H	-1.155702	1.63191	-1.90148
C	-0.998728	-1.64206	-1.613353
H	-0.284477	-2.385123	-1.239055
H	-1.225688	-1.855195	-2.661429
H	-1.921617	-1.667189	-1.026504
F	-3.072103	0.0	0.0
