17

C	0.0	0.0	0.0
C	-0.516505	0.057879	-1.428579
F	1.40529	0.0	0.0
H	-1.609222	0.073223	-1.277311
H	-0.31282	-0.962741	0.416017
C	-0.519127	1.103609	0.887251
H	-0.168743	2.081865	0.545143
H	-1.615577	1.004717	0.808148
H	-0.178022	0.956086	1.917486
N	-0.145793	-1.147865	-2.19438
H	-0.706817	-1.913371	-1.832991
H	0.822489	-1.367115	-1.971742
C	-0.027407	1.285264	-2.182991
H	-0.383643	2.207653	-1.719033
H	-0.402937	1.244924	-3.207689
H	1.067274	1.317701	-2.219422
F	-2.958283	0.0	0.0
