15
Coordinates from ORCA-job run
  C   -0.32052318333372     -0.27879781792210     -0.58597659634291
  C   0.70563633748582      0.51945951017720      0.25760198403845
  Br  0.40423322479187     -2.03541870535711     -1.04825245522911
  H   0.27796963033862      1.50753817164578      0.45321305736503
  C   -1.65866185988058     -0.45330177595577      0.12892395917207
  H   -2.04411283573159      0.52058110432056      0.44087829002038
  H   -1.54671069608400     -1.08904041197821      1.00624389593698
  H   -2.36996290754885     -0.91859770283577     -0.55358431258221
  C   -0.50063531299850      0.46999912157066     -1.82769095483510
  N   -0.67569006363546      1.10581377864434     -2.80150437032640
  C   1.99989665145220      0.65101472117532     -0.39478414283891
  N   3.03505260702992      0.80414071773675     -0.92853127019061
  N   0.87140386052358     -0.11389365355399      1.62289271555665
  O   1.76811686200891     -0.93422616349287      1.76567056933963
  O   0.05298768558177      0.24672910582521      2.46389963091606
