15
Coordinates from ORCA-job run
  C   -0.44637227583203     -0.65392117544250     -0.21743929836583
  C   0.76230592505787     -0.22614015608820      0.65190454158391
  Br  -1.28537244252217     -2.14266686460423      0.74981258544673
  H   1.41610089215178     -1.08403759757260      0.81891404901912
  C   -1.47515275254447      0.44965157429369     -0.43237133782081
  H   -1.02323001195167      1.28187356824255     -0.97434625874124
  H   -1.84723143055658      0.80701497096390      0.52872682748394
  H   -2.30971972419861      0.05663145578290     -1.01346842205883
  C   0.04259635451215     -1.17458493196055     -1.49039437970057
  N   0.41990991107640     -1.56151479584099     -2.53498588542449
  C   0.34265080739848      0.36652539249648      1.91407209394086
  N   0.00957371349647      0.83755673151810      2.93732705691322
  N   1.60106761623522      0.78039407667936     -0.11826344305385
  O   2.58426568624841      0.32185362004722     -0.68869162132836
  O   1.20760773142875      1.94136413148487     -0.12979650789380
