15
Coordinates from ORCA-job run
  C   -0.45704636222900     -0.59342662637298     -0.34233832710594
  C   0.74144364239132     -0.30459082690850      0.58524035140563
  Br  -1.28009324850018     -2.21777468574156      0.41238321380131
  H   1.38017003890972     -1.18934949523806      0.65443134275144
  C   -1.51055904920559      0.50652180379777     -0.38868843447787
  H   -1.88459148235261      0.70467505648819      0.61698631765319
  H   -1.07844458325106      1.41336671306519     -0.81062826736375
  H   -2.34352286648647      0.18337303004519     -1.01367690536282
  C   0.03372172519759     -0.94760196482897     -1.67055775157274
  N   0.42126908257237     -1.24242571832495     -2.74070749260994
  C   0.31859633926724      0.10579412734224      1.91936558217475
  N   -0.03792734124098      0.45472363255035      2.98303276916700
  N   1.67096371341385      0.78810725540755      0.05074326962617
  O   1.30625748086326      1.43691832265399     -0.92102956065090
  O   2.72076291065050      0.90168937606453      0.66644389256452
