15
Coordinates from ORCA-job run
  C   -0.30721503595155     -0.24684178826001     -0.60354617763553
  C   0.59262551631976      0.62561109930311      0.30852979344285
  Br  0.74682334989621     -1.67707187249836     -1.42045087972929
  H   -0.02551785278550      1.43382166634686      0.71136127865372
  C   -1.49231073872674     -0.85285763174453      0.14480284882991
  H   -2.05630205405157     -0.06480256032523      0.64996862109566
  H   -2.14308607637356     -1.35856556176846     -0.56869997615803
  H   -1.15210308050912     -1.57639140810501      0.88446091126452
  C   -0.77734793658305      0.62792114304817     -1.67551530964441
  N   -1.19741455198035      1.33378008037408     -2.51721473433959
  C   1.74587189877420      1.17405888505407     -0.38979236945373
  N   2.65392995087418      1.66193340141035     -0.95300458978011
  N   1.04180826455573     -0.16609366051935      1.51815361513852
  O   0.25260912229069     -0.16687884990682      2.45860856921345
  O   2.11662922425065     -0.74762294240885      1.45233839910204
