15
Coordinates from ORCA-job run
  C   -0.36834203291768     -0.14873694085641     -0.60268208100960
  C   0.61351941510550      0.58094643925942      0.34944448312412
  Br  0.60941071049561     -1.37894845010764     -1.76665941340187
  H   0.03129626644054      1.28538918814268      0.95135982154505
  C   -1.45522109793544     -0.91525263890948      0.14754528473216
  H   -1.97281473152309     -0.24605055489578      0.83938108605728
  H   -2.17211779309830     -1.31203205152611     -0.57144759059812
  H   -1.02547203316796     -1.74372586872083      0.70904802972413
  C   -0.96513219577201      0.88444523309131     -1.44609014285015
  N   -1.47660550625036      1.72911318351824     -2.08490316786782
  C   1.67570356213765      1.28002434927708     -0.35855870283456
  N   2.50762957623575      1.88268954876253     -0.92807589012742
  N   1.20336194883062     -0.39417790870688      1.34612345490581
  O   2.27207535144940     -0.92013993751839      1.06530414082180
  O   0.52270855996977     -0.58354359080975      2.35021068777918
