15
Coordinates from ORCA-job run
  C   -0.28937241714729     -0.17631908650187     -0.63826184069367
  C   0.58322508607753      0.58106504219531      0.39533886202671
  Br  0.78425217065494     -1.51673805945761     -1.57376727240560
  H   -0.04499753926134      1.34414873979542      0.86497295490906
  C   -1.50278472555674     -0.85104754396104     -0.00270195092747
  H   -2.08090065082856     -0.11836865126464      0.56595815170068
  H   -1.19259802231726     -1.65401469739761      0.66462179729049
  H   -2.13008680378176     -1.27014422640616     -0.78959200418219
  C   -0.71590494917042      0.81841790652642     -1.61978011545146
  N   -1.08293831503223      1.64430056542843     -2.37236501658660
  C   1.76279830368592      1.19257785752499     -0.19854482784721
  N   2.69591023334479      1.71825335566911     -0.68099186576272
  N   0.98660628690052     -0.34464062725213      1.52362880312294
  O   2.06035630712087     -0.92438081344234      1.43035481894940
  O   0.16543503531104     -0.44310976145637      2.43112950585755
