15
Coordinates from ORCA-job run
  C   -0.43206946648580     -0.66227652626843     -0.21633039001030
  C   0.75152481130589     -0.20731413134249      0.67322604637301
  Br  -1.27748679688862     -2.14511544144286      0.75543878725867
  H   1.41165945468007     -1.05432109708281      0.86862400755748
  C   -1.46758677027284      0.42643094138006     -0.47142728975880
  H   -1.01252635870565      1.25580326121875     -1.01524687833749
  H   -1.86554096030981      0.79381981997188      0.47544180694834
  H   -2.28409310965287      0.01500911786332     -1.06530683112382
  C   0.08986830980551     -1.19789158608688     -1.46981367038597
  N   0.49048382374276     -1.59577549139820     -2.50150310617516
  C   0.29482548748878      0.39855647516806      1.91623259801544
  N   -0.07079154630433      0.88104965632435      2.92282239980846
  N   1.59520933491289      0.79782377839237     -0.09323853915804
  O   1.18641885810166      1.95278866971095     -0.13484736014406
  O   2.59010492858236      0.34041255359196     -0.64407158086773
