15
Coordinates from ORCA-job run
  C   -0.31691210054938     -0.35207823359192     -0.54482947621483
  C   0.76944928638063      0.43616389058120      0.23126248212173
  Br  0.07616647784770     -2.26699654992128     -0.49767184050512
  H   0.53161070553238      1.50088159478162      0.14553126842907
  C   -1.72247279982435     -0.10835550041276     -0.00025988451487
  H   -1.93058288406511      0.96414100261011      0.02754760215314
  H   -2.44682437609844     -0.59768995257534     -0.65158474701790
  H   -1.82270028090059     -0.51570221121838      1.00492136998671
  C   -0.22705518058999      0.08762265799103     -1.93536611690622
  N   -0.18185967194116      0.48280280882504     -3.04214521864066
  C   2.11527267690089      0.17841952635220     -0.25917929087176
  N   3.20030911844437      0.01079266119909     -0.67678186416942
  N   0.68517642925344      0.13124589367822      1.71170935741431
  O   1.39247339142199     -0.76609558562794      2.15000366491403
  O   -0.12205079181237      0.81384799732915      2.33584269382182
