16

C	0.0	0.0	0.0
C	-0.421705	0.123272	-1.475396
F	1.380778	0.0	0.0
H	-1.402757	0.602288	-1.43042
N	-0.37602	1.234952	0.790759
O	-0.492618	2.279558	0.163829
O	-0.38493	1.116878	2.010326
C	-0.479906	-1.196131	0.683748
N	-0.555355	-2.250056	1.202368
C	-0.596302	-1.25753	-2.111416
H	-1.456851	-1.71972	-1.629257
H	-0.795134	-1.149346	-3.180475
H	0.291093	-1.883864	-1.982298
C	0.550441	0.92045	-2.225822
N	1.295453	1.5295	-2.900082
F	-2.353946	0.0	0.0
