18

C	-0.328272	-0.017055	-1.457813
C	0.0	0.0	0.0
F	-0.041576	1.181113	-1.998682
H	1.092083	0.0	0.0
N	0.489497	-1.057083	-2.217235
O	0.748994	-2.091548	-1.623801
O	0.782575	-0.766256	-3.369219
N	-1.785535	-0.273476	-1.859439
O	-2.57594	0.548822	-1.409018
O	-2.043	-1.206353	-2.60662
N	-0.536756	-1.161319	0.718012
O	-1.413586	-1.849002	0.177509
O	-0.106677	-1.358282	1.852828
C	-0.390006	1.267082	0.742123
H	0.088487	1.217074	1.720272
H	-1.470115	1.388394	0.852174
H	0.02498	2.123829	0.215018
F	2.48093	0.0	0.0
