18

C	-0.617867	-0.025387	-1.359382
C	0.0	0.0	0.0
F	-1.960057	-0.083349	-1.348987
H	1.089716	0.0	0.0
N	-0.240296	1.262752	-2.098945
O	0.938559	1.376606	-2.400484
O	-1.143559	2.063714	-2.306292
N	-0.128921	-1.120842	-2.308187
O	-0.90445	-1.390221	-3.221653
O	0.986865	-1.570306	-2.125612
N	-0.465531	-1.190613	0.730511
O	-0.479038	-1.146298	1.959819
O	-0.774091	-2.19231	0.076192
C	-0.346291	1.272637	0.75267
H	0.098697	1.193022	1.741784
H	-1.420712	1.455909	0.844442
H	0.134653	2.114453	0.253287
F	2.463071	0.0	0.0
