18

C	-0.619562	-0.038923	-1.358793
C	0.0	0.0	0.0
F	-1.9618	-0.162184	-1.321523
H	1.086828	0.0	0.0
N	-0.32607	1.235214	-2.156541
O	-1.175828	1.528141	-2.994769
O	0.720915	1.823608	-1.936141
N	-0.110611	-1.145316	-2.292353
O	1.021138	-0.986597	-2.720675
O	-0.890153	-2.050374	-2.547414
N	-0.377862	-1.266834	0.677725
O	-0.948741	-1.21812	1.769782
O	-0.037123	-2.312703	0.121961
C	-0.476802	1.198219	0.796518
H	-0.063612	1.115622	1.800197
H	-0.061762	2.100342	0.348181
H	-1.565198	1.272057	0.870522
F	2.478182	0.0	0.0
