18

C	-0.418731	0.01139	-1.437099
C	0.0	0.0	0.0
F	0.082742	1.093886	-2.051452
H	1.094078	0.0	0.0
N	0.036221	-1.185548	-2.282716
O	1.239192	-1.249957	-2.459459
O	-0.82902	-1.92897	-2.731365
N	-1.94219	0.073961	-1.613076
O	-2.592974	-0.629531	-0.850453
O	-2.383513	0.814615	-2.484382
N	-0.396885	-1.247499	0.668468
O	-0.178369	-2.302925	0.07168
O	-0.848396	-1.180871	1.813044
C	-0.500596	1.227539	0.725073
H	-0.032491	1.266704	1.707757
H	-0.190288	2.113781	0.16965
H	-1.586704	1.227254	0.855385
F	2.466136	0.0	0.0
