18

C	-0.664674	0.039695	-1.337984
C	0.0	0.0	0.0
F	-2.000028	-0.083584	-1.270123
H	1.091607	0.0	0.0
N	-0.384418	1.393226	-1.99938
O	-1.357105	2.10616	-2.220547
O	0.787474	1.645851	-2.236633
N	-0.168074	-0.979384	-2.367599
O	-1.025098	-1.440264	-3.114166
O	1.031934	-1.190939	-2.387656
N	-0.412106	-1.258048	0.645584
O	-0.592744	-2.242448	-0.079528
O	-0.492427	-1.289894	1.872918
C	-0.37612	1.200379	0.848535
H	0.052455	2.094438	0.392978
H	-1.454536	1.32928	0.984987
H	0.102022	1.077612	1.818196
F	2.457023	0.0	0.0
