15
Coordinates from ORCA-job run
  C   -0.69825573095958      0.43671592208187      0.43807596331370
  C   0.59281119876686     -0.36649260143492      0.15711301044972
  Cl  -0.43295145465602      2.16691461322697      0.38360525299765
  H   0.31841475249724     -1.41968492464075      0.28672488164594
  C   -1.28925437321450      0.05450782160954      1.71397431156406
  N   -1.74032344128453     -0.25741883540799      2.75400412383090
  N   -1.69057508104517      0.00014261769551     -0.67439201545387
  O   -1.99940505877023      0.80493323820025     -1.53312446920954
  O   -2.01910249503998     -1.17597601470344     -0.59068465269644
  C   1.58746586018928     -0.02539811927299      1.17288380764462
  N   2.41034428490761      0.24673841935552      1.96518204429678
  C   1.13408322049783     -0.14799560396658     -1.25716641859333
  H   1.34568840778162      0.90534631365858     -1.44034219741959
  H   2.05914950997024     -0.71372292133816     -1.37479889669538
  H   0.42191040035933     -0.50660992506340     -2.00205474567523
