15
Coordinates from ORCA-job run
  C   -0.80547918193143      0.03235988410579      0.41924299803164
  C   0.71557357575701      0.02734368451241      0.19492791269324
  Cl  -1.22644281447996     -0.94600004581943      1.83139959090020
  H   1.15970758251693      0.37308803982844      1.13369923570906
  C   -1.53130175753129     -0.43567027897887     -0.75132820021522
  N   -2.05540637049046     -0.87191535218197     -1.70923636950280
  N   -1.23569423701074      1.48317755756959      0.73611276768855
  O   -0.57825738819611      2.03606234679348      1.60382393098077
  O   -2.17808350866473      1.93569879673251      0.10420513364372
  C   1.02386084046421      1.01033819294619     -0.84677126352243
  N   1.27422997679188      1.78130871844187     -1.69698005013330
  C   1.25224869863204     -1.35419799893111     -0.18506790867920
  H   0.80741472354266     -1.70098155406673     -1.11940852686657
  H   2.33292510929834     -1.29287489806942     -0.32020146839094
  H   1.04270475130165     -2.07673709288275      0.60358221766330
