15
Coordinates from ORCA-job run
  C   -0.67887896721369      0.52166522689426      0.37050380219284
  C   0.58793934476199     -0.34885563865543      0.20664668618047
  Cl  -0.37711337036536      2.21120591148013      0.02062284394849
  H   0.29458244804742     -1.35805598665501      0.51791754325425
  C   -1.25073650914258      0.37537513853985      1.70274154916838
  N   -1.68435214207188      0.25326908667424      2.78876418866045
  N   -1.70426942712714     -0.07029049515623     -0.63387664886815
  O   -2.01424547173394      0.58566498292329     -1.61080078272603
  O   -2.05682472260009     -1.20677813425501     -0.34678881991743
  C   1.61270625201772      0.13314477350573      1.13116435247545
  N   2.46009130102426      0.51144950511029      1.85080725234257
  C   1.10174398823731     -0.38660164516402     -1.23434060977107
  H   0.36753138482038     -0.85402343394399     -1.89252700720131
  H   1.32576562876310      0.61566730720604     -1.59949104668895
  H   2.01506026258251     -0.98183659850414     -1.27034330304996
