16

C	0.0	0.0	0.0
C	-0.534702	0.402851	-1.375421
Br	1.974712	0.0	0.0
H	-1.609647	0.182952	-1.330286
H	-0.077729	-0.247829	-2.127142
C	-0.513917	0.871463	1.134302
H	-0.166842	0.491893	2.096368
H	-0.164424	1.897729	1.011076
H	-1.608604	0.833423	1.08774
C	-0.328269	-1.408167	0.255684
N	-0.529507	-2.546857	0.466542
C	-0.327588	1.86977	-1.726569
H	-0.63699	2.041824	-2.760489
H	-0.944013	2.510995	-1.095231
H	0.719361	2.171291	-1.631188
Cl	-3.78772	0.0	0.0
