16

C	0.0	0.0	0.0
C	-0.495655	0.161609	-1.43942
Br	1.974685	0.0	0.0
H	-1.572906	-0.038679	-1.392155
H	-0.020227	-0.612212	-2.050277
C	-0.489692	1.085405	0.945352
H	-0.09106	2.053695	0.637843
H	-0.161804	0.879203	1.965787
H	-1.583915	1.08603	0.896541
C	-0.350538	-1.331277	0.501592
N	-0.562458	-2.415111	0.903682
C	-0.249294	1.545127	-2.028682
H	-0.908844	2.283971	-1.570977
H	0.788423	1.86592	-1.902369
H	-0.467837	1.531911	-3.099358
Cl	-3.721959	0.0	0.0
