16

C	0.0	0.0	0.0
C	-0.491197	0.282794	-1.421128
Br	1.974959	0.0	0.0
H	0.019021	-0.406266	-2.100759
H	-1.560431	0.042773	-1.407406
C	-0.484412	1.004677	1.034661
H	-1.57818	1.020087	0.982771
H	-0.163065	0.706794	2.033917
H	-0.074808	1.991282	0.810166
C	-0.350617	-1.368068	0.391206
N	-0.57089	-2.477469	0.710739
C	-0.291777	1.726204	-1.866537
H	0.729111	2.07509	-1.686355
H	-0.990396	2.389647	-1.353342
H	-0.48965	1.809407	-2.938316
Cl	-3.669901	0.0	0.0
