11

C	0.0	0.0	0.0
C	-0.336777	0.066174	-1.531081
Cl	1.771414	0.0	0.0
H	0.423329	-0.578327	-1.998552
H	-0.368624	-0.919638	0.442606
H	-0.382532	0.860838	0.536823
C	-0.04859	1.414748	-2.035701
N	0.185796	2.482196	-2.461862
C	-1.589749	-0.380682	-2.190293
N	-2.278382	-0.562958	-3.129685
Cl	-2.962491	0.0	0.0
