11

C	0.0	0.0	0.0
C	-0.486636	-0.115179	-1.452229
Cl	1.768819	0.0	0.0
H	-1.594136	-0.123234	-1.369631
H	-0.371685	-0.849687	0.568126
H	-0.372348	0.926062	0.432204
C	-0.016556	-1.353467	-2.078724
N	0.351293	-2.339944	-2.598809
C	-0.052974	1.019696	-2.269663
N	0.284098	1.920054	-2.942695
Cl	-3.307942	0.0	0.0
