11

C	0.0	0.0	0.0
C	-0.562706	0.000104	-1.420715
Cl	1.76874	0.0	0.0
H	-1.669864	9.9e-05	-1.248203
H	-0.360655	0.885613	0.517874
H	-0.360657	-0.885689	0.517744
C	-0.183157	-1.199463	-2.164349
N	0.097671	-2.171572	-2.760481
C	-0.183142	1.19977	-2.164184
N	0.097688	2.17196	-2.760181
Cl	-3.371012	0.0	0.0
