11

C	0.0	0.0	0.0
C	-0.454646	-0.526862	-1.394299
Cl	1.77179	0.0	0.0
H	0.457119	-0.727573	-1.971604
H	-0.365744	-0.644978	0.79222
H	-0.360891	1.009494	0.167195
C	-1.168657	0.474053	-2.194651
N	-1.532839	1.271918	-2.975352
C	-1.134552	-1.823811	-1.330535
N	-1.448192	-2.955365	-1.366422
Cl	-3.035406	0.0	0.0
