16
Coordinates from ORCA-job run
  C   -0.36151476400897      0.19718059561826      0.60638595826386
  C   0.91126278816099      0.37060690716943     -0.23841610507431
  F   -0.05518873981623      0.41995767308073      1.91287497601674
  H   1.41834965268497      1.27851466097857      0.10206265786160
  C   -1.09837181264766     -1.09585579786311      0.43062191102735
  H   -0.47259859543342     -1.90751700473343      0.79954703438715
  H   -2.01943254868191     -1.06394116083346      1.01109851595191
  H   -1.35286084681477     -1.26182536054438     -0.61603308375457
  N   -1.23642318532631      1.39841895901724      0.20565676647887
  O   -0.70369009375791      2.49363220213288      0.35737918891337
  O   -2.36943487945097      1.18115445210418     -0.20411332093495
  C   0.57959693053449      0.46723407903642     -1.65270262556136
  N   0.25172492640096      0.55117995879430     -2.77752590269717
  N   1.91440888469419     -0.75756669782338     -0.03314585655257
  O   1.92124901811436     -1.29508739104200      1.06565349910120
  O   2.67292326534819     -0.97708607509225     -0.96734361342712
