16
Coordinates from ORCA-job run
  C   -0.47634210153782      0.31888128305353      0.09518577292124
  C   0.85926476798439     -0.35193859696560     -0.24568756737931
  F   -0.38158077883680      1.64278642138509     -0.17722989533151
  H   0.69693780562835     -1.42732077968917     -0.35781987071227
  C   -0.92723629566404      0.10478001192323      1.51767607648952
  H   -1.91551106927743      0.55330684333856      1.63594581455842
  H   -0.98310433134030     -0.95838343338081      1.75167101818829
  H   -0.23250473752824      0.59751091082040      2.19807114450186
  N   -1.55267090559444     -0.27404045351061     -0.81494751270980
  O   -2.28562597658289      0.50479140726904     -1.39830888045973
  O   -1.61080134260462     -1.49817606881188     -0.80836939020568
  C   1.86555836114305     -0.07746634437146      0.76850167126388
  N   2.63218198201682      0.12062521677014      1.63593016821058
  N   1.33250863145734      0.14063427987324     -1.60551943876269
  O   0.50807255305993      0.02597921907824     -2.50258856466343
  O   2.46985343767672      0.57803008321806     -1.69251054590935
