16
Coordinates from ORCA-job run
  C   -0.48578004322864      0.30161472838981      0.10177544940214
  C   0.87348562516463     -0.31767650218676     -0.24313779328890
  F   -0.41529533630725      1.64137238559716     -0.08781418490700
  H   0.73964542434108     -1.38776815008524     -0.42287244967985
  C   -0.96695219629472     -0.00830719544299      1.49647389286458
  H   -0.30143466402986      0.45783757889612      2.22324685444359
  H   -1.96815578416490      0.41033646760270      1.61554387101218
  H   -1.00339191596860     -1.08461319023867      1.66491764220718
  N   -1.52456346520314     -0.25851075756916     -0.87050713477926
  O   -1.55420732574169     -1.48177937635564     -0.93895539110770
  O   -2.26096570730911      0.53804667456465     -1.42499827694865
  C   1.84761342737547     -0.08057452202491      0.81101136891878
  N   2.58692170732122      0.08455203535299      1.70854230536108
  N   1.36794410890934      0.26569239969569     -1.55900245480456
  O   0.56938580280666      0.18467192354477     -2.48272731560828
  O   2.49575034232951      0.73410550025949     -1.59049638308533
