16
Coordinates from ORCA-job run
  C   -0.53638425845880      0.20057205239478      0.09801522690800
  C   0.91838945838561     -0.14181493631395     -0.24368047246631
  F   -0.73920632399335      1.52056070020111     -0.13027245985850
  H   1.00183845507459     -1.22145833622028     -0.39422575730888
  C   -0.93914570541701     -0.15834745148628      1.50571417012817
  H   -0.37632998634825      0.45174907065694      2.21232700314883
  H   -2.00307929401087      0.05574774979375      1.62356573768500
  H   -0.75925287106316     -1.21484291754561      1.70408435477437
  N   -1.44491019381762     -0.58659167158954     -0.84722511957982
  O   -2.32944665998858      0.02787683572680     -1.41663502258221
  O   -1.22721022435857     -1.79221629914814     -0.88043972958206
  C   1.82942755564945      0.31567373323608      0.79419590753763
  N   2.52481391306229      0.65141200710573      1.67915614285700
  N   1.27929312017300      0.49212499580767     -1.57903827169673
  O   0.51046729810108      0.22452168311466     -2.49276669840903
  O   2.28873571701019      1.17803278426629     -1.63377501155544
