13
Coordinates from ORCA-job run
  C   -0.35725713779946     -0.35566611646898      0.46949299871679
  C   0.72635006399312      0.23737873341256     -0.41901436859805
  H   -0.27103094828733      0.07662827323333      1.47399684752423
  H   0.65601857610876     -0.21366256471335     -1.41431332677641
  H   -0.16265486039018     -1.42701203650698      0.57160592942629
  H   0.53742035726648      1.31633543939585     -0.54293917193171
  C   -1.76016071967777     -0.11021927180822     -0.07602727867230
  H   -1.87803202417817     -0.55894485110278     -1.06610327038105
  H   -2.52307667217389     -0.54107821446719      0.57622283747275
  H   -1.96761085239042      0.95938807816213     -0.16850748023514
  N   2.05301210297088     -0.07050702129931      0.11773402707049
  H   2.76834235808100      0.26591131635214     -0.51556097749261
  H   2.18067975647698      0.42144823581078      0.99441323387672
