13
Coordinates from ORCA-job run
  C   -0.35779709909443     -0.05183226849250     -0.55331168194562
  C   0.65677324544067      0.02180616918200      0.57685114971559
  H   -0.11935203248357      0.72141048540626     -1.29034415414287
  H   0.51177221132980     -0.78905940950047      1.29281770599101
  H   -0.25678974924242     -1.02018571086158     -1.04856768841021
  H   0.64312794008019      0.98528157027334      1.08436444971109
  C   -1.77689901320964      0.13913993208704     -0.02766845379423
  H   -1.89135179557111      1.10980507490695      0.46099920672381
  H   -2.03678638082633     -0.63685332298930      0.69668179397601
  H   -2.50160514075551      0.08960265682241     -0.84246044322723
  N   2.03514003113832     -0.14659064470740      0.03143437132768
  O   2.77940169833934      0.83184841170311      0.04119722216486
  O   2.31436608485471     -1.25437294382985     -0.42199347808989
