13
Coordinates from ORCA-job run
  C   -0.50749338650235     -0.65637339118169     -0.40868186238101
  C   0.74868912230453     -0.68775404384203      0.44775992712902
  H   -0.21285004717063     -0.70562177018971     -1.45966389132134
  H   1.38755901954359     -1.53632260866573      0.19853602032746
  H   -1.07645512794313     -1.56522733616355     -0.18857816072549
  H   0.52678071999221     -0.67666400412434      1.51410443526684
  C   -1.36135823017653      0.58054087331654     -0.15011900507574
  H   -2.28767510127543      0.53546501961734     -0.72596278825859
  H   -1.62376325234750      0.66729286309090      0.90728163465599
  H   -0.83684116596191      1.49307679300689     -0.44116977259482
  N   1.55608174623676      0.53816018145551      0.17782195838858
  O   2.01915382319846      0.65070746220361     -0.95507152404245
  O   1.66917188010192      1.36271996147626      1.08274302863156
