16

C	0.0	0.0	0.0
C	-0.562733	0.489726	-1.327623
F	1.361887	0.0	0.0
H	-1.509192	0.997997	-1.14637
H	-0.380166	-0.984306	0.265447
N	-0.338943	0.901635	1.16194
O	-0.358709	2.108782	0.946155
O	-0.439039	0.35057	2.253875
C	-0.774098	-0.680998	-2.269948
H	0.134372	-1.276039	-2.379262
H	-1.078319	-0.319907	-3.254951
H	-1.592484	-1.274849	-1.860567
N	0.369324	1.482117	-1.964924
O	1.378142	1.040602	-2.514334
O	0.05299	2.671448	-1.927213
Cl	-3.384901	0.0	0.0
