16

C	0.0	0.0	0.0
C	-0.456219	0.049758	-1.443036
F	1.348222	0.0	0.0
H	0.178316	0.775964	-1.953263
H	-0.391219	-0.83497	0.574625
N	-0.391341	1.261916	0.723852
O	-0.718327	1.142508	1.901088
O	-0.254768	2.316147	0.105831
C	-1.924368	0.328325	-1.693715
H	-2.128588	0.179625	-2.75612
H	-2.610579	-0.280851	-1.102346
H	-2.145086	1.366828	-1.450067
N	-0.086672	-1.271679	-2.062496
O	0.17709	-1.251143	-3.262025
O	-0.109986	-2.279021	-1.358218
Cl	-4.80689	0.0	0.0
