16

C	0.0	0.0	0.0
C	-0.56235	0.566697	-1.297906
F	1.350727	0.0	0.0
H	-1.532047	1.013838	-1.087476
H	-0.394259	-0.993103	0.204892
N	-0.353817	0.837719	1.203092
O	-0.367546	2.054995	1.04865
O	-0.470966	0.23324	2.264647
C	-0.691034	-0.540348	-2.327825
H	0.257218	-1.066857	-2.457502
H	-0.998988	-0.126869	-3.290645
H	-1.473039	-1.217865	-1.981656
N	0.32043	1.646692	-1.853139
O	1.398302	1.305816	-2.343214
O	-0.10794	2.799166	-1.838065
Cl	-3.391259	0.0	0.0
