14

C	-0.533147	-0.012816	-1.408626
C	0.0	0.0	0.0
Br	0.370584	-1.550118	-2.347997
H	1.089316	0.0	0.0
H	-0.289572	-0.950629	0.462871
N	-1.935615	-0.045742	-1.52625
H	-2.227153	-0.122664	-2.491652
H	-2.319812	-0.795281	-0.968964
N	-0.086375	1.210968	-2.210328
O	-0.618721	1.352512	-3.30951
O	0.736983	1.956534	-1.705537
C	-0.561869	1.096096	0.766609
N	-0.998352	1.972912	1.417074
F	2.517478	0.0	0.0
