14

C	-0.107972	-0.077481	-1.51579
C	0.0	0.0	0.0
Br	-0.242224	1.874387	-2.205685
H	1.093014	0.0	0.0
H	-0.469451	0.867519	0.453557
N	0.96306	-0.734015	-2.058254
H	0.753939	-1.58945	-2.540389
H	1.807084	-0.647945	-1.446577
N	-1.440363	-0.662927	-1.989825
O	-1.405062	-1.569463	-2.825034
O	-2.453889	-0.205687	-1.474429
C	-0.47076	-1.240877	0.578106
N	-0.853349	-2.262274	1.03082
F	2.627211	0.0	0.0
