14

C	-0.572043	-0.033809	-1.395303
C	0.0	0.0	0.0
Br	0.298319	-1.450069	-2.430842
H	1.089124	0.0	0.0
H	-0.305324	-0.935936	0.479485
N	-1.973764	-0.231957	-1.448954
H	-2.418941	0.413784	-0.80436
H	-2.311882	-0.060035	-2.38847
N	-0.176027	1.268438	-2.161435
O	0.781566	1.910377	-1.760764
O	-0.878137	1.547311	-3.13523
C	-0.572154	1.117028	0.726179
N	-1.071567	2.018558	1.296093
F	2.516986	0.0	0.0
