14

C	-0.352775	-0.02631	-1.442875
C	0.0	0.0	0.0
Br	-2.449191	-0.558004	-1.665644
H	1.094005	0.0	0.0
H	-0.339538	-0.905294	0.499332
N	-0.052818	1.101025	-2.147503
H	-0.326652	1.959252	-1.69414
H	-0.248887	1.055391	-3.134618
N	0.246993	-1.239703	-2.139583
O	0.405534	-2.248225	-1.470935
O	0.489214	-1.117212	-3.336485
C	-0.527354	1.187882	0.626289
N	-0.937978	2.188108	1.090912
F	2.481337	0.0	0.0
