14

C	-0.488959	0.01254	-1.424107
C	0.0	0.0	0.0
Br	0.053686	1.661624	-2.312191
H	1.091806	0.0	0.0
H	-0.324609	-0.937817	0.46137
N	-0.011818	-1.103862	-2.14476
H	-0.491124	-1.245164	-3.022083
H	0.038112	-1.935907	-1.562247
N	-2.064646	-0.012714	-1.480588
O	-2.635753	0.419406	-2.480828
O	-2.61695	-0.612554	-0.557103
C	-0.535296	1.09856	0.77877
N	-0.95543	1.980653	1.429139
F	2.520935	0.0	0.0
