13

C	-0.539565	0.056069	-1.429776
C	0.0	0.0	0.0
Cl	0.151033	-1.2763	-2.386747
H	1.091681	0.0	0.0
H	-1.620411	-0.094443	-1.411994
C	-0.242285	1.340074	-2.05552
N	-0.076415	2.37719	-2.581127
N	-0.496894	-1.272865	0.653868
O	-1.618085	-1.6644	0.329453
O	0.238091	-1.788997	1.48317
C	-0.528402	1.107518	0.78587
N	-0.977556	2.000766	1.403718
Br	3.328247	0.0	0.0
