13

C	-0.38424	-0.121327	-1.469141
C	0.0	0.0	0.0
Cl	-2.088808	0.299662	-1.824434
H	1.103891	0.0	0.0
H	0.232195	0.617971	-1.988899
C	-0.078969	-1.438064	-2.02288
N	0.13037	-2.475622	-2.530054
N	-0.496625	-1.132825	0.850772
O	-1.305828	-1.915119	0.356265
O	-0.050231	-1.174644	1.989924
C	-0.457196	1.246997	0.591599
N	-0.81637	2.267017	1.049727
Br	3.266533	0.0	0.0
