13

C	-0.429081	-0.265563	-1.444658
C	0.0	0.0	0.0
Cl	0.082929	1.102461	-2.462967
H	1.103548	0.0	0.0
H	0.107876	-1.147622	-1.793364
C	-1.870846	-0.465421	-1.577122
N	-3.031434	-0.605167	-1.690324
N	-0.389138	-1.166391	0.861895
O	-0.521656	-0.962677	2.061802
O	-0.478131	-2.255713	0.29854
C	-0.549728	1.22748	0.545433
N	-0.99254	2.238334	0.947832
Br	3.266259	0.0	0.0
