13

C	-0.423737	0.331414	-1.423542
C	0.0	0.0	0.0
Cl	-2.210601	0.374248	-1.593078
H	1.103764	0.0	0.0
H	-0.075339	1.350175	-1.611289
C	0.14689	-0.53231	-2.453456
N	0.565554	-1.14815	-3.360627
N	-0.449627	-1.355071	0.439307
O	-0.535662	-2.214269	-0.431306
O	-0.645441	-1.518418	1.638042
C	-0.475896	1.011707	0.929655
N	-0.827531	1.876463	1.641743
Br	3.243067	0.0	0.0
