13

C	-0.427766	0.190729	-1.44728
C	0.0	0.0	0.0
Cl	-2.211837	0.118797	-1.632344
H	1.103112	0.0	0.0
H	-0.133694	1.208196	-1.718068
C	0.204977	-0.720173	-2.398597
N	0.680683	-1.366362	-3.256902
N	-0.416682	-1.325317	0.559093
O	-0.618518	-1.384396	1.766884
O	-0.454715	-2.264982	-0.227764
C	-0.501835	1.076483	0.836378
N	-0.908406	1.987715	1.45542
Br	3.248851	0.0	0.0
