13

C	-0.468269	0.075209	-1.443526
C	0.0	0.0	0.0
Cl	-0.539015	-1.698351	-2.150068
H	1.098013	0.0	0.0
H	-1.511632	0.35518	-1.534732
H	-0.290217	0.976804	0.414248
N	0.362349	0.900675	-2.158024
H	1.331745	0.943808	-1.881387
H	0.001604	1.58715	-2.786549
N	-0.637691	-1.037537	0.806581
H	-0.278448	-0.928113	1.752919
H	-0.310881	-1.936954	0.484109
Br	3.701051	0.0	0.0
