13

C	-0.503873	0.016146	-1.420225
C	0.0	0.0	0.0
Cl	0.039077	-1.591788	-2.24069
H	1.101785	0.0	0.0
H	-1.589619	-0.066583	-1.470972
H	-0.346428	0.94654	0.434177
N	-0.044369	1.157692	-2.120708
H	0.970945	1.197936	-2.08026
H	-0.347896	1.143025	-3.086549
N	-0.630376	-1.104546	0.751529
H	-0.147368	-1.95435	0.473095
H	-0.379779	-0.970136	1.727
Br	3.125766	0.0	0.0
