13

C	-0.572612	-0.029763	-1.400291
C	0.0	0.0	0.0
Cl	-0.027788	1.50463	-2.292449
H	1.096224	0.0	0.0
H	-0.119852	-0.82584	-1.990408
H	-0.335987	-0.929817	0.471282
N	-1.986602	-0.152649	-1.349634
H	-2.40648	0.00348	-2.25646
H	-2.326057	0.537306	-0.68713
N	-0.593496	1.125982	0.741419
H	-0.426626	0.968017	1.728219
H	-0.060922	1.95481	0.499771
Br	3.748022	0.0	0.0
