13

C	-0.57284	-0.033991	-1.400481
C	0.0	0.0	0.0
Cl	-0.02658	1.496457	-2.300795
H	1.096195	0.0	0.0
H	-0.122928	-0.834235	-1.986553
H	-0.336116	-0.928541	0.473877
N	-1.986937	-0.152445	-1.349834
H	-2.407091	-0.00266	-2.25711
H	-2.324533	0.542803	-0.692646
N	-0.59289	1.127976	0.738779
H	-0.42164	0.974412	1.725466
H	-0.06269	1.956666	0.491389
Br	3.743022	0.0	0.0
