13

C	-0.460594	0.091962	-1.448864
C	0.0	0.0	0.0
Cl	-0.263825	-1.512078	-2.24139
H	1.093764	0.0	0.0
H	-1.529218	0.315177	-1.493474
H	-0.370091	-0.911325	0.483124
N	0.249837	1.086659	-2.218838
H	1.243345	0.877181	-2.132633
H	0.10333	1.957761	-1.71679
N	-0.435924	1.237593	0.666849
H	-1.244647	1.06316	1.248415
H	0.312823	1.561446	1.265647
Br	3.667074	0.0	0.0
