17

C	-0.140376	-0.037997	-1.50982
C	0.0	0.0	0.0
Br	-2.049775	-0.200925	-2.145697
H	1.100093	0.0	0.0
H	0.136022	0.947961	-1.890873
C	0.740235	-1.093246	-2.147208
H	1.719375	-0.941027	-1.663888
H	0.809021	-0.964324	-3.229654
H	0.378784	-2.102875	-1.940184
C	-0.526261	-1.225283	0.718154
H	-0.244545	-1.15075	1.770004
H	-1.618496	-1.29774	0.654618
H	-0.09119	-2.142389	0.314049
N	-0.509355	1.216446	0.625297
H	0.119118	1.977018	0.3863
H	-1.427796	1.438273	0.246331
F	2.724523	0.0	0.0
