14
Coordinates from ORCA-job run
  C   -0.44204803445690      0.28540782394911     -0.41144289348237
  C   1.04297995482882      0.02798488354661     -0.08064786597378
  Cl  -0.56587122973994      1.17217999810490     -1.93321533190498
  H   1.54993749012694      0.99615563950031     -0.03576280963172
  N   -0.95710094495478      1.29226318559661      0.68165068185539
  O   -2.11573629524006      1.13515078483537      1.03946223868778
  O   -0.17246183603339      2.14991837288005      1.06475390812510
  N   -1.17846461980516     -0.89977956870686     -0.47004401178776
  H   -1.14528378958630     -1.41182175494901      0.40460646317207
  H   -2.14060270491351     -0.73408023104517     -0.73564459847125
  C   1.65895375930727     -0.80678799059238     -1.11234850577419
  N   2.18988235229060     -1.45813972936999     -1.93182093647937
  C   1.13324862844258     -0.61485628552668      1.23389612603278
  N   1.14156726973382     -1.13359512822287      2.28755753563228
