14
Coordinates from ORCA-job run
  C   -0.43209779174567      0.30030000635856     -0.41177756732550
  C   1.04364428521616     -0.00663914167076     -0.08077165735368
  Cl  -0.52621632054788      1.19101478729827     -1.93333444168080
  H   1.58242042809244      0.94429685072798     -0.03793659253171
  N   -0.91173857562400      1.32431697241854      0.68232384304646
  O   -2.07052364489787      1.19900372097882      1.05203957427322
  O   -0.10198395262472      2.16403746515923      1.05328439885729
  N   -1.20805208928076     -0.85880509689571     -0.47002889775580
  H   -1.19098237297760     -1.37364586915094      0.40325632518728
  H   -2.16374579877817     -0.66215350423841     -0.73684555240760
  C   1.62962121806491     -0.86389627036259     -1.11169667358906
  N   2.13312337721643     -1.53756166495686     -1.93050127932643
  C   1.11214450503089     -0.65085357019581      1.23455381200714
  N   1.10438673285583     -1.17141468547033      2.28743470859916
