14
Coordinates from ORCA-job run
  C   0.99819873671305      0.14625930722674      0.05437628189279
  C   -0.36121079361294     -0.57227061174908     -0.00173801781150
  F   1.87446272507875     -0.69537472929919     -0.62147206217422
  H   -0.28448343016601     -1.48248162683492      0.61252551127871
  C   1.48735855722995      0.28615129390123      1.43218608855277
  N   1.88652569059299      0.32573860439465      2.53618483008644
  C   0.96647410235640      1.43787606493964     -0.64209432826182
  N   0.98671950289125      2.47004074530924     -1.20169027992146
  N   -0.74266073365716     -0.74842855627871     -1.37095944686294
  H   -0.06867855246050     -1.33658859047074     -1.84446789020483
  H   -1.65600049633936     -1.18413151744800     -1.41603025252980
  N   -1.42994041120601      0.25945092783320      0.65805323462226
  O   -2.57029565921830     -0.16846244125969      0.53018256952456
  O   -1.08646923820211      1.26322112973564      1.27494376180903
