14
Coordinates from ORCA-job run
  C   0.73517957656423      0.55089327926591      0.02798634710281
  C   -0.40198911713446     -0.51257218397051     -0.08598687401082
  F   0.40568302887958      1.66944117891441     -0.70266850631388
  H   -0.01207508843066     -1.47680451803250      0.24040264420163
  C   1.94243006732551     -0.04552844732434     -0.56404781406192
  N   2.89849606101663     -0.53807563440543     -1.03573304544563
  C   0.98261978787457      0.94426369623150      1.41990591609481
  N   1.14934336647583      1.23156502425391      2.54622465934936
  N   -0.96586775386666     -0.62301285162679     -1.38939317841492
  H   -0.46591098797736     -1.29127352464779     -1.95166228084998
  H   -1.03064529666328      0.26507078164025     -1.86297597336788
  N   -1.48024880948132     -0.14661135049946      0.88918760892063
  O   -1.69215794732183     -0.93995131586266      1.80041813312858
  O   -2.06385688726080      0.91259586606350      0.66934236366722
