14
Coordinates from ORCA-job run
  C   0.86436469685536      0.34120435829274     -0.13990648246356
  C   -0.51252465425843     -0.30454731470797      0.17535377203730
  F   1.06064082598514      0.39282902168313     -1.49667804809488
  H   -0.56014013560095     -0.52073167960958      1.24367760302207
  C   1.87567492324467     -0.55749622962660      0.44655147127942
  N   2.62011578035993     -1.30954063317829      0.95824997744531
  C   0.99807706491711      1.67628416090164      0.45856631197921
  N   1.07316866940584      2.70544989784876      1.01912144814187
  N   -0.78716492859903     -1.46335369081908     -0.59243618199566
  H   -0.39690446715400     -1.42727041337616     -1.52315371908091
  H   -0.54902026106727     -2.32184820302476     -0.12100502269845
  N   -1.61930988685366      0.70334445027976     -0.07092098582162
  O   -2.63804735764554      0.53902417472943      0.58800539800342
  O   -1.43093026958915      1.54465210060698     -0.94542554175352
