14
Coordinates from ORCA-job run
  C   0.81555942937391      0.29109884826599      0.61911814292215
  C   -0.43026780622013     -0.51408747687263      0.18010872466881
  F   0.77742833501616      0.57544722400415      1.95884525561179
  H   -0.58203585831065     -1.30646861182520      0.91842280740570
  C   0.89401589754589      1.53724905115136     -0.16320152945721
  N   0.91974352074815      2.49509498080946     -0.84306292758046
  C   2.01402695053571     -0.52770237283309      0.36563041809337
  N   2.99176849122985     -1.16463756957718      0.23202057982501
  N   -0.23655697105023     -1.04151553025893     -1.11226653559233
  H   -0.29856854820709     -0.32751792222393     -1.82829402332627
  H   -0.90035877876076     -1.77204511632022     -1.32534682362672
  N   -1.68359853695539      0.38413697255293      0.30239175684661
  O   -1.73831049877458      1.15171518326359      1.25461366259337
  O   -2.54084562617085      0.22023233986372     -0.55797950838383
