14

C	0.0	0.0	0.0
C	-0.412236	-0.265047	-1.504977
Cl	1.782498	0.0	0.0
H	0.528272	-0.386163	-2.048386
H	-0.36838	0.952657	0.366052
C	-0.419747	-1.109989	0.848793
N	-0.575446	-2.066311	1.513102
N	-0.933986	1.048704	-2.080421
O	-0.440748	2.071876	-1.607624
O	-1.690339	1.00364	-3.035198
N	-1.252741	-1.345026	-1.854668
H	-0.774086	-2.219958	-1.686866
H	-2.113203	-1.280572	-1.305114
Cl	-3.236315	0.0	0.0
