14

C	0.0	0.0	0.0
C	-0.572687	-0.451078	-1.368722
Cl	1.78216	0.0	0.0
H	-1.538987	-0.911004	-1.158266
H	-0.356226	1.012008	0.181478
C	-0.400568	-0.856571	1.117937
N	-0.571825	-1.522879	2.069428
N	0.315354	-1.53983	-1.915971
O	0.993979	-1.311636	-2.911879
O	0.313327	-2.591467	-1.278271
N	-0.761047	0.580942	-2.324039
H	-1.635231	1.039369	-2.089888
H	0.004537	1.242034	-2.33946
Cl	-3.322076	0.0	0.0
