14

C	0.0	0.0	0.0
C	-0.430497	0.39608	-1.435534
Cl	1.798812	0.0	0.0
H	0.471505	0.61791	-2.010109
H	-0.344506	0.735831	0.721292
C	-0.418059	-1.346372	0.379275
N	-0.550763	-2.463006	0.718363
N	-1.062413	1.815475	-1.394678
O	-0.717309	2.581032	-0.499616
O	-1.732383	2.124358	-2.371744
N	-1.177537	-0.577792	-2.125422
H	-1.350098	-0.262759	-3.072228
H	-2.073461	-0.679926	-1.635435
Cl	-3.277723	0.0	0.0
