14

C	0.0	0.0	0.0
C	-0.430926	-0.138555	-1.487589
Cl	1.776849	0.0	0.0
H	0.472518	-0.123227	-2.101996
H	-0.35622	0.940552	0.411919
C	-0.4247	-1.120697	0.835416
N	-0.60809	-2.013046	1.576128
N	-1.078977	1.195095	-1.955289
O	-1.731714	1.128833	-2.989145
O	-0.761426	2.229663	-1.37914
N	-1.162103	-1.303364	-1.786565
H	-2.055554	-1.237223	-1.288889
H	-1.339105	-1.339174	-2.782656
Cl	-3.247209	0.0	0.0
