16

C	-0.554686	0.008139	-1.431971
C	0.0	0.0	0.0
Cl	0.24996	-1.190071	-2.448966
H	1.094992	0.0	0.0
C	-1.995112	-0.239748	-1.412745
N	-3.138041	-0.493186	-1.32428
N	-0.332571	1.365495	-2.10121
O	0.668823	1.982346	-1.770543
O	-1.151638	1.701294	-2.951215
N	-0.430367	-1.236098	0.600911
H	-1.362004	-1.156932	0.99404
H	0.23257	-1.523631	1.308694
N	-0.54977	1.19905	0.649182
H	-0.676944	0.983216	1.630318
H	0.151613	1.93044	0.594309
Cl	3.399839	0.0	0.0
