16

C	-0.473774	0.009727	-1.475413
C	0.0	0.0	0.0
Cl	0.005908	1.489283	-2.288129
H	1.099936	0.0	0.0
C	0.041488	-1.13883	-2.214684
N	0.462686	-2.069234	-2.795862
N	-2.007697	-0.09772	-1.477989
O	-2.478321	-1.209335	-1.692404
O	-2.635669	0.911605	-1.192863
N	-0.562104	-1.209836	0.618812
H	-0.138835	-1.259134	1.53962
H	-0.224132	-2.031242	0.124763
N	-0.438013	1.182843	0.679278
H	-1.303878	1.01615	1.173192
H	0.285637	1.501733	1.305892
Cl	3.336857	0.0	0.0
