16

C	-0.562678	-0.047811	-1.429966
C	0.0	0.0	0.0
Cl	0.07682	-1.422314	-2.348098
H	1.09692	0.0	0.0
C	-2.025257	-0.111524	-1.413534
N	-3.199964	-0.175949	-1.37306
N	-0.140014	1.241603	-2.150614
O	1.061507	1.403037	-2.277305
O	-1.037232	1.997902	-2.511657
N	-0.536545	-1.165587	0.714059
H	-0.081035	-1.996525	0.349348
H	-0.203397	-1.077113	1.67177
N	-0.46334	1.239445	0.568072
H	-1.340863	1.103174	1.058189
H	0.239778	1.621295	1.188704
Cl	3.415697	0.0	0.0
