16

C	-0.517863	0.026508	-1.453033
C	0.0	0.0	0.0
Cl	-2.290186	-0.017859	-1.512227
H	1.097745	0.0	0.0
C	-0.061521	1.21044	-2.172545
N	0.288856	2.195788	-2.708873
N	0.043148	-1.20842	-2.180392
O	1.191907	-1.073509	-2.57852
O	-0.661352	-2.199761	-2.264503
N	-0.441095	-1.215439	0.621172
H	0.258265	-1.534778	1.276936
H	-1.334085	-1.083922	1.079024
N	-0.516226	1.19889	0.676637
H	-0.042362	2.010868	0.286046
H	-0.172158	1.13088	1.630109
Cl	3.346166	0.0	0.0
