16

C	-0.558274	0.023626	-1.435583
C	0.0	0.0	0.0
Cl	-2.299451	0.346207	-1.445219
H	1.096051	0.0	0.0
C	0.105328	1.015403	-2.271809
N	0.587616	1.818834	-2.979046
N	-0.298124	-1.355064	-2.077148
O	0.883044	-1.67249	-2.077212
O	-1.233826	-2.004104	-2.513925
N	-0.517203	-1.217636	0.640361
H	-0.60543	-1.020562	1.629857
H	0.203538	-1.930438	0.561643
N	-0.395145	1.23293	0.628165
H	-1.323581	1.173569	1.030229
H	0.28878	1.486905	1.329696
Cl	3.358349	0.0	0.0
