16

C	-0.561705	0.007293	-1.43064
C	0.0	0.0	0.0
Cl	0.269189	-1.169839	-2.451961
H	1.095044	0.0	0.0
C	-1.997196	-0.270405	-1.412271
N	-3.13891	-0.537254	-1.339687
N	-0.373004	1.368909	-2.103701
O	0.585504	2.035522	-1.742106
O	-1.170016	1.657903	-2.99046
N	-0.424167	-1.243474	0.594756
H	0.277763	-1.569536	1.24375
H	-1.324183	-1.151586	1.04975
N	-0.567815	1.176948	0.673118
H	0.070415	1.952585	0.528943
H	-0.558414	0.978549	1.666819
Cl	3.37714	0.0	0.0
