16

C	-0.573916	0.025999	-1.423368
C	0.0	0.0	0.0
Cl	-2.354681	0.137581	-1.357091
H	1.093158	0.0	0.0
C	-0.078699	1.144028	-2.215025
N	0.25686	2.046961	-2.886884
N	-0.182139	-1.274865	-2.144706
O	0.981351	-1.292795	-2.52098
O	-1.008736	-2.164181	-2.250065
N	-0.395645	-1.24788	0.618307
H	-1.307492	-1.185667	1.054039
H	0.298972	-1.503222	1.308803
N	-0.37892	1.258581	0.622718
H	-1.252977	1.178468	1.127417
H	0.357037	1.537158	1.258966
Cl	3.303358	0.0	0.0
