15

C	0.0	0.0	0.0
C	-0.473634	-0.020442	-1.509305
Br	1.931496	0.0	0.0
H	0.434165	-0.09132	-2.119187
H	-0.355648	0.874391	0.529276
N	-0.390326	-1.172981	0.849936
O	-0.266158	-2.299413	0.375668
O	-0.729938	-0.9277	2.000688
N	-1.076664	1.294878	-1.675453
H	-1.411265	1.321754	-2.633906
H	-1.913309	1.187677	-1.078804
N	-1.367682	-1.074258	-1.935097
H	-2.164027	-0.96528	-1.285129
H	-0.935173	-1.975939	-1.769872
F	-2.676151	0.0	0.0
