15

C	0.0	0.0	0.0
C	-0.535529	-0.294729	-1.431859
Br	1.917371	0.0	0.0
H	0.329175	-0.436931	-2.086121
H	-0.33847	0.974281	0.328994
N	-0.391137	-0.940107	1.112164
O	-0.841579	-0.405833	2.122184
O	-0.160646	-2.13473	0.981301
N	-1.203948	0.954115	-1.818733
H	-2.054296	0.90474	-1.223395
H	-1.496309	0.839411	-2.785823
N	-1.325306	-1.513791	-1.472953
H	-1.613764	-1.630537	-2.440462
H	-2.159182	-1.244771	-0.917857
F	-2.837092	0.0	0.0
