15

C	0.0	0.0	0.0
C	-0.341274	0.106988	-1.569115
Br	1.927337	0.0	0.0
H	0.562561	0.600014	-1.962801
H	-0.365495	0.870867	0.530824
N	-0.438265	-1.17354	0.820408
O	-0.30297	-2.296387	0.347325
O	-0.799086	-0.928246	1.964559
N	-1.447536	0.928892	-1.950297
H	-1.21785	1.891351	-1.719243
H	-2.203276	0.60591	-1.275161
N	-0.547792	-1.206611	-2.146643
H	0.201263	-1.842477	-1.903608
H	-0.579406	-1.069963	-3.148193
F	-2.596634	0.0	0.0
