15

C	0.0	0.0	0.0
C	-0.491128	-0.307099	-1.424997
Br	1.924371	0.0	0.0
H	-1.584445	-0.274721	-1.235886
H	-0.359501	0.973316	0.305919
N	-0.458346	-0.951346	1.06351
O	-0.578168	-0.481923	2.188859
O	-0.588476	-2.138906	0.780148
N	-0.092585	-1.576095	-2.01288
H	-0.548971	-2.308364	-1.482595
H	0.907819	-1.711149	-1.884883
N	-0.087776	0.834587	-2.239433
H	-0.735328	0.871928	-3.0176
H	0.82858	0.647303	-2.635618
F	-2.604915	0.0	0.0
