15

C	-0.603674	0.00935	-1.561917
C	0.098614	-0.024604	-0.206731
Br	-2.574846	-0.007321	-1.391641
H	1.181065	-0.036026	-0.429199
H	-0.38502	-0.890868	-2.143542
C	-0.247503	1.18168	-2.352244
N	0.055505	2.077472	-3.049078
C	-0.198842	-1.302271	0.570651
H	-1.228299	-1.30417	0.94216
H	-0.042661	-2.208715	-0.028384
H	0.493655	-1.302785	1.415698
N	-0.119026	1.199841	0.527289
H	0.735381	1.248363	1.134842
H	-0.920742	1.078624	1.139682
H	2.220333	0.635561	1.721743
