15

C	-0.603669	0.017908	-1.553583
C	0.08472	-0.042596	-0.191501
Br	-2.576238	0.006062	-1.404107
H	1.162217	-0.052831	-0.402949
H	-0.382063	-0.872716	-2.148704
C	-0.234654	1.202539	-2.319224
N	0.080469	2.106109	-3.000493
C	-0.225298	-1.333633	0.558739
H	-1.259784	-1.339884	0.915911
H	-0.06262	-2.229505	-0.054292
H	0.455384	-1.350586	1.41314
N	-0.13869	1.169019	0.562128
H	0.705945	1.201239	1.184637
H	-0.950562	1.040105	1.159432
H	2.176111	0.574793	1.791416
