15

C	-0.601672	-0.000788	-1.555845
C	0.083682	-0.045546	-0.191727
Br	-2.574423	-0.007736	-1.410218
H	1.161708	-0.06239	-0.399906
H	-0.379813	-0.899258	-2.139022
C	-0.229467	1.173742	-2.335185
N	0.085454	2.074835	-3.019784
C	-0.231934	-1.325327	0.575321
H	0.449044	-1.334493	1.429601
H	-1.266108	-1.321881	0.933488
H	-0.074449	-2.229993	-0.026027
N	-0.137206	1.176559	0.545584
H	-0.948565	1.057087	1.145521
H	0.708305	1.216617	1.166229
H	2.179021	0.59445	1.777601
