15

C	-0.587899	-0.031598	-1.54931
C	0.062011	-0.119751	-0.16422
Br	-0.339022	-1.66441	-2.657141
H	1.124114	-0.341835	-0.310174
H	-0.093901	0.766252	-2.101553
C	-2.018807	0.238556	-1.473474
N	-3.174876	0.436151	-1.395283
C	-0.548412	-1.189326	0.729491
H	-1.59823	-0.959662	0.944658
H	-0.495257	-2.188917	0.288195
H	0.009422	-1.186524	1.668105
N	-0.011566	1.227944	0.35704
H	0.938806	1.358645	0.841203
H	-0.732867	1.274636	1.07101
H	2.33297	1.071493	1.379391
