14
Coordinates from ORCA-job run
  C   0.76754964424208      0.14242693949547      0.31781917939760
  C   -0.70671847846348     -0.32547928449288      0.29368579414992
  Cl  1.57401193536553     -0.86492687776381      1.63213728673179
  H   -1.06796429211712     -0.24590560130836      1.32505871024198
  N   0.84426916157057      1.53464187937538      0.51672197611434
  H   0.20440016697891      1.86264221539514      1.22745492213538
  H   1.78880536960696      1.84792682136796      0.69734134250217
  C   1.44489507495082     -0.21200661445659     -0.93543139960825
  N   1.95570580608762     -0.46920803217202     -1.96174047225272
  C   -0.76941904717174     -1.74999064892640     -0.08941187607887
  N   -0.90952714344727     -2.86105724767853     -0.44517925951358
  N   -1.50429137387318      0.55706843069589     -0.53634134200870
  H   -2.46352686815190      0.23000552621620     -0.55315316970261
  H   -1.15818995557779      0.55586249425255     -1.48996169210845
