14
Coordinates from ORCA-job run
  C   0.68647076566760      0.31357923793646      0.17627033973334
  C   -0.66564655519135     -0.19959596436930     -0.36256905808693
  Cl  1.35661225962407     -0.98727961208682      1.29425536783414
  H   -0.98957338130020      0.56147419588128     -1.08006751672191
  N   0.51785215276691      1.57136617505458      0.80271158843356
  H   1.40382105280354      1.98711111366037      1.06075704896390
  H   -0.07600765404090      1.50229734388282      1.62163163354755
  C   1.63044122061778      0.43183180261015     -0.93702330019993
  N   2.39253991346010      0.58091992674115     -1.81772818207675
  C   -1.64265301140196     -0.21046017135054      0.74556557275664
  N   -2.42448789182638     -0.24477480318889      1.62210721481358
  N   -0.50168023205033     -1.45103983193560     -1.06125844962946
  H   -0.38553587801833     -2.21946177083530     -0.41286618421069
  H   -1.30215276111056     -1.63696764200038     -1.65078607515703
