14
Coordinates from ORCA-job run
  C   0.84723106960268      0.06942934429904      0.39304998344462
  C   -0.65440288103796     -0.31176370174145      0.25450531148206
  Cl  1.57466832291284     -0.99080228982162      1.62746695565139
  H   -1.10260609034067     -0.12492042147881      1.23593080588517
  N   1.05704908455518      1.44093597707644      0.77566080299464
  H   0.46157456410520      2.01772287568899      0.18760989552292
  H   0.78514646347327      1.56579328108248      1.74485239352316
  C   1.49537496952047     -0.17813079250594     -0.90233328526059
  N   1.94702056707550     -0.40268666562941     -1.96353733427322
  C   -0.82983677106968     -1.73628497391966     -0.06918021655675
  N   -1.01352969782701     -2.86803656436597     -0.32600387087912
  N   -1.24818506333563      0.59764690808693     -0.71372560246790
  H   -2.25140572145664      0.64616449767351     -0.58712091178964
  H   -1.06809881617758      0.27693252555547     -1.65917492727676
