14
Coordinates from ORCA-job run
  C   0.70638935041371      0.16911125922352      0.26120275841548
  C   -0.71157708879189     -0.12718685645686     -0.26518386017216
  Cl  1.42948116921661     -1.34674855827152      0.87427641118371
  H   -1.10671803832469      0.83310174429008     -0.62012822948214
  N   0.61803467207489      1.09469061133980      1.36186623629595
  H   0.32389286932381      2.00545670076030      1.02306581194212
  H   1.52034487519971      1.19683964421086      1.81226302875646
  C   1.53731172139233      0.64111532621611     -0.86078016704751
  N   2.20207305796728      1.12897160815950     -1.69850282862674
  C   -1.56810147210501     -0.58007852195606      0.84732145362744
  N   -2.30681007372012     -1.00513904422716      1.65558890684379
  N   -0.64765676758217     -1.02560933818879     -1.39631550227395
  H   -0.47603566630867     -1.97425966021375     -1.08569332183486
  H   -1.51862860875578     -1.01126491488602     -1.91098069762761
