14
Coordinates from ORCA-job run
  C   0.70600229207316      0.11976481657950      0.45504177789735
  C   -0.57161177330944     -0.69486832696427      0.13941123428095
  Cl  0.97503383871341      0.12950428509766      2.21373868290827
  H   -0.41620207469406     -1.71694621507744      0.49858095397328
  N   0.50064705419343      1.48192883659369      0.01060326649267
  H   1.21722476595395      2.08687325766024      0.39475144387898
  H   0.55598666917830      1.52342845996671     -1.00324371926600
  C   1.86912281225133     -0.54313275462553     -0.16189520393852
  N   2.78836123567964     -1.04401808257837     -0.69738048168150
  C   -0.70583098190809     -0.73144397914424     -1.33484022584305
  N   -0.85544911348758     -0.70177330256348     -2.50050954899753
  N   -1.69942156441803     -0.11368737051842      0.82642184431661
  H   -1.82265528745820      0.84493942609384      0.52401253597243
  H   -2.54120787276783     -0.64156905051989      0.63530744000607
