14
Coordinates from ORCA-job run
  C   0.82612957374044      0.07722829887550      0.15765597395619
  C   -0.67399093404803     -0.01169591505151     -0.23884316282143
  Cl  1.41054580665237     -1.59927382660455      0.43047471810608
  H   -0.97829609902923      1.01915275830127     -0.45566593721307
  N   1.11080677454329      0.84079734336481      1.33800396419461
  H   0.59054087285696      0.49140362488787      2.13475538489900
  H   0.92090130211658      1.82529414882919      1.19259595261438
  C   1.55427551305481      0.65832947522797     -0.97611131224061
  N   2.12068699358853      1.19005554424443     -1.85644203879779
  C   -1.44222458526237     -0.45933160027577      0.94096846296629
  N   -2.06102088739350     -0.83606586595824      1.86614984889401
  N   -0.85344936265596     -0.79225101916181     -1.43866275977565
  H   -1.76165398686833     -0.62115723816927     -1.84957582591246
  H   -0.76225098129553     -1.78148572850991     -1.24530326886955
