15
Coordinates from ORCA-job run
  C   -0.36953491088872     -0.46099892446509     -0.52595184313218
  C   0.94806810167738      0.13647580933400     -0.02032823921838
  Br  0.04779399511926     -1.51731315309135     -2.10130054424584
  H   1.45492299092882      0.66053795545023     -0.83066961061881
  N   -1.21696690663350      0.73615522586698     -1.07256402177157
  O   -0.60026843981021      1.68825454440953     -1.53415739523418
  O   -2.42858324678436      0.60069815855164     -1.00686301377960
  N   -1.03213964283882     -1.25451600852472      0.41337763236433
  H   -1.31110155880994     -0.69992470473802      1.21423088967846
  H   -1.83377734515346     -1.72331543288913      0.01271666360104
  C   1.81065963084705     -0.88356145457614      0.55876752818023
  N   2.52983665858836     -1.68599213042036      1.02567727976353
  N   0.71590112466386      1.21077667411558      1.03662654852214
  O   -0.39967270940320      1.28260959526140      1.54248758014291
  O   1.68386225849747      1.91011384571545      1.28795054574790
