15
Coordinates from ORCA-job run
  C   -0.49010694240673     -0.32854287200754     -0.47530378446652
  C   0.73664124102604     -0.27582142155610      0.44025630396360
  Br  0.03281290230459     -1.18464267687748     -2.18454347368249
  H   1.09454203223892     -1.30423082771894      0.55739160064090
  N   -1.03508285427868      1.06639632457646     -0.78626783358109
  O   -0.52287389108003      2.00713975083779     -0.19653830873696
  O   -1.99590582892036      1.09558597622262     -1.54061653191314
  N   -1.54214982517215     -0.98158883552443      0.19454923753616
  H   -1.30266557029350     -1.92941487647397      0.45818277313165
  H   -2.38280460084106     -0.98422254280501     -0.37299207806150
  C   0.43009741896973      0.26727567007835      1.75925507015022
  N   0.22482097725577      0.66938862167388      2.84347930994327
  N   1.95288798815922      0.46359727923933     -0.11429377863955
  O   2.95115537500285      0.34727712190515      0.58372101603455
  O   1.84763157803539      1.07380330842988     -1.16527952231911
