15
Coordinates from ORCA-job run
  C   -0.43673860839634     -0.29668699949915     -0.49576130328954
  C   0.96797245376015      0.08211008639008     -0.00959814886155
  Br  -0.20190405726245     -1.59176698123558     -2.00437733024041
  H   1.47565244633375      0.65310356089056     -0.78993327781885
  N   -1.08346343385194      0.91632348899882     -1.18599728577908
  O   -2.28030885452700      1.06854745877074     -0.98840969743852
  O   -0.36074834668119      1.58373775022621     -1.90607482522773
  N   -1.24087948876040     -0.70591290381716      0.55878526783347
  H   -2.21508478451391     -0.79542333450335      0.30209743240846
  H   -0.89392259908385     -1.53442073674590      1.02558489145923
  C   1.73133416870896     -1.08661391825664      0.39842621761798
  N   2.33934696414205     -2.03643806288489      0.72739176082330
  N   0.78871438441149      1.02143981504645      1.17998308183914
  O   0.28720799614495      2.10214475763531      0.90366319796550
  O   1.12582175957572      0.61885601898451      2.28322001870859
