15
Coordinates from ORCA-job run
  C   -0.40924131966828     -0.46022098469379     -0.49836581271283
  C   0.95093726296560     -0.06616252913705      0.08699099724216
  Br  -0.08279412595759     -1.83166660532918     -1.83411750168515
  H   1.63997924195160      0.19647532994386     -0.71578817253059
  N   -0.90949599628972      0.77442845514372     -1.32076530262463
  O   -2.12097163589277      0.90699459711588     -1.39323319388269
  O   -0.05295314490145      1.48466682027953     -1.83252005054263
  N   -1.32224679060747     -0.93049767693748      0.44833526666756
  H   -1.54892085903650     -0.20275242596394      1.11604365607774
  H   -2.16455888644109     -1.28598274408277      0.01554776478024
  C   1.50449243395455     -1.12445738771696      0.91966127690452
  N   1.98367821706785     -1.95817805643478      1.59389301726787
  N   0.85941500344707      1.19840314659027      0.93452239142376
  O   -0.25671109825459      1.57768165375617      1.27516357963994
  O   1.92839169766278      1.72126840746652      1.20463208397475
