15
Coordinates from ORCA-job run
  C   -0.49035297029360     -0.32984898485353     -0.47184434942462
  C   0.74164667699474     -0.27797653005020      0.43690231945891
  Br  0.01769609975933     -1.20233568870280     -2.17731807337320
  H   1.10406877960976     -1.30546563685125      0.54859588854924
  N   -1.02497155752224      1.06787616727363     -0.78957276304424
  O   -0.50835223121474      2.00620086177709     -0.19967051070387
  O   -1.98379118847414      1.10179587839227     -1.54614430686048
  N   -1.54540425945699     -0.96986763470639      0.20581146595884
  H   -2.38474051249968     -0.97803201504013     -0.36368335288129
  H   -1.30941712498108     -1.91487878961405      0.48258141379590
  C   0.44091728582773      0.26039265066335      1.75920017202788
  N   0.19685482389937      0.64308981928903      2.84238733634900
  N   1.95188766935930      0.46763726239822     -0.12340585761585
  O   1.84742323196967      1.05269179905126     -1.18860762886472
  O   2.94653527702258      0.37872084097350      0.58376824662850
