15
Coordinates from ORCA-job run
  C   -0.35854794998594     -0.06696541108468     -0.60645499234966
  C   0.52131521693066      0.20307002298800      0.63114417761258
  Br  0.38382487536770      0.64982535790087     -2.22115471673791
  H   -0.03605372713574     -0.12928751338560      1.51077897787318
  N   -1.68432614599247      0.73108421251973     -0.25450883863630
  O   -2.30575138347023      0.20853856792700      0.66822498606677
  O   -1.98655063189915      1.74074256859217     -0.86564486341132
  N   -0.58263084327895     -1.44564896607472     -0.74187409437360
  H   -1.01127487348057     -1.84576681079190      0.08442294385647
  H   -1.10687593501378     -1.67486687457159     -1.57584276452876
  C   0.89623162698534      1.60061496785907      0.76397462830289
  N   1.17648513688859      2.73199259307056      0.90929823957695
  N   1.74697074268248     -0.68221521047180      0.57875064574106
  O   1.64406618573943     -1.74373851291233      1.18244309670840
  O   2.70611770566262     -0.27837899156477     -0.06355742570073
