15
Coordinates from ORCA-job run
  C   -0.45308500742219     -0.38043913154175     -0.59000504404911
  C   0.90603527917087      0.15205030923032     -0.07294589181749
  Br  -0.04946247595474     -1.31971786833523     -2.24448175754834
  H   1.43757029958341      0.69759328849985     -0.85185268019934
  N   -1.26944756937122      0.87901178916182     -0.97801675413055
  O   -2.47120231904934      0.85367829723041     -0.78537794290133
  O   -0.61280124614097      1.79408172036525     -1.46214693731393
  N   -1.23279507710603     -1.20690589699197      0.22857464389379
  H   -0.83036686761387     -2.12435486863279      0.35947043919422
  H   -1.46988764533652     -0.75895712121346      1.10383240895733
  C   1.70564298521259     -0.94485232668783      0.45192458261519
  N   2.31509617440329     -1.85139187039400      0.88468143355251
  N   0.71517273929462      1.16297065129828      1.04932626942193
  O   -0.37645243585519      1.18760620282216      1.60918620517706
  O   1.68698316618528      1.85862682518895      1.29883102514806
