15

C	-0.49117	0.129124	-1.431095
C	0.0	0.0	0.0
F	-0.230995	-1.088994	-2.091884
H	1.08934	0.0	0.0
H	0.132173	0.879407	-1.925255
N	-1.864926	0.49143	-1.535316
H	-2.130699	0.563302	-2.508741
H	-2.424513	-0.21817	-1.07706
N	-0.537773	-1.303388	0.542939
O	-1.769973	-1.401133	0.630462
O	0.244065	-2.185246	0.871905
N	-0.432309	1.065331	0.853113
H	-1.187852	1.592054	0.438632
H	0.369629	1.65317	1.045827
H	2.837349	0.0	0.0
