15

C	-0.57319	0.021275	-1.397483
C	0.0	0.0	0.0
F	-2.00367	0.196152	-1.260586
H	1.089786	0.0	0.0
H	-0.467802	-0.933886	-1.903185
N	-0.017478	1.067318	-2.162813
H	-0.568472	1.238469	-2.991878
H	0.069533	1.911378	-1.614443
N	-0.407256	-1.289836	0.65888
O	-0.662963	-1.298101	1.859838
O	-0.354982	-2.306855	-0.043129
N	-0.380967	1.121945	0.781617
H	0.409648	1.726223	0.955025
H	-1.208573	1.599014	0.463553
H	2.683497	0.0	0.0
