15

C	-0.357554	-0.05517	-1.48294
C	0.0	0.0	0.0
F	-0.209476	1.270337	-1.986404
H	1.091557	0.0	0.0
H	-1.408063	-0.296235	-1.671795
N	0.512007	-0.982665	-2.082401
H	1.472442	-0.811681	-1.773434
H	0.443297	-0.980062	-3.090238
N	-0.544065	-1.262105	0.606197
O	0.224153	-2.069963	1.116101
O	-1.773242	-1.390735	0.56808
N	-0.505419	1.110779	0.748078
H	-1.283351	1.55323	0.277826
H	0.250341	1.778907	0.836841
H	2.872241	0.0	0.0
