15

C	-0.508447	-0.025123	-1.432576
C	0.0	0.0	0.0
F	-0.138051	1.18776	-2.034511
H	1.091251	0.0	0.0
H	-1.605314	-0.037508	-1.472358
N	0.029023	-1.153024	-2.098195
H	1.035307	-1.179393	-1.949623
H	-0.173375	-1.110741	-3.087928
N	-0.470748	-1.311379	0.613434
O	-1.619387	-1.319696	1.081652
O	0.277644	-2.28029	0.60777
N	-0.486102	1.122528	0.731169
H	0.149816	1.305189	1.497576
H	-1.414746	0.938533	1.088081
H	2.856958	0.0	0.0
