15

C	-0.411914	-0.260879	-1.46334
C	0.0	0.0	0.0
F	-0.961656	0.943259	-1.98376
H	1.091487	0.0	0.0
H	-1.228747	-0.980187	-1.527694
N	0.687204	-0.663619	-2.258326
H	0.617934	-1.639287	-2.501563
H	1.568585	-0.499788	-1.767134
N	-0.33989	-1.210235	0.804597
O	-0.458221	-1.089627	2.021407
O	-0.347432	-2.299964	0.21303
N	-0.5135	1.185764	0.611546
H	-0.948838	1.75395	-0.099672
H	0.269949	1.69801	1.00107
H	2.710984	0.0	0.0
