15

C	-0.39414	0.009715	-1.460744
C	0.0	0.0	0.0
F	-1.792809	0.095825	-1.551642
H	1.089951	0.0	0.0
H	-0.093982	-0.921713	-1.938914
N	0.181342	1.12506	-2.151793
H	0.068701	1.922906	-1.530879
H	1.184347	0.94569	-2.179623
N	-0.435736	-1.268133	0.652434
O	-0.939759	-1.214067	1.781277
O	-0.209518	-2.319475	0.04814
N	-0.440872	1.175795	0.677873
H	-1.388577	1.066078	1.013171
H	0.16908	1.338615	1.469578
H	2.694484	0.0	0.0
