16

C	-0.475636	-0.024882	-1.441243
C	0.0	0.0	0.0
Cl	-2.387334	0.080652	-1.407781
H	1.091331	0.0	0.0
H	-0.337695	-1.036629	-1.8198
N	0.117445	0.896007	-2.295279
H	0.088729	1.83766	-1.935119
H	-0.208077	0.828187	-3.246526
C	-0.453432	-1.203719	0.800596
H	-1.533584	-1.220941	0.946826
H	-0.142902	-2.104203	0.265205
H	0.042771	-1.205099	1.769618
N	-0.405314	1.269372	0.687357
O	-0.318666	2.321483	0.051739
O	-0.760688	1.206908	1.861543
Br	3.465966	0.0	0.0
