16

C	-0.51088	0.023088	-1.435423
C	0.0	0.0	0.0
Cl	0.065532	-1.489562	-2.279238
H	1.091889	0.0	0.0
H	-0.019024	0.832374	-1.966284
N	-1.924194	0.192168	-1.490188
H	-2.395261	-0.633996	-1.139269
H	-2.225663	0.350819	-2.443733
C	-0.523541	-1.124166	0.862997
H	-1.609214	-1.086502	0.984159
H	-0.071916	-1.058022	1.852158
H	-0.227667	-2.074738	0.417933
N	-0.387393	1.337012	0.571352
O	-0.068771	2.328299	-0.080867
O	-0.984296	1.37383	1.647773
Br	3.494785	0.0	0.0
