16

C	-0.313259	-0.069722	-1.500002
C	0.0	0.0	0.0
Cl	-2.079906	0.209664	-1.780796
H	1.093768	0.0	0.0
H	-0.140076	-1.108795	-1.786541
N	0.457578	0.767941	-2.373953
H	0.398686	1.717559	-2.023587
H	1.430856	0.487159	-2.25211
C	-0.531293	-1.168106	0.796122
H	-1.620905	-1.216042	0.770931
H	-0.115415	-2.085029	0.372381
H	-0.204979	-1.099502	1.832732
N	-0.449082	1.298325	0.579033
O	-1.1181	1.281812	1.611816
O	-0.127216	2.3294	-0.01383
Br	3.451488	0.0	0.0
