16

C	-0.32462	-0.018517	-1.499387
C	0.0	0.0	0.0
Cl	-2.092938	0.281025	-1.752269
H	1.094703	0.0	0.0
H	-0.160831	-1.048088	-1.824521
N	0.442614	0.8454	-2.349641
H	1.413188	0.542371	-2.265002
H	0.409882	1.779154	-1.954972
C	-0.531872	-1.190261	0.762103
H	-0.195691	-1.156463	1.797721
H	-0.124151	-2.095569	0.30563
H	-1.621906	-1.231679	0.745279
N	-0.441263	1.281259	0.620632
O	-1.134285	1.237409	1.637412
O	-0.087221	2.328091	0.07573
Br	3.455506	0.0	0.0
