16

C	-0.498535	-0.097896	-1.440754
C	0.0	0.0	0.0
Cl	-0.015585	-1.682647	-2.136444
H	1.092632	0.0	0.0
H	0.054421	0.632925	-2.034992
N	-1.935585	0.018844	-1.510976
H	-2.26812	0.729199	-0.872234
H	-2.219998	0.265214	-2.449121
C	-0.543751	-1.043515	0.945862
H	-1.630394	-1.113682	0.908846
H	-0.232603	-0.808601	1.962796
H	-0.109823	-2.004448	0.672751
N	-0.395421	1.386181	0.429386
O	0.126999	2.322311	-0.17116
O	-1.254058	1.516574	1.30953
Br	3.500575	0.0	0.0
