16

C	-0.593024	-0.020955	-1.400822
C	0.0	0.0	0.0
Cl	0.080391	1.313962	-2.374494
H	1.091543	0.0	0.0
H	-1.666045	0.191908	-1.325229
N	-0.281291	-1.281889	-2.049289
H	-0.359583	-1.171153	-3.052764
H	-0.959382	-1.97489	-1.755062
C	-0.477749	-1.194717	0.810567
H	-0.152203	-1.083375	1.846463
H	-1.565955	-1.296315	0.791552
H	0.000301	-2.090282	0.411998
N	-0.491786	1.246439	0.666311
O	-1.712558	1.329586	0.847289
O	0.32204	2.107883	0.984163
Br	3.624065	0.0	0.0
