17

C	-0.392182	0.00057	-1.48022
C	0.0	0.0	0.0
Br	0.419694	-1.532104	-2.439453
H	1.096364	0.0	0.0
C	-1.841557	-0.1112	-1.678508
N	-3.012886	-0.19278	-1.753941
C	0.083306	1.203501	-2.168602
N	0.453445	2.162276	-2.739195
C	-0.532758	-1.220059	0.730486
H	-0.183211	-2.145119	0.268262
H	-0.134253	-1.201301	1.748377
H	-1.629552	-1.244606	0.789546
C	-0.478135	1.291917	0.654998
H	-0.021921	2.165524	0.183603
H	-0.142741	1.282388	1.695661
H	-1.571043	1.407795	0.64826
F	2.593434	0.0	0.0
