17

C	-0.392191	-0.010965	-1.480394
C	0.0	0.0	0.0
Br	0.421259	1.513544	-2.450747
H	1.096394	0.0	0.0
C	0.082956	-1.219766	-2.158334
N	0.454992	-2.184427	-2.717466
C	-1.841382	0.100835	-1.680101
N	-3.012619	0.1823	-1.757936
C	-0.481651	-1.284863	0.666354
H	-0.137604	-1.270878	1.70414
H	-1.575407	-1.393001	0.669016
H	-0.035644	-2.164915	0.197149
C	-0.528479	1.228298	0.720461
H	-0.163817	2.147426	0.258169
H	-1.625622	1.264717	0.768418
H	-0.140808	1.209383	1.742593
F	2.594013	0.0	0.0
