17

C	-0.242601	0.000553	-1.474012
C	0.0	0.0	0.0
Br	-2.24836	-0.000964	-1.99818
H	1.099198	0.0	0.0
C	0.285557	1.195675	-2.131231
N	0.701345	2.154997	-2.668503
C	0.287497	-1.193029	-2.1325
N	0.703118	-2.151073	-2.672132
C	-0.480503	-1.26595	0.680948
H	-0.049637	-2.154552	0.212842
H	-1.574408	-1.357418	0.678801
H	-0.134535	-1.252107	1.718065
C	-0.480878	1.265214	0.682021
H	-1.574784	1.356569	0.679551
H	-0.13534	1.250376	1.719269
H	-0.049908	2.154299	0.214963
F	2.529399	0.0	0.0
