17

C	-0.242484	-0.000427	-1.473962
C	0.0	0.0	0.0
Br	-2.248387	0.004331	-1.997817
H	1.099202	0.0	0.0
C	0.288183	1.192592	-2.132875
N	0.704586	2.150272	-2.672648
C	0.284172	-1.196299	-2.13092
N	0.699001	-2.156356	-2.667805
C	-0.480823	-1.265424	0.681671
H	-1.574711	-1.356466	0.679521
H	-0.050234	-2.154404	0.214198
H	-0.134974	-1.251176	1.718741
C	-0.480874	1.265625	0.681305
H	-0.134901	1.251703	1.718359
H	-1.574797	1.356577	0.679217
H	-0.050415	2.154565	0.213577
F	2.529121	0.0	0.0
