17

C	-0.39202	-0.121923	-1.475203
C	0.0	0.0	0.0
Br	0.412683	-1.733422	-2.301182
H	1.096372	0.0	0.0
C	-1.841919	-0.242554	-1.664079
N	-3.013415	-0.326964	-1.732623
C	0.088871	1.015181	-2.262709
N	0.440922	1.928231	-2.912623
C	-0.531949	-1.155787	0.828253
H	-0.141597	-1.04702	1.843327
H	-0.173171	-2.114393	0.450157
H	-1.628957	-1.182588	0.881526
C	-0.478563	1.341182	0.545871
H	-0.030011	2.173348	-0.001404
H	-1.572179	1.452109	0.537912
H	-0.135133	1.421712	1.58039
F	2.594161	0.0	0.0
