17

C	-0.391824	-0.003722	-1.480821
C	0.0	0.0	0.0
Br	0.421337	1.525622	-2.443671
H	1.09639	0.0	0.0
C	0.082225	-1.208805	-2.166143
N	0.450323	-2.170293	-2.733805
C	-1.841037	0.109471	-1.679319
N	-3.012371	0.191613	-1.756185
C	-0.478474	-1.290675	0.658473
H	-1.571492	-1.405736	0.653814
H	-0.141133	-1.27858	1.698419
H	-0.023646	-2.16569	0.188307
C	-0.532719	1.222426	0.727482
H	-0.13535	1.204869	1.745889
H	-0.181769	2.146206	0.263789
H	-1.629706	1.247983	0.785656
F	2.594483	0.0	0.0
