17

C	-0.395372	-0.011924	-1.479266
C	0.0	0.0	0.0
Br	0.422389	1.507707	-2.45363
H	1.096377	0.0	0.0
C	0.073755	-1.223616	-2.156099
N	0.440188	-2.191624	-2.713384
C	-1.844391	0.105294	-1.675844
N	-3.015333	0.192757	-1.751823
C	-0.479736	-1.284553	0.66887
H	-0.034705	-2.16446	0.198772
H	-1.573161	-1.393508	0.675243
H	-0.131908	-1.26942	1.705229
C	-0.525953	1.229225	0.72085
H	-0.136311	1.209956	1.742181
H	-1.622834	1.267488	0.771055
H	-0.160583	2.147456	0.257348
F	2.594708	0.0	0.0
