15

C	-0.388016	0.022704	-1.46737
C	0.0	0.0	0.0
Br	0.039474	-1.675926	-2.299072
H	1.099686	0.0	0.0
H	-0.33608	0.960752	0.403384
N	-1.899174	0.269807	-1.558015
O	-2.224738	1.397858	-1.187168
O	-2.668397	-0.598942	-1.936369
N	0.248318	1.066528	-2.226143
H	1.255516	0.90942	-2.15544
H	0.046668	1.942955	-1.754294
N	-0.654311	-1.075915	0.736188
H	-0.582103	-0.864388	1.72377
H	-0.119941	-1.92439	0.588891
Br	3.602348	0.0	0.0
