15

C	-0.614956	-0.010266	-1.387394
C	0.0	0.0	0.0
Br	0.232131	1.460586	-2.470587
H	1.088144	0.0	0.0
H	-0.351863	-0.911892	0.491046
N	-0.280187	-1.270408	-2.163793
O	0.558084	-2.026446	-1.690846
O	-0.908614	-1.444204	-3.205196
N	-2.010581	0.078655	-1.321298
H	-2.431017	0.229663	-2.227094
H	-2.23104	0.809713	-0.651934
N	-0.55033	1.170739	0.710774
H	0.100094	1.936421	0.566688
H	-0.526777	0.96824	1.702783
Br	3.638225	0.0	0.0
