15

C	-0.600863	-0.00095	-1.393416
C	0.0	0.0	0.0
Br	0.281303	1.466829	-2.458379
H	1.091434	0.0	0.0
H	-0.356877	-0.910954	0.487519
N	-0.276985	-1.265087	-2.171045
O	-0.833997	-1.386175	-3.258648
O	0.466347	-2.08388	-1.644633
N	-1.995953	0.0971	-1.34531
H	-2.22406	0.819522	-0.669586
H	-2.400764	0.268593	-2.255516
N	-0.551428	1.171095	0.708992
H	0.086007	1.943971	0.544155
H	-0.504024	0.978328	1.702118
Br	3.647537	0.0	0.0
