15

C	-0.59579	0.100865	-1.391798
C	0.0	0.0	0.0
Br	0.083064	1.636215	-2.36144
H	1.090984	0.0	0.0
H	-0.323855	-0.975585	0.402935
N	-0.162484	-1.124514	-2.24378
O	0.773548	-1.805133	-1.848091
O	-0.83148	-1.338808	-3.255823
N	-2.017013	0.171468	-1.347617
H	-2.365566	-0.653123	-0.867967
H	-2.388327	0.17843	-2.289984
N	-0.429234	1.146602	0.784826
H	-1.324083	0.992931	1.225951
H	0.272569	1.336562	1.485865
Br	3.642466	0.0	0.0
