14
Coordinates from ORCA-job run
  C   -0.38816449213794     -0.46320988959211      0.12960623229643
  C   0.72439419435401      0.61542352634728      0.27379910964235
  Cl  0.36172091249835     -2.07933176321736      0.24981282394766
  H   0.22975878466189      1.59540859993180      0.23219387930874
  C   -1.10970303933372     -0.33130645725136     -1.20658117992005
  H   -1.89991491210575     -1.07959428733504     -1.26990858669311
  H   -1.55680597241975      0.66248628766206     -1.29386564445066
  H   -0.40730601414211     -0.49045709992194     -2.02599178723401
  C   -1.32483553289592     -0.29179036091948      1.24084320215040
  N   -2.09735043443605     -0.12140794457552      2.11004867853413
  C   1.67237600908334      0.53639007763121     -0.84109929628150
  N   2.41071763112881      0.48878761352975     -1.75278798210892
  C   1.41947171645726      0.51191960437158      1.55949181661089
  N   1.96664114928756      0.44768209333915      2.59643873419766
