14
Coordinates from ORCA-job run
  C   -0.34441156212001     -0.57571248003624     -0.07047766158263
  C   1.00947585714498      0.18714930571732     -0.12813000835081
  Cl  -0.01779653485890     -2.24393660244376     -0.62997965946515
  H   1.36421880060558      0.12285461425319     -1.16455636997628
  C   -1.37831218699381      0.07196179818238     -0.98369037109909
  H   -0.99290270435751      0.11145288828566     -2.00482166114277
  H   -1.60809734677308      1.08208692488698     -0.63879109469020
  H   -2.29328474205622     -0.52078705373977     -0.97669486875888
  C   -0.82208578684739     -0.62451060531045      1.31040269168869
  N   -1.22365305715448     -0.62819423772204      2.41505736831625
  C   2.01950740399696     -0.41804734591507      0.74441169066817
  N   2.84027156672938     -0.89563997973001      1.43526617516789
  C   0.81545156960601      1.59903275160838      0.21668778167093
  N   0.63161872307849      2.73029002196344      0.47331598755389
