14
Coordinates from ORCA-job run
  C   -0.37257877192809     -0.63162570172018      0.12384959716968
  C   0.95360152665610      0.07698147307105      0.53387038200193
  Cl  0.02440332450790     -2.35193489883900     -0.16705245988475
  H   1.36202658356460     -0.44944032980245      1.40488151096225
  C   -0.99014965293193     -0.02434634954982     -1.12768674064293
  H   -0.29325458120066     -0.10930249704186     -1.96289823477343
  H   -1.22850928825888      1.02753951835855     -0.95354789901370
  H   -1.90749587918582     -0.55764403796816     -1.37779879108732
  C   -1.29547057731180     -0.55462710630382      1.25649190368820
  N   -2.04085172948659     -0.46850119677253      2.16122322391644
  C   0.68855517708103      1.47174982121569      0.90130705498616
  N   0.45042839681883      2.58438536853055      1.19243577398783
  C   1.93477229176382      0.01577350201790     -0.55369146064618
  N   2.71452317991149     -0.02900756519592     -1.43038386066420
