14
Coordinates from ORCA-job run
  C   -0.39646133369785     -0.61959634876455      0.10817692485822
  C   0.96403084734020      0.01992232397621      0.51961185257948
  Cl  -0.07523580883680     -2.34366361912738     -0.24752919526766
  H   1.36394553667285     -0.55314679565933      1.36468274137596
  C   -1.00784930279718      0.05506961128443     -1.11142103203076
  H   -1.95053096120313     -0.43123539245784     -1.36342776145253
  H   -1.19928888725653      1.10942680811929     -0.89803949008306
  H   -0.32829351274168     -0.02988941108871     -1.96096322789886
  C   -1.29706740084634     -0.54457288297109      1.25878563777131
  N   -2.02290483375905     -0.46118125541267      2.17954778101580
  C   0.76174031056152      1.41021631744048      0.93948796896485
  N   0.57275851299933      2.52056561558601      1.27251599113190
  C   1.92492470622915     -0.04278230135619     -0.58564015833875
  N   2.68923212733552     -0.08913266956865     -1.47578803262588
