15

C	-0.540587	0.023735	-1.394933
C	0.0	0.0	0.0
Br	-2.504382	0.09638	-1.470597
H	1.092277	0.0	0.0
H	-0.244603	-0.855966	-1.954867
N	0.034091	1.202696	-2.129423
O	-0.505312	2.297882	-2.046784
O	1.071581	0.945978	-2.740088
N	-0.326174	-1.306981	0.598883
O	-0.242092	-2.310496	-0.123124
O	-0.535711	-1.344177	1.819576
N	-0.350984	1.124008	0.786792
H	0.403064	1.2836	1.446966
H	-1.214129	0.977365	1.293135
H	2.45615	0.0	0.0
