15

C	-0.65273	-0.038021	-1.359985
C	0.0	0.0	0.0
Br	-0.132293	1.526018	-2.394985
H	1.094416	0.0	0.0
H	-1.739537	-0.042942	-1.307875
N	-0.289083	-1.225048	-2.207799
O	0.87612	-1.591711	-2.210024
O	-1.206882	-1.701763	-2.872885
N	-0.421641	-1.120368	0.780464
O	-0.229304	-1.07415	2.016103
O	-0.827462	-2.145742	0.182462
N	-0.296019	1.263143	0.666613
H	0.603741	1.750062	0.700238
H	-0.509737	1.01583	1.626011
H	2.383939	0.0	0.0
