15

C	-0.644329	0.052257	-1.367434
C	0.0	0.0	0.0
Br	-0.049299	1.612824	-2.35489
H	1.088181	0.0	0.0
H	-1.732017	0.097451	-1.334881
N	-0.322195	-1.130179	-2.250085
O	-1.205427	-1.466527	-3.036324
O	0.788007	-1.631853	-2.158787
N	-0.461403	-1.171365	0.703596
O	-1.04597	-2.076375	0.067744
O	-0.187374	-1.248146	1.916044
N	-0.234753	1.211263	0.750082
H	-0.89671	1.040829	1.495993
H	0.661024	1.448399	1.17396
H	2.404327	0.0	0.0
