15

C	-0.540822	0.008174	-1.395613
C	0.0	0.0	0.0
Br	-2.505121	0.031072	-1.472035
H	1.092221	0.0	0.0
H	-0.222453	-0.863723	-1.954547
N	0.00234	1.202299	-2.131067
O	1.046302	0.974577	-2.740263
O	-0.567549	2.280862	-2.051391
N	-0.319597	-1.305423	0.608731
O	-0.548152	-1.334219	1.825416
O	-0.213501	-2.313705	-0.103825
N	-0.359615	1.127671	0.778737
H	-1.221316	0.972733	1.285822
H	0.39006	1.292364	1.442913
H	2.46185	0.0	0.0
