15

C	-0.444848	0.049301	-1.425566
C	0.0	0.0	0.0
Br	-2.38043	0.37152	-1.66456
H	1.092067	0.0	0.0
H	-0.229661	-0.870292	-1.954859
N	0.289091	1.138193	-2.152541
O	0.120977	2.299804	-1.795981
O	1.039866	0.762763	-3.050438
N	-0.366341	-1.326844	0.562799
O	-0.401505	-2.287891	-0.222075
O	-0.468417	-1.430558	1.783194
N	-0.372086	1.071571	0.848716
H	0.459166	1.617156	1.050802
H	-1.085013	1.660992	0.445035
H	2.480417	0.0	0.0
