15

C	-0.546966	0.024311	-1.397527
C	0.0	0.0	0.0
Br	0.484954	-0.943527	-2.711588
H	1.092208	0.0	0.0
H	-0.546899	1.064995	-1.720236
N	-2.019406	-0.383812	-1.45202
O	-2.679229	-0.023849	-0.478902
O	-2.470807	-0.939938	-2.441938
N	-0.375978	-1.234571	0.68971
O	-0.619958	-2.237511	0.002429
O	-0.319788	-1.232396	1.92622
N	-0.300206	1.195117	0.726501
H	0.482035	1.364475	1.352405
H	-1.148284	1.086493	1.266359
H	2.472692	0.0	0.0
