15

C	-0.451267	0.014859	-1.45226
C	0.0	0.0	0.0
Br	0.333602	-1.331052	-2.584992
H	1.089998	0.0	0.0
H	-0.184316	0.984308	-1.869024
N	-1.956096	-0.058717	-1.523502
O	-2.510124	-1.147179	-1.615778
O	-2.530687	1.028646	-1.393033
N	-0.505173	-1.262195	0.63784
O	-1.554575	-1.20427	1.284222
O	0.159432	-2.282471	0.460646
N	-0.402825	1.130819	0.758333
H	-1.263633	1.56387	0.457729
H	0.369435	1.785655	0.788119
H	2.622922	0.0	0.0
