16
Coordinates from ORCA-job run
  C   -0.56337793106711      0.01511722489371     -0.17166455063094
  C   0.91221365417186     -0.35516518536183     -0.16244236427354
  F   -0.71119483018386      1.02527087053865     -1.17104216595866
  H   1.03765309179896     -1.22662381709311      0.48640278394141
  H   1.17106407570988     -0.66113865554410     -1.18030617084856
  C   -1.45067282560393     -1.13095955887017     -0.60872387894857
  H   -1.14206014009973     -1.48757895157618     -1.59220158420220
  H   -2.48702165315212     -0.79137656472774     -0.68111502219332
  H   -1.39499693420684     -1.94949769951931      0.10963663055475
  N   -0.98155274881493      0.50943114888517      1.09526364963673
  H   -0.47184215016718      1.35035920203433      1.33440247044501
  H   -1.96861687608534      0.73548813925026      1.07351408733491
  C   1.83107426402182      0.77773627459301      0.28387981897671
  H   1.71446557668019      0.99566031093620      1.34790921817248
  H   2.87703853125950      0.50829161342561      0.12403964795906
  H   1.62682689573885      1.68498564813549     -0.28755256996527
