16
Coordinates from ORCA-job run
  C   -0.62506613498748      0.24516515842052     -0.06324130908878
  C   0.76033675203109      0.49322197782628      0.51527675096768
  F   -0.63370539946609      0.85574197315507     -1.35375489437310
  H   0.88236749949087      1.57951595252880      0.59906728409752
  H   0.77461086367199      0.09001681550551      1.53156513742562
  C   -0.95620531241885     -1.21410491515789     -0.29282140634111
  H   -0.88090820625406     -1.77106038378240      0.64212685849466
  H   -0.28350501042213     -1.64747150689360     -1.03203718276783
  H   -1.97624872799077     -1.30464402059358     -0.67453245893976
  N   -1.60689160501480      0.84565875600717      0.77395618471004
  H   -1.41304214451433      1.83296147461421      0.89111742745446
  H   -2.52801517487994      0.74680982951431      0.36440431018989
  C   1.90007660958644     -0.08101662529742     -0.31794677170636
  H   1.89768006376039     -1.17273998658566     -0.30993363096604
  H   2.86381325257647      0.24634517676254      0.07817489027872
  H   1.82570267483120      0.25660032397614     -1.35242118943560
