16
Coordinates from ORCA-job run
  C   -0.59694373358382      0.33655011710047     -0.17089078674684
  C   0.76440343133847      0.50843558080041      0.48999344082471
  F   -0.50262681080958      0.87649442403400     -1.46579593067897
  H   0.71335386222646      0.09294549694919      1.50331796973039
  H   0.92293083962314      1.58666234240684      0.58696822015277
  C   -1.01272396876779     -1.11155895883705     -0.37021885967709
  H   -1.08616902947945     -1.62353915891273      0.59218153436056
  H   -1.99075938332018     -1.13972490569698     -0.85770299328793
  H   -0.30677187692594     -1.64586107533917     -1.00713669533789
  N   -1.55999692324306      1.13526043187425      0.53640952075218
  H   -2.50634359493296      0.83680958465808      0.33731123834970
  H   -1.40502216975139      1.10182822489005      1.53418719073851
  C   1.91737157047323     -0.12262391614138     -0.28074776216716
  H   1.86243539781233     -1.21306126268015     -0.27919477215991
  H   1.91393484635222      0.22086957477016     -1.31570001558845
  H   2.87292754298833      0.15851350012398      0.16701870073542
