10
Coordinates from ORCA-job run
  C   -0.52250977704508     -0.40594812712925      0.07452027379210
  C   0.52250965028008      0.40596320361118     -0.07443309486024
  H   -0.46868998508679     -1.46854852071803      0.26623386890278
  H   0.46868953191601      1.46854215074586     -0.26626607285264
  N   -1.87622835085922      0.13160241023351     -0.01954915970644
  O   -2.01698907106745      1.33176446939661     -0.23628955421528
  O   -2.77853541737484     -0.69266163432327      0.13152456826332
  N   1.87622850871943     -0.13159201358602      0.01960494309779
  O   2.01698856500508     -1.33186119572438      0.23575173054794
  O   2.77853634551279      0.69273925749380     -0.13109750296934
