10
Coordinates from ORCA-job run
  C   0.46137840622380     -0.47985634660268     -0.01214911999352
  C   -0.46160634807255      0.47991367254895      0.01133689210933
  H   0.26650918178979     -1.53474909103274     -0.14611344671156
  H   -0.26557269581479      1.53454263724946      0.14577299928573
  N   1.86963330275590     -0.13377615247786      0.15488004899841
  O   2.16923206157554      1.04662180728883      0.30997548384435
  O   2.64994087962238     -1.08591786390313      0.12465391800215
  N   -1.86990070352713      0.13415097062531     -0.15544439482673
  O   -2.16940999666889     -1.04615223629117     -0.31122978904737
  O   -2.65020408788403      1.08622260259501     -0.12268259166080
