10
Coordinates from ORCA-job run
  C   -0.46366261520895      0.47101300575341     -0.08112071032790
  C   0.46365495643503     -0.47065581573466      0.08338958671109
  H   -0.26861286095985      1.52028336558913     -0.25351750646090
  H   0.26859615801716     -1.51952180593370      0.25821951174989
  N   -1.87727759449403      0.11052043938918     -0.03320635229427
  O   -2.17684866933491     -1.06471671114468      0.15730610339429
  O   -2.66194580656736      1.04599213308540     -0.19334749003937
  N   1.87728819818783     -0.11075060579842      0.03177733485726
  O   2.66196100209422     -1.04614489560033      0.19235124227263
  O   2.17684723183085      1.06398089039467     -0.16185171986272
