10
Coordinates from ORCA-job run
  C   -0.46229270405256      0.47180386462816     -0.08415421494193
  C   0.46209419189611     -0.47200225548705      0.08439283494732
  H   -0.26312572173261      1.51730295096947     -0.27394641094210
  H   0.26292477170407     -1.51760745925698      0.27359655564286
  N   -1.87711407614028      0.11958888760262     -0.01704511980767
  O   -2.65843667132185      1.05611647336735     -0.18668438394366
  O   -2.18056673065891     -1.05055023737280      0.19711064485825
  N   1.87691542888403     -0.11972749845961      0.01757153769621
  O   2.18037111952968      1.05107925748712     -0.19289903099119
  O   2.65823039189233     -1.05700398347831      0.18305758748191
