10
Coordinates from ORCA-job run
  C   0.49366937937209     -0.33645230679702     -0.29413691215108
  C   -0.49364581913064      0.33655325392938      0.29403239334978
  H   0.36902842844670     -1.09620611442015     -1.05307799655646
  H   -0.36904400537635      1.09580208744376      1.05348505413018
  N   1.87805601147745     -0.06521707301794      0.08031106163895
  O   2.72227570234373     -0.73661111283679     -0.51370783217133
  O   2.09782060299289      0.78740764221980      0.93583013064515
  N   -1.87804151740363      0.06520950605015     -0.08030627961269
  O   -2.72254084513184      0.73302031013065      0.51734318304625
  O   -2.09757793759040     -0.78450619270185     -0.93877280231876
