10
Coordinates from ORCA-job run
  C   -0.67477799655039     -0.09299810815258     -0.70966153080519
  C   0.65650293716297     -0.09187336701338     -0.72663359527385
  H   -1.27054915486610     -0.23511870265129     -1.60170582349482
  H   1.22967517769723     -0.18168385590888     -1.64003095722472
  N   -1.46848177899506      0.06628046921539      0.50614657162136
  O   -1.15407136690956      0.95404235379980      1.29124920659071
  O   -2.41626768199621     -0.70903749615606      0.60556990142318
  N   1.48085565670069      0.05958172496815      0.46961236720665
  O   1.18738466723775     -0.59709433486266      1.46260437170709
  O   2.42972954051867      0.82990131676153      0.34484948824959
