10
Coordinates from ORCA-job run
  C   0.69069424985916      0.46972036731879     -0.51974936840500
  C   -0.63934569727146      0.52893796377354     -0.52836604463712
  H   1.30619745171992      1.05143614358285     -1.19327217798626
  H   -1.19010040942616      1.20076837639092     -1.17349885409928
  N   1.45591510763587     -0.40116273625682      0.36853137202090
  O   2.38852856251589     -0.99206046974077     -0.17040738499068
  O   1.13570789116781     -0.44854392869481      1.55117050395372
  N   -1.49071052516885     -0.27604433188467      0.34392355579986
  O   -2.41230799902317      0.34043881105378      0.87285787407248
  O   -1.24457863200901     -1.47249019554282      0.44981052427137
