10
Coordinates from ORCA-job run
  C   -0.47587764044807      0.34278553442017      0.31507642629668
  C   0.47601922733337     -0.34364938882442     -0.31442843976681
  H   -0.30809799496181      1.14624405854320      1.01868690428304
  H   0.30867509445817     -1.14671632320226     -1.01857737188908
  N   -1.87946690242195      0.02593684565554      0.06980707545648
  O   -2.14779270551198     -0.87952531983559     -0.71461108106621
  O   -2.68835299450123      0.71660013491350      0.69030376861144
  N   1.87955837770464     -0.02608324066373     -0.06949005407753
  O   2.68844006139250     -0.71176424277835     -0.69550237556199
  O   2.14789547695635      0.87517194177196      0.71973514771399
