10
Coordinates from ORCA-job run
  C   0.72321132249533      0.36626632305922     -0.55863244580559
  C   -0.60077079580793      0.31150060932998     -0.69399046064922
  H   1.37114963044502      0.80890372585320     -1.30299163506196
  H   -1.10283108611654      0.72211598564686     -1.56136756104073
  N   1.44202633272896     -0.17174420730680      0.58934305409024
  O   2.66823777696665     -0.17356350889346      0.48681877806775
  O   0.78857772606074     -0.57236522850941      1.54833153234531
  N   -1.51793092496012     -0.28926005360023      0.27515177594950
  O   -1.69876965556195     -1.49628088336539      0.17970906870349
  O   -2.07190032625015      0.49342723778603      1.03662789340121
