10
Coordinates from ORCA-job run
  C   0.65725089416592     -0.17562050854458     -0.71053434327042
  C   -0.66629784123676     -0.03205396182156     -0.72328770624591
  H   1.23552711603852     -0.34355925991496     -1.60957514500521
  H   -1.25564301167850     -0.12496667684627     -1.62601237559574
  N   1.46854843863457     -0.09315056205125      0.50122306760584
  O   1.08588981270172     -0.69771681130549      1.49692677936202
  O   2.49733245786886      0.56837902048735      0.38610419605369
  N   -1.46281263945530      0.23363437496279      0.47188703041122
  O   -1.06938025460676      1.09513403001518      1.25058329987161
  O   -2.49141497243227     -0.43207964498121      0.56168519681291
