10
Coordinates from ORCA-job run
  C   -0.61331873069940      0.37017853998346     -0.67411269468609
  C   0.70290398181839      0.17003305680706     -0.66667022957219
  H   -1.13119671202686      0.82150705751891     -1.51016152944554
  H   1.33349935169284      0.39819254596822     -1.51588974002957
  N   -1.48911863976055      0.03402101374771      0.44545949065071
  O   -2.32063575271403      0.89469528016245      0.72309104030728
  O   -1.34924160664930     -1.05934970970897      0.98240680302726
  N   1.42819236633313     -0.40124482630711      0.46512322031978
  O   2.26181147057774     -1.25191601217401      0.16394469590803
  O   1.17710427142805      0.02288305400227      1.58780894352034
