10
Coordinates from ORCA-job run
  C   -0.65693998555144     -0.03460566080966     -0.73129068218139
  C   0.66540284758151     -0.18613938980785     -0.70023470277032
  H   -1.23531461877109     -0.13229747477118     -1.64059529422684
  H   1.25435810350453     -0.36600223232765     -1.58999480151340
  N   -1.46714597478651      0.24726809289120      0.45091131249562
  O   -2.50146366058510     -0.41050401972042      0.53318878913637
  O   -1.07813941128496      1.11328110965959      1.22686980930324
  N   1.46142337600314     -0.09790498962848      0.52120003699531
  O   1.06187759466981     -0.69103054079725      1.51719711438005
  O   2.49594172922012      0.55593510531170      0.41374841838136
