10
Coordinates from ORCA-job run
  C   0.60870319227697      0.26545407081141     -0.04942576866097
  C   -0.60870452381578     -0.26547008055496      0.04914665570740
  H   0.82494819981208      1.30778955731758     -0.23788411422022
  H   -0.82494872844341     -1.30770125273595      0.23818143351868
  N   1.78420976051607     -0.58657628741479      0.10190476257020
  O   1.61714101155464     -1.78338279462077      0.31845962705839
  O   2.86660475296844     -0.00926603399231     -0.00517614406526
  N   -1.78420918297643      0.58659187557766     -0.10202263411357
  O   -2.86660595724356      0.00922357927064      0.00472783534165
  O   -1.61713852464902      1.78333736634149     -0.31891165313631
