10
Coordinates from ORCA-job run
  C   0.47673969044040     -0.45761446384058      0.08148078208409
  C   -0.47673959600217      0.45779439658594     -0.08157826058751
  H   0.31095190822964     -1.50879424303062      0.27194535524529
  H   -0.31094916348353      1.50908264559777     -0.27144144377423
  N   1.87987913753657     -0.06223342151939      0.00702741867855
  O   2.14639718731275      1.11692157829376     -0.20678382600838
  O   2.69037698519278     -0.97485722314132      0.16995305515620
  N   -1.87987937672498      0.06245027910652     -0.00693957813894
  O   -2.14640086293331     -1.11676656344568      0.20652795006568
  O   -2.69037590956817      0.97501701539360     -0.17019145272075
