20

C	0.0	0.0	0.0
C	-0.455014	-0.085415	-1.458559
F	1.416809	0.0	0.0
H	-1.53621	0.089005	-1.433881
C	-0.452026	1.300632	0.630536
H	-0.13344	2.141241	0.014985
H	-0.018038	1.390969	1.631108
H	-1.54239	1.290933	0.702751
C	-0.457642	-1.184951	0.823884
H	-0.178846	-1.030138	1.869914
H	0.011173	-2.109114	0.479254
H	-1.54617	-1.262842	0.755477
C	-0.187576	-1.454807	-2.08652
H	0.866418	-1.731328	-1.972056
H	-0.810711	-2.234318	-1.643687
H	-0.417673	-1.417534	-3.155842
N	0.17439	1.013686	-2.203099
H	-0.215757	1.03477	-3.138521
H	1.165339	0.81056	-2.287736
Cl	-3.915903	0.0	0.0
