20

C	0.0	0.0	0.0
C	-0.360224	0.116256	-1.499477
F	1.405536	0.0	0.0
H	0.447143	0.736468	-1.90855
C	-0.436734	1.221392	0.786114
H	-1.525601	1.263356	0.857939
H	-0.014815	1.16685	1.793593
H	-0.069565	2.135322	0.310637
C	-0.501292	-1.272957	0.641973
H	-0.212149	-1.296031	1.696153
H	-1.593841	-1.306005	0.583085
H	-0.071905	-2.136321	0.134703
C	-1.696418	0.785428	-1.796957
H	-1.873068	0.756935	-2.877617
H	-2.541441	0.300985	-1.300819
H	-1.707805	1.834929	-1.491738
N	-0.224298	-1.205469	-2.138601
H	-0.172418	-1.057061	-3.141109
H	-1.09275	-1.710012	-1.980904
Cl	-4.598588	0.0	0.0
