20

C	0.0	0.0	0.0
C	-0.34194	-0.078637	-1.513008
F	1.411665	0.0	0.0
H	0.365347	-0.833788	-1.884697
C	-0.496536	1.247597	0.694863
H	-1.586662	1.295865	0.615608
H	-0.056225	2.144655	0.256454
H	-0.228993	1.215834	1.755085
C	-0.456071	-1.246498	0.728734
H	-0.122751	-2.143238	0.196796
H	-0.025136	-1.262556	1.734039
H	-1.545617	-1.252432	0.806897
C	-0.040667	1.23369	-2.22868
H	0.939912	1.628009	-1.951046
H	-0.804949	1.979062	-1.993123
H	-0.069148	1.063169	-3.306586
N	-1.671187	-0.522063	-1.888064
H	-2.408214	0.015643	-1.432498
H	-1.826323	-1.471212	-1.570892
Cl	-4.284136	0.0	0.0
