16

C	0.0	0.0	0.0
C	-0.526447	-0.49339	-1.354714
Br	1.952643	0.0	0.0
H	0.295499	-0.813729	-2.000118
H	-1.2283	-1.293133	-1.183305
C	-0.381138	1.379612	0.508666
H	0.03426	1.502225	1.509293
H	0.03516	2.132479	-0.155107
H	-1.472279	1.38269	0.514615
N	-0.373903	-1.061735	1.038316
O	-0.505256	-0.70161	2.197855
O	-0.405232	-2.227308	0.656731
N	-1.280994	0.483915	-2.188095
O	-0.934451	1.6609	-2.214902
O	-2.125657	-0.005869	-2.930144
F	-2.515486	0.0	0.0
