16

C	0.0	0.0	0.0
C	-0.674637	0.004051	-1.340921
Br	1.931015	0.0	0.0
H	-1.782904	-0.175248	-1.030647
H	-0.623456	1.000186	-1.77921
C	-0.497477	1.197344	0.789345
H	-1.593962	1.104315	0.758568
H	-0.107776	1.158052	1.804389
H	-0.154059	2.113908	0.305594
N	-0.402198	-1.261348	0.796678
O	-0.106228	-1.265376	1.987486
O	-0.982829	-2.159147	0.206779
N	-0.176278	-0.916295	-2.373521
O	-0.515519	-0.653263	-3.530894
O	0.514757	-1.884355	-2.061234
F	-2.890089	0.0	0.0
