16

C	0.0	0.0	0.0
C	-0.28434	-0.177698	-1.4958
Br	1.947787	0.0	0.0
H	-0.068398	-1.206195	-1.782284
H	0.374803	0.511529	-2.021746
C	-0.396832	1.310844	0.641796
H	-0.089827	2.122346	-0.020157
H	-1.483216	1.269425	0.743305
H	0.123212	1.41815	1.593928
N	-0.458092	-1.192673	0.812866
O	-0.572686	-2.263788	0.22984
O	-0.557389	-1.025597	2.021029
N	-1.632751	0.139503	-2.071149
O	-1.873929	1.329378	-2.262563
O	-2.271535	-0.802393	-2.525475
F	-2.505797	0.0	0.0
