16

C	0.0	0.0	0.0
C	-0.264393	-0.190018	-1.499163
Br	1.95275	0.0	0.0
H	0.200081	0.65681	-2.003571
H	0.210805	-1.115716	-1.8178
C	-0.416779	1.315153	0.621867
H	0.030505	1.418416	1.610148
H	-1.510737	1.259473	0.649462
H	-0.061495	2.125978	-0.019623
N	-0.435249	-1.192945	0.812683
O	-0.600825	-1.017215	2.012102
O	-0.477407	-2.272149	0.233375
N	-1.645339	-0.254293	-2.078886
O	-2.117843	-1.3703	-2.25314
O	-2.091285	0.790277	-2.545532
F	-2.522013	0.0	0.0
