14

C	0.0	0.0	0.0
C	-0.358216	-0.315904	-1.483456
Br	1.958253	0.0	0.0
H	0.343671	-1.096273	-1.79521
H	-0.2502	-0.889477	0.591832
N	-0.575794	1.22376	0.450946
H	-0.454914	1.318571	1.452248
H	-1.583315	1.173103	0.276993
C	-0.058344	0.860297	-2.320777
N	0.168673	1.773182	-3.022232
N	-1.682832	-0.802896	-1.782761
H	-2.431908	-0.202156	-1.437325
H	-1.83087	-1.687429	-1.310633
Cl	-4.128892	0.0	0.0
