14

C	0.0	0.0	0.0
C	-0.302385	0.461925	-1.46932
Br	2.010719	0.0	0.0
H	0.422406	-0.037567	-2.119582
H	-0.276058	-1.052602	0.086079
N	-0.576155	0.726857	1.062298
H	-0.522326	1.725764	0.899418
H	-1.556115	0.455638	1.152022
C	-0.02378	1.907149	-1.557337
N	0.169098	3.064912	-1.589312
N	-1.618445	0.19123	-1.992391
H	-2.369304	0.456922	-1.349304
H	-1.724712	-0.808877	-2.117584
Cl	-4.022748	0.0	0.0
