14

C	0.0	0.0	0.0
C	-0.501036	0.119286	-1.435356
Br	2.035831	0.0	0.0
H	-1.597728	0.035964	-1.326467
H	-0.231052	-0.980182	0.413235
N	-0.528382	1.018586	0.758021
H	-0.440013	1.935311	0.350448
H	-0.403762	0.965421	1.753103
C	-0.022967	-0.985734	-2.281628
N	0.318449	-1.847805	-3.003478
N	-0.173898	1.443218	-1.959062
H	-0.820362	1.680839	-2.699777
H	0.768831	1.446455	-2.328079
Cl	-3.766741	0.0	0.0
