14

C	0.0	0.0	0.0
C	-0.51893	-0.209355	-1.425413
Br	1.944795	0.0	0.0
H	-1.613762	-0.225525	-1.305581
H	-0.248446	-0.901467	0.57078
N	-0.503655	1.221302	0.546826
H	-1.510289	1.219962	0.359451
H	-0.395119	1.19117	1.554648
C	-0.103149	-1.535285	-1.926411
N	0.230973	-2.562416	-2.390562
N	-0.16157	0.87863	-2.318106
H	0.82066	0.825871	-2.557523
H	-0.708327	0.806776	-3.166196
Cl	-3.586497	0.0	0.0
