14

C	0.0	0.0	0.0
C	-0.577697	0.136964	-1.399003
Br	2.035713	0.0	0.0
H	-1.663755	0.020191	-1.207948
H	-0.215708	-0.986182	0.407681
N	-0.505963	1.010626	0.793733
H	-0.242168	0.991751	1.763718
H	-0.465128	1.917821	0.356178
C	-0.124362	-0.933759	-2.297105
N	0.208829	-1.76189	-3.061124
N	-0.337909	1.478485	-1.916172
H	-1.077433	1.728091	-2.559242
H	0.552082	1.520493	-2.396992
Cl	-3.74988	0.0	0.0
