17
Coordinates from ORCA-job run
  C   0.75962160618594      0.17837351099662     -0.37283422753723
  C   -0.76188422734822      0.19251269723900     -0.60362202816275
  Cl  1.58499781243089      0.40258335829478     -1.92967035970407
  H   -0.97910861266889      1.09008701753805     -1.19041725830126
  C   1.29341528589292     -1.05330643933582      0.31491655143167
  H   0.83550749161531     -1.18129907222240      1.29532331329942
  H   2.37074775829624     -0.96950296577673      0.44893672457131
  H   1.07977183574159     -1.92404397779695     -0.30629965319459
  N   1.05078865998158      1.43092309294771      0.45887034658161
  O   0.63728721152192      2.49114456229990      0.00538502295036
  O   1.63556619133883      1.27903426807257      1.52624049167338
  C   -1.56796598987172      0.23230475977707      0.70003652306488
  H   -1.39683888025717     -0.65773773571153      1.30621300296123
  H   -1.31783479518305      1.11970735304453      1.28351085572457
  H   -2.63156174253418      0.27808762386494      0.46116542865844
  C   -1.13483147053841     -0.97776992667220     -1.39754110620067
  N   -1.45567813460358     -1.93309812655955     -2.00021362781632
