17
Coordinates from ORCA-job run
  C   0.65999993709940      0.28885746432005      0.09711368224451
  C   -0.81082146287981     -0.13162287384238      0.26481768532301
  Cl  0.77971449296098      2.00681892214324     -0.27304945401809
  H   -0.78640068168017     -1.18135510610926      0.57483418835154
  C   1.40818656118103     -0.52575132931974     -0.94150370958033
  H   1.03379013367454     -0.29581318699051     -1.93815245310309
  H   2.46874264332168     -0.26958705949573     -0.90982703110240
  H   1.29066922286783     -1.59060996767814     -0.73638908011222
  N   1.34185933701926      0.00899102994391      1.44980265718832
  O   1.26151092397059     -1.16545082054400      1.80156688704580
  O   1.90800733749256      0.90922441821469      2.04726835260832
  C   -1.63620596215410      0.00054344778368     -1.01709318292532
  H   -1.24330146713515     -0.65246838287254     -1.79726719451459
  H   -1.63988304499999      1.02959033386117     -1.37639987867507
  H   -2.66615668587382     -0.29735385089109     -0.81468285965997
  C   -1.42571699323214      0.62887081072322      1.35558865309023
  N   -1.94499429163270      1.23711615075345      2.21537273783935
