17
Coordinates from ORCA-job run
  C   0.72254797958523      0.17670206350176     -0.19671053111721
  C   -0.77328291022261     -0.17259960778816     -0.36239629803537
  Cl  1.17662510331101      1.45187496189231     -1.35086003995529
  H   -0.81333872270802     -0.69943457280544     -1.32394577447575
  C   1.60989370688221     -1.03028488531864     -0.41089340600703
  H   1.42334868421599     -1.43228580380765     -1.40802655103900
  H   2.65760034750534     -0.75017366541213     -0.33041886363422
  H   1.39353159643524     -1.79557813558298      0.33664175430944
  N   0.98869033049013      0.75561989828276      1.19587313858425
  O   0.12808281783161      1.49114938003883      1.66476323466476
  O   2.05438362479389      0.46558330047424      1.72580306929522
  C   -1.81269909957309      0.95402548711714     -0.41168881626202
  H   -2.76657666402075      0.52296773190765     -0.72273343865589
  H   -1.93639290767431      1.42777462107823      0.55724732359312
  H   -1.52118714593374      1.70626338550396     -1.14383100285800
  C   -1.12397172712844     -1.14965845739878      0.67269624021647
  N   -1.40625501378969     -1.92394570168309      1.50947996137652
