16

C	-0.402558	-0.005787	-1.455778
C	0.0	0.0	0.0
Cl	0.044776	1.485138	-2.304091
H	1.102131	0.0	0.0
H	0.086803	-0.833291	-1.966647
N	-1.881168	-0.242173	-1.621194
O	-2.6585	0.702854	-1.557112
O	-2.206703	-1.428534	-1.734997
C	-0.438641	-1.280163	0.691021
H	-0.133682	-2.160744	0.121644
H	-1.520442	-1.310606	0.84975
H	0.067316	-1.329689	1.660299
N	-0.566473	1.155356	0.707409
H	-0.118493	1.985659	0.328568
H	-0.213628	1.085576	1.658136
H	2.863525	0.0	0.0
