16

C	-0.583506	0.006641	-1.396604
C	0.0	0.0	0.0
Cl	0.097936	-1.25142	-2.456658
H	1.096744	0.0	0.0
H	-1.667386	-0.119715	-1.389876
N	-0.382201	1.328606	-2.100249
O	0.630428	1.971108	-1.856884
O	-1.26472	1.650098	-2.898544
C	-0.483081	-1.232632	0.741559
H	-1.576266	-1.233934	0.848731
H	-0.170237	-2.14583	0.233411
H	-0.027937	-1.242394	1.736748
N	-0.527539	1.223313	0.638394
H	0.228188	1.902501	0.607505
H	-0.689902	1.02407	1.618959
H	2.950237	0.0	0.0
