16

C	-0.414966	0.049681	-1.459143
C	0.0	0.0	0.0
Cl	-0.164471	1.616167	-2.220289
H	1.096494	0.0	0.0
H	0.136971	-0.696968	-2.028261
N	-1.864719	-0.342743	-1.601585
O	-2.081682	-1.488612	-2.009176
O	-2.727519	0.442876	-1.219333
C	-0.411652	-1.335932	0.609017
H	-0.099829	-2.178449	-0.013973
H	0.092054	-1.432288	1.573553
H	-1.495528	-1.405602	0.765156
N	-0.448035	1.155794	0.749849
H	-1.251845	0.937435	1.32127
H	0.315435	1.449653	1.344681
H	2.816973	0.0	0.0
