16

C	-0.555636	2.9e-05	-1.42341
C	0.0	0.0	0.0
Cl	0.070036	-1.311977	-2.434435
H	1.093505	0.0	0.0
H	-1.645374	-0.074223	-1.431775
N	-0.290124	1.321414	-2.104788
O	-1.21645	2.134412	-2.026544
O	0.794191	1.526205	-2.625089
C	-0.500398	-1.232228	0.736672
H	-0.1924	-2.155127	0.241433
H	-1.59356	-1.223082	0.839415
H	-0.06068	-1.214439	1.734667
N	-0.384543	1.210163	0.724128
H	0.369926	1.880322	0.629896
H	-1.237737	1.628259	0.37593
H	2.888704	0.0	0.0
