17

C	-0.421356	0.019042	-1.451527
C	0.0	0.0	0.0
F	-0.018669	-1.077612	-2.094672
H	1.095628	0.0	0.0
N	-1.937187	0.10857	-1.596254
O	-2.416374	1.219164	-1.390192
O	-2.538456	-0.924332	-1.851826
N	0.092819	1.206127	-2.256302
O	0.783567	2.044382	-1.693991
O	-0.235389	1.179053	-3.438251
C	-0.462507	-1.268062	0.563726
N	-0.854112	-2.255123	1.066391
C	-0.486106	1.162607	0.871422
H	-0.006144	1.058293	1.845614
H	-1.568818	1.155194	1.004572
H	-0.174701	2.111222	0.441843
Br	3.386906	0.0	0.0
