17

C	-0.417944	-0.06526	-1.4455
C	0.0	0.0	0.0
F	0.126202	0.927288	-2.148023
H	1.095432	0.0	0.0
N	-0.071398	-1.360044	-2.165947
O	0.480875	-2.24491	-1.531008
O	-0.386641	-1.368916	-3.352391
N	-1.932915	0.047753	-1.594153
O	-2.381466	1.134653	-1.931878
O	-2.564221	-0.963407	-1.305377
C	-0.51092	-1.107796	0.795416
N	-0.902302	-1.957503	1.505793
C	-0.427957	1.340406	0.61495
H	-0.06216	2.161206	-0.00138
H	0.041109	1.42016	1.595912
H	-1.511454	1.421061	0.729294
Br	3.349397	0.0	0.0
