17

C	-0.452143	-0.00225	-1.433392
C	0.0	0.0	0.0
F	-1.778101	-0.0747	-1.604061
H	1.092179	0.0	0.0
N	0.025182	1.276681	-2.127502
O	-0.832496	2.04128	-2.547974
O	1.239346	1.423799	-2.154894
N	0.160804	-1.129923	-2.268597
O	-0.403125	-1.358209	-3.334305
O	1.164284	-1.668541	-1.827092
C	-0.470667	-1.224678	0.619938
N	-0.873833	-2.201757	1.143828
C	-0.54128	1.23058	0.72741
H	-0.271479	1.169964	1.783424
H	-1.629454	1.301271	0.650268
H	-0.093875	2.142222	0.322951
Br	2.752133	0.0	0.0
