17

C	-0.554702	0.049716	-1.402816
C	0.0	0.0	0.0
F	-1.896434	0.159674	-1.41632
H	1.09238	0.0	0.0
N	-0.030333	1.19664	-2.25458
O	-0.54387	1.262247	-3.366838
O	0.815099	1.94113	-1.780407
N	-0.186498	-1.19747	-2.199275
O	-1.063749	-2.040269	-2.33098
O	0.966362	-1.229909	-2.604821
C	-0.466905	-1.245037	0.611203
N	-0.882217	-2.21447	1.128831
C	-0.467025	1.192392	0.847822
H	-0.059988	2.115278	0.439239
H	-0.064021	1.066936	1.853395
H	-1.555725	1.24818	0.904027
Br	3.391961	0.0	0.0
