17

C	-0.393304	0.009872	-1.457954
C	0.0	0.0	0.0
F	0.202535	-0.970142	-2.132757
H	1.097559	0.0	0.0
N	-1.893996	-0.143108	-1.736783
O	-2.67072	-0.055832	-0.795399
O	-2.178081	-0.342969	-2.913533
N	-0.055404	1.335105	-2.134565
O	-0.828684	2.254901	-1.880504
O	0.925814	1.355958	-2.858738
C	-0.453248	-1.262631	0.576522
N	-0.814159	-2.277304	1.044997
C	-0.414983	1.205896	0.844966
H	0.079516	2.102178	0.472364
H	-0.045914	1.030142	1.856809
H	-1.492104	1.356578	0.868458
Br	3.361769	0.0	0.0
