17

C	-0.554631	-0.016273	-1.399786
C	0.0	0.0	0.0
F	-1.898835	-0.09665	-1.421442
H	1.092265	0.0	0.0
N	-0.156514	1.246982	-2.143892
O	0.995025	1.273406	-2.552502
O	-1.008684	2.121163	-2.227596
N	-0.055936	-1.159942	-2.268725
O	-0.462123	-1.126293	-3.426282
O	0.650203	-2.009884	-1.747617
C	-0.502698	-1.173632	0.710649
N	-0.953551	-2.066168	1.326476
C	-0.422812	1.283596	0.731152
H	0.084064	2.142057	0.287952
H	-0.08855	1.206948	1.766166
H	-1.502911	1.439043	0.708128
Br	3.383643	0.0	0.0
