17

C	-0.39243	0.006938	-1.456828
C	0.0	0.0	0.0
F	0.14878	-1.014805	-2.116307
H	1.097571	0.0	0.0
N	-1.89827	-0.070857	-1.735701
O	-2.191673	-0.20229	-2.918914
O	-2.670831	-0.00771	-0.787621
N	0.01577	1.293862	-2.164658
O	-0.68046	2.267896	-1.896549
O	0.961944	1.235729	-2.92852
C	-0.460874	-1.256718	0.581684
N	-0.818606	-2.263937	1.068405
C	-0.406344	1.208634	0.850361
H	0.083141	2.105829	0.473543
H	-1.483843	1.359547	0.881451
H	-0.029204	1.033022	1.859806
Br	3.362206	0.0	0.0
