14
Coordinates from ORCA-job run
  C   -0.68384155192190      0.48018587430263      0.24082591901672
  C   0.14456204134727     -0.39827107110599     -0.71634015125893
  Br  -2.19063461839721      1.28613649225176     -0.66010338895054
  H   -0.54094769011337     -1.16312504378858     -1.09064830791296
  C   0.14529831441291      1.50078219148159      0.85700582707614
  N   0.87551975538123      2.31570602222544      1.28837188539069
  N   -1.23299241978803     -0.46315291083410      1.32541444470411
  O   -1.77042088200205     -1.47727559673622      0.91128694605994
  O   -1.09708809237763     -0.10870612855012      2.48530912302649
  N   1.17484541537675     -1.02970922358646      0.08044208739828
  H   1.43699890617377     -1.92701178580926     -0.30511944679420
  H   2.00073537135036     -0.44792490425320      0.15581750673095
  C   0.63556606017774      0.40724211983593     -1.84454942444568
  N   1.10239939038014      1.02612396456659     -2.72771302004103
