14
Coordinates from ORCA-job run
  C   -0.77321211968024      0.12962500005647      0.28651172612155
  C   0.62319242358141     -0.08671577659257     -0.37071139650626
  Br  -1.99176408300554     -1.27504083048550     -0.17323175351031
  H   1.23597575096410      0.75508537155295     -0.02856834361933
  C   -1.30217126975561      1.41380097870647     -0.14178813818217
  N   -1.66109681889299      2.46977874318822     -0.51383406299108
  N   -0.52573723773224      0.19339746230345      1.81001513833238
  O   -0.86888676453500     -0.74428060211863      2.50691452465969
  O   0.07735079784361      1.20432587099259      2.15333910717873
  N   0.48355120854749     -0.06835371043241     -1.80708800764261
  H   0.60759408432238     -0.98076086770482     -2.22240841032316
  H   1.12018289991769      0.59088394829967     -2.23125197161670
  C   1.22224286742846     -1.31922053256894      0.15857670866258
  N   1.75377826099647     -2.28052505519695      0.57552487943670
