14
Coordinates from ORCA-job run
  C   -0.77095439335188      0.40283279408125      0.21865088198091
  C   0.31082865873564     -0.01140571548052     -0.80999098794222
  Br  -2.53003437482410      0.09053982576577     -0.49384916143504
  H   0.10681392193590      0.60624921696939     -1.69009532325372
  C   -0.63913701257350      1.79656204358545      0.60515208370201
  N   -0.50307316988406      2.93000317279376      0.88333839732464
  N   -0.62229202146257     -0.44733471184249      1.51992027911739
  O   0.31850248281706     -1.22773605243530      1.54453989539286
  O   -1.47079187090708     -0.27488335012992      2.37436046221974
  N   0.18838716756316     -1.39687647212702     -1.20156850148521
  H   0.55175440799458     -1.52572636646682     -2.13649931919848
  H   0.69575346643443     -1.99487572885987     -0.56313300829797
  C   1.63750395512090      0.38183156114864     -0.29293735846874
  N   2.72673878240151      0.66981978299768      0.04411166034383
