14
Coordinates from ORCA-job run
  C   -0.71977635797491      0.19337419160621      0.30460814267797
  C   0.62625583264188     -0.08574398189351     -0.40398481215152
  Br  -2.03908292461446     -1.12456084981304     -0.15886972802309
  H   1.29763319495327      0.71335981586562     -0.07387687780708
  C   -1.20031682587968      1.52281850329073     -0.03299513556147
  N   -1.58896242114022      2.60293298813640     -0.28768830972625
  N   -0.42279304025833      0.17416842185197      1.82855364323516
  O   -0.93754361743518     -0.67790233070239      2.52739063855934
  O   0.36607374601075      1.04942925353613      2.16422454636951
  N   0.44566220572909      0.02450290948836     -1.83095454837764
  H   0.03802829998842     -0.81827705690223     -2.21619580146196
  H   1.33015921777146      0.20078083147110     -2.28933137820391
  C   1.17420560137173     -1.36978245167725      0.07259563039731
  N   1.63045708883605     -2.40310024425813      0.39752399007391
