16

C	-0.381233	-0.062659	-1.465665
C	0.0	0.0	0.0
F	-1.766415	-0.268342	-1.595925
H	1.094076	0.0	0.0
H	-0.199196	0.903206	-1.942422
N	0.30508	-1.17005	-2.065674
H	0.326112	-1.057467	-3.070614
H	1.266334	-1.180735	-1.732052
C	-0.532668	-1.160758	0.808134
H	-1.621605	-1.142235	0.858482
H	-0.126	-1.13436	1.818236
H	-0.214552	-2.082826	0.320985
N	-0.439389	1.313518	0.56711
O	-0.98417	1.320864	1.670084
O	-0.207434	2.324951	-0.093186
Cl	3.311689	0.0	0.0
