16

C	-0.48919	0.013023	-1.438061
C	0.0	0.0	0.0
F	-0.205647	-1.264831	-1.980845
H	1.092085	0.0	0.0
H	-1.577785	0.106826	-1.493398
N	0.136734	1.066629	-2.13481
H	1.145925	1.014443	-2.027215
H	-0.118876	1.07175	-3.112965
C	-0.539635	-1.159038	0.812764
H	-0.164685	-2.08784	0.38436
H	-1.631657	-1.167702	0.814111
H	-0.178431	-1.086945	1.84091
N	-0.477632	1.283725	0.605294
O	0.346823	2.122355	0.948104
O	-1.701722	1.414267	0.721764
Cl	3.370837	0.0	0.0
