16

C	-0.460658	-0.023295	-1.449906
C	0.0	0.0	0.0
F	-0.166214	1.239929	-2.002884
H	1.090119	0.0	0.0
H	0.176143	-0.732783	-1.983804
N	-1.825949	-0.369575	-1.637266
H	-2.04729	-0.346178	-2.624514
H	-2.401615	0.303231	-1.146259
C	-0.487364	-1.197232	0.797666
H	-0.124099	-2.107623	0.317063
H	-1.575478	-1.234257	0.84506
H	-0.062508	-1.158554	1.803089
N	-0.502576	1.239228	0.664031
O	0.283496	1.931005	1.298517
O	-1.715996	1.471487	0.56976
Cl	3.420615	0.0	0.0
