16

C	-0.464535	-0.028433	-1.447246
C	0.0	0.0	0.0
F	-0.143267	1.223992	-2.014267
H	1.09007	0.0	0.0
H	0.153091	-0.759467	-1.976781
N	-1.840315	-0.344641	-1.629923
H	-2.062696	-0.318388	-2.61682
H	-2.399251	0.34341	-1.139678
C	-0.49424	-1.189386	0.804719
H	-1.582738	-1.214419	0.85693
H	-0.143051	-2.105918	0.325713
H	-0.064198	-1.152166	1.80803
N	-0.486835	1.2529	0.653662
O	0.316892	1.956608	1.250149
O	-1.701841	1.486338	0.585459
Cl	3.444257	0.0	0.0
