16

C	-0.43117	0.006112	-1.451813
C	0.0	0.0	0.0
F	-1.743456	-0.445855	-1.609497
H	1.091827	0.0	0.0
H	-0.440693	1.02644	-1.854195
N	0.426675	-0.919436	-2.134741
H	1.409812	-0.734136	-1.903056
H	0.296103	-0.841469	-3.142402
C	-0.471748	-1.230261	0.760757
H	-0.007395	-1.240314	1.748536
H	-0.147134	-2.11346	0.209892
H	-1.559369	-1.243409	0.853932
N	-0.481642	1.210291	0.72505
O	-1.5574	1.709835	0.368236
O	0.191935	1.592182	1.684313
Cl	3.401154	0.0	0.0
