16

C	-0.499441	0.008355	-1.431782
C	0.0	0.0	0.0
F	-1.890777	0.335858	-1.399173
H	1.092018	0.0	0.0
H	-0.022725	0.811848	-1.989306
N	-0.280919	-1.229804	-2.075287
H	-0.519911	-1.168995	-3.055124
H	-0.825369	-1.963511	-1.643008
C	-0.519291	-1.152766	0.829655
H	-0.195286	-1.040892	1.862192
H	-1.609881	-1.210983	0.808611
H	-0.081289	-2.07698	0.447576
N	-0.39931	1.318719	0.598288
O	-0.145506	2.324874	-0.058819
O	-0.934271	1.331153	1.706521
Cl	3.363453	0.0	0.0
