16

C	-0.420937	0.164528	-1.477665
C	0.0	0.0	0.0
F	-0.733544	-1.108666	-1.960631
H	1.092025	0.0	0.0
H	-1.339615	0.753387	-1.553379
N	0.57516	0.739905	-2.321535
H	0.534859	1.74426	-2.214251
H	1.498873	0.449336	-2.004985
C	-0.549663	-1.209153	0.717574
H	-0.175803	-1.238681	1.740164
H	-1.643199	-1.207178	0.738405
H	-0.209247	-2.100411	0.192301
N	-0.370247	1.26206	0.715258
O	-0.708192	1.196846	1.896592
O	-0.290172	2.319311	0.083209
Cl	3.331205	0.0	0.0
