15

C	0.0	0.0	0.0
C	-0.536582	-0.170708	-1.425567
Br	1.950026	0.0	0.0
H	-1.623174	-0.086677	-1.290105
H	-0.341632	0.947301	0.418771
C	-0.399998	-1.097567	0.876464
N	-0.641481	-1.997905	1.591248
N	-0.123062	-1.473729	-1.949624
H	-0.681085	-2.189997	-1.493984
H	-0.368575	-1.507326	-2.932884
C	-0.056164	0.935954	-2.348004
H	1.01223	0.839188	-2.554231
H	-0.250975	1.919059	-1.912817
H	-0.600366	0.880565	-3.295371
Br	-3.733114	0.0	0.0
