15

C	0.0	0.0	0.0
C	-0.62131	-0.377485	-1.344508
Br	1.950095	0.0	0.0
H	-1.690581	-0.188315	-1.173646
H	-0.315169	1.005881	0.2862
C	-0.38024	-0.941469	1.053588
N	-0.616239	-1.724856	1.895635
N	-0.345507	-1.785694	-1.642407
H	-0.975161	-2.347844	-1.073272
H	-0.618479	-1.957238	-2.604751
C	-0.123885	0.511591	-2.468824
H	0.91402	0.280333	-2.721004
H	-0.744963	0.356357	-3.355878
H	-0.198978	1.566385	-2.19377
Br	-3.828084	0.0	0.0
