15

C	0.0	0.0	0.0
C	-0.555293	0.297702	-1.409393
Br	1.956361	0.0	0.0
H	-1.640158	0.299901	-1.240734
H	-0.325978	0.757772	0.71406
C	-0.384684	-1.330484	0.464049
N	-0.594218	-2.43773	0.796293
N	-0.260996	-0.719114	-2.402884
H	0.72605	-0.954613	-2.391647
H	-0.792427	-1.556261	-2.192371
C	-0.128386	1.669744	-1.901483
H	0.938566	1.701351	-2.140533
H	-0.344669	2.440074	-1.155586
H	-0.691006	1.896085	-2.808676
Br	-3.731275	0.0	0.0
