15

C	0.0	0.0	0.0
C	-0.549534	0.516074	-1.347353
Br	1.95802	0.0	0.0
H	-1.633895	0.506164	-1.18018
H	-0.326948	0.63555	0.824195
C	-0.387881	-1.385419	0.253639
N	-0.612945	-2.51871	0.464652
N	-0.268635	-0.342918	-2.483109
H	-0.822279	-1.188291	-2.408415
H	0.712023	-0.60182	-2.504195
C	-0.103937	1.940962	-1.628238
H	-0.296312	2.590528	-0.769655
H	-0.672592	2.313951	-2.481058
H	0.960271	1.991605	-1.875303
Br	-3.716495	0.0	0.0
