15

C	0.0	0.0	0.0
C	-0.572686	-0.063158	-1.446672
Br	1.946115	0.0	0.0
H	0.272411	0.089947	-2.124873
H	-0.298327	0.955458	0.433417
C	-0.41127	-1.093326	0.878318
N	-0.657166	-2.004056	1.579445
N	-1.461096	1.089745	-1.582298
H	-2.313853	0.895571	-1.046263
H	-1.765231	1.146662	-2.547365
C	-1.215877	-1.415064	-1.757682
H	-1.530221	-1.422006	-2.805352
H	-0.517786	-2.246227	-1.607483
H	-2.106494	-1.553372	-1.140445
Br	-4.31871	0.0	0.0
