15

C	0.0	0.0	0.0
C	-0.588635	-0.094421	-1.40465
Br	1.967401	0.0	0.0
H	-1.6667	-0.161087	-1.198552
H	-0.317288	0.919506	0.494448
C	-0.369379	-1.150165	0.821916
N	-0.623238	-2.082546	1.48885
N	-0.15241	-1.327445	-2.043736
H	0.613434	-1.153678	-2.681721
H	-0.921766	-1.731227	-2.559226
C	-0.329941	1.170081	-2.211551
H	0.738645	1.305545	-2.409843
H	-0.707138	2.052635	-1.688031
H	-0.855809	1.099101	-3.166945
Br	-3.809591	0.0	0.0
