15

C	-0.145798	-0.090152	-0.007821
C	-0.320229	0.005843	-1.528843
F	1.080244	0.461107	0.400623
H	0.469847	-0.590842	-2.007458
H	-0.989706	0.457216	0.447966
C	-0.15575	-1.494501	0.426883
N	-0.136872	-2.623666	0.750261
C	-0.203556	1.46222	-1.955964
H	-0.3464	1.525321	-3.03715
H	0.770324	1.880637	-1.691755
H	-0.995897	2.029892	-1.462295
N	-1.628586	-0.500982	-1.921146
H	-2.313259	0.011919	-1.335674
H	-1.702241	-1.482668	-1.670151
H	-2.898989	1.080886	0.100567
