15

C	-0.213549	-0.068843	0.030877
C	-0.427623	-0.166632	-1.485032
F	0.951856	0.654476	0.335409
H	0.414795	-0.724532	-1.919063
H	-1.103489	0.432237	0.450704
C	-0.059107	-1.407112	0.619299
N	0.088141	-2.483466	1.066211
C	-0.482254	1.235796	-2.074812
H	0.442795	1.785875	-1.887625
H	-0.649779	1.159184	-3.15161
H	-1.324897	1.765331	-1.623738
N	-1.678578	-0.853332	-1.776698
H	-1.63812	-1.802651	-1.417213
H	-2.404283	-0.354603	-1.229918
H	-3.078051	0.802223	0.096979
