15

C	-0.215362	-0.072639	0.028601
C	-0.436369	-0.171661	-1.486169
F	0.950061	0.652937	0.327413
H	0.404845	-0.728333	-1.924088
H	-1.104231	0.427289	0.452145
C	-0.056252	-1.41029	0.617383
N	0.094722	-2.486126	1.064356
C	-0.496548	1.230315	-2.076449
H	-1.337983	1.758528	-1.621571
H	-0.669149	1.15282	-3.152383
H	0.428335	1.782345	-1.894132
N	-1.687559	-0.860822	-1.771463
H	-2.411489	-0.363073	-1.221372
H	-1.643571	-1.809752	-1.411343
H	-3.081217	0.792981	0.107827
