14
Coordinates from ORCA-job run
  C   -0.61448454112393      0.07433105327089      0.23301657328470
  C   0.80911513086450     -0.47931706457355      0.45885987780302
  Br  -1.76305558177271     -0.45168471233525      1.69855984229436
  H   1.17567669286638     -0.09506897060578      1.41516610050696
  N   -1.15215306733754     -0.34711575308451     -0.98519814871819
  H   -2.10017640783397     -0.02036689817609     -1.11849187161243
  H   -0.57643451598103     -0.06478286852048     -1.77170741248870
  N   -0.49069198651786      1.63434278513800      0.36591699928803
  O   -1.19330807881641      2.28700017516341     -0.39285036700426
  O   0.27931675357686      2.06367839199384      1.21511236095344
  C   1.68019332539548      0.01744402824002     -0.61284750893999
  N   2.32492292391654      0.43929312494893     -1.49963754422086
  C   0.79904278151610     -1.94226895449777      0.48080183735775
  N   0.82303657124756     -3.11548433696168      0.51429926149616
