14
Coordinates from ORCA-job run
  C   -0.61152790148409      0.08392393509136      0.23654113757281
  C   0.81038505154997     -0.47378334130117      0.46252191128998
  Br  -1.75144456626426     -0.40609382021959      1.72142125513945
  H   1.18824865355948     -0.07144847419667      1.40682271304817
  N   -1.16121650852198     -0.35956067602564     -0.96890012923630
  H   -2.10756992332698     -0.02772858115296     -1.10184726726858
  H   -0.58919971198672     -0.09676199548801     -1.76489838531446
  N   -0.48025645238116      1.64525538956545      0.33623322177729
  O   -1.20270831813444      2.28473620325280     -0.41511950215659
  O   0.31293889157460      2.08913356916433      1.15616532071441
  C   1.67477609126966     -0.00784021505469     -0.62828169613823
  N   2.31278946305721      0.38421440410362     -1.53332133704591
  C   0.79145961960325     -1.93593074254734      0.51693121830095
  N   0.81432561148546     -3.10811565519151      0.57773153931701
