14
Coordinates from ORCA-job run
  C   -0.62139169113604      0.10518955993767      0.15729044412163
  C   0.56771496383701     -0.86028598286557     -0.02206346526268
  Br  -1.59221100394602     -0.43454531287789      1.81168282229721
  H   0.11943785267382     -1.83382471926403     -0.26339493160977
  N   -1.39197173781968      0.15878194797802     -1.00692495374164
  H   -2.07348232345506      0.90737964941228     -0.96669710727239
  H   -1.83785082080434     -0.72355972873210     -1.22197109624352
  N   -0.13129176739723      1.52643655290307      0.43022276028481
  O   -0.96063821613768      2.41065017782283      0.26991514202536
  O   1.03052336086875      1.65501014715424      0.79001365503013
  C   1.39215412462666     -1.05090936359777      1.17353502619478
  N   2.07048545640834     -1.28510794575181      2.10267059377848
  C   1.38689558255214     -0.44224970399675     -1.16564728987330
  N   2.04162621972936     -0.13296527812219     -2.08963159972910
