14
Coordinates from ORCA-job run
  C   -0.61861291991895      0.11146190129448      0.16411352492900
  C   0.55641887768479     -0.86746699022885     -0.03615993722457
  Br  -1.58177710317068     -0.43252926226583      1.82118095297454
  H   0.09387212624758     -1.83301679928903     -0.28254994402147
  N   -1.39857700245110      0.18783181710041     -0.99251554460532
  H   -2.07079372496159      0.94400459993562     -0.93746237471370
  H   -1.85724546732235     -0.68654012321033     -1.21330429592386
  N   -0.10635186668117      1.52359422094886      0.44737343650876
  O   1.05972222181835      1.63224287481360      0.79966474989398
  O   -0.92484384400001      2.42062463701721      0.30327831954506
  C   1.38924568385356     -1.07972730239132      1.14997447826062
  N   2.07161245670721     -1.32932053972754      2.07196584305113
  C   1.36980060662944     -0.44828416019821     -1.18346509948459
  N   2.01852995556491     -0.14287487379906     -2.11309410918955
