14
Coordinates from ORCA-job run
  C   -0.51501222344233      0.18234293080673      0.10391768324952
  C   0.90143331028649     -0.36862870768760     -0.17095388996659
  Br  -1.37742538699951     -0.92241654060605      1.50864244268909
  H   1.41155695104672      0.38656662991220     -0.78089244858285
  N   -1.23218157763255      0.32217906442964     -1.09247877020901
  H   -2.10851324628801      0.80630200838263     -0.93314975322522
  H   -1.40023005026980     -0.56719784490964     -1.54777476907982
  N   -0.40670280770476      1.58957136395058      0.69548675510418
  O   0.70962459297869      1.98629440767780      1.00504194993605
  O   -1.45936379841434      2.20372398336027      0.78406699718546
  C   0.77527087251092     -1.59834721744437     -0.95862451330731
  N   0.63713591189531     -2.56114767209655     -1.61657729300403
  C   1.69400903740059     -0.61481403125346      1.03472622793134
  N   2.36939841463258     -0.84242837452218      1.96756938127918
