13

C	0.0	0.0	0.0
C	-0.511507	0.022587	-1.421522
Cl	1.831575	0.0	0.0
H	-0.219943	-0.865872	-1.978907
H	-0.303081	0.910809	0.509565
H	-1.607275	0.105563	-1.342358
N	-0.519489	-1.136596	0.647915
H	-0.664067	-1.026583	1.636487
H	-0.040557	-1.992897	0.418487
N	-0.006467	1.190441	-2.183389
O	0.010816	2.275967	-1.606665
O	0.329798	1.008449	-3.353729
Br	-3.859928	0.0	0.0
