13

C	0.0	0.0	0.0
C	-0.507724	0.009285	-1.423641
Cl	1.831344	0.0	0.0
H	-1.603225	0.096215	-1.352344
H	-0.303415	0.916824	0.498414
H	-0.216219	-0.884474	-1.970943
N	-0.522088	-1.126676	0.66006
H	-0.052549	-1.989571	0.437523
H	-0.666428	-1.004941	1.647216
N	0.003198	1.168747	-2.195564
O	0.341437	0.97537	-3.363089
O	0.022661	2.259227	-1.628876
Br	-3.873344	0.0	0.0
