13

C	0.0	0.0	0.0
C	-0.477738	-0.082808	-1.467255
Cl	1.789149	0.0	0.0
H	-1.559806	0.099643	-1.44894
H	-0.341541	0.969486	0.366943
H	0.076994	0.604908	-2.112735
N	-0.50675	-1.016548	0.873259
H	-1.533511	-0.930122	0.893005
H	-0.27121	-1.935711	0.528525
N	-0.26554	-1.455627	-2.005724
O	-1.218811	-2.238948	-1.957614
O	0.87163	-1.73921	-2.40056
Br	-3.688659	0.0	0.0
