13

C	0.0	0.0	0.0
C	-0.497953	0.107393	-1.42533
Cl	1.782674	0.0	0.0
H	-1.594874	0.161624	-1.388382
H	-0.285631	0.903545	0.543737
H	-0.151388	-0.732548	-2.023145
N	-0.50282	-1.2348	0.543596
H	-0.263608	-1.276641	1.52863
H	-1.524513	-1.171501	0.486626
N	-0.014481	1.343549	-2.088016
O	0.391137	1.245315	-3.246955
O	-0.074826	2.393819	-1.451557
Br	-3.713017	0.0	0.0
