13

C	0.0	0.0	0.0
C	-0.463997	-0.022723	-1.458744
Cl	1.80073	0.0	0.0
H	-1.554986	-0.133273	-1.445159
H	-0.309639	0.970052	0.390966
H	-0.163967	0.879218	-1.988048
N	-0.492174	-1.013152	0.876876
H	-0.393335	-1.912978	0.421945
H	-1.493762	-0.833733	0.978746
N	0.107779	-1.151439	-2.232359
O	0.65287	-0.895846	-3.306126
O	-0.00551	-2.284713	-1.762789
Br	-3.694161	0.0	0.0
