14

C	-0.511549	0.031027	-1.43284
C	0.0	0.0	0.0
F	0.041471	-0.984887	-2.122231
H	1.092228	0.0	0.0
H	-1.59757	-0.023592	-1.50084
N	-0.12257	1.336473	-2.092465
O	-0.751775	2.313617	-1.691526
O	0.724902	1.312803	-2.968211
N	-0.460515	-1.307083	0.623335
O	0.184849	-1.707638	1.579708
O	-1.461947	-1.842563	0.146711
C	-0.525802	1.059131	0.844155
N	-0.939921	1.888728	1.56661
Cl	3.146822	0.0	0.0
