14

C	-0.586376	0.116021	-1.393871
C	0.0	0.0	0.0
F	-1.9445	0.175615	-1.339722
H	1.093485	0.0	0.0
H	-0.196755	1.016715	-1.871113
N	-0.202929	-1.01732	-2.326099
O	0.98198	-1.052179	-2.619059
O	-1.097662	-1.741535	-2.737336
N	-0.426505	-1.268276	0.682973
O	-0.729579	-1.207505	1.868979
O	-0.376862	-2.285598	7.1e-05
C	-0.460883	1.149513	0.770147
N	-0.826028	2.11723	1.326103
Cl	3.118248	0.0	0.0
