14

C	-0.515572	0.019684	-1.431563
C	0.0	0.0	0.0
F	0.040801	-0.993674	-2.123764
H	1.092889	0.0	0.0
H	-1.601549	-0.042309	-1.496358
N	-0.136925	1.324493	-2.101739
O	-0.708787	2.313853	-1.652447
O	0.644783	1.284526	-3.03898
N	-0.450806	-1.294072	0.648481
O	-1.370437	-1.914522	0.117251
O	0.121007	-1.60007	1.683675
C	-0.514897	1.073013	0.836304
N	-0.936375	1.88428	1.572833
Cl	3.139491	0.0	0.0
