14

C	-0.424264	0.011185	-1.454791
C	0.0	0.0	0.0
F	0.132411	1.060149	-2.09004
H	1.095464	0.0	0.0
H	-0.15419	-0.924091	-1.944641
N	-1.934709	0.148504	-1.58215
O	-2.590991	-0.546894	-0.813022
O	-2.372724	0.896708	-2.44478
N	-0.375285	-1.29166	0.663048
O	-0.228121	-2.303482	-0.013303
O	-0.723818	-1.251457	1.83627
C	-0.526926	1.139723	0.728497
N	-0.921933	2.101819	1.274302
Cl	3.11015	0.0	0.0
