16

C	0.0	0.0	0.0
C	-0.339578	-0.326433	-1.490837
F	1.386958	0.0	0.0
H	-0.149147	0.597941	-2.04071
N	-0.463293	1.337058	0.246601
H	-1.491982	1.176995	0.219062
H	-0.208674	1.573784	1.202608
N	-0.448507	-1.059988	0.849267
H	-0.162553	-0.83458	1.798045
H	-1.474301	-0.944107	0.777852
C	-1.633539	-0.879694	-1.900812
N	-2.450922	-1.395667	-2.574085
N	0.704766	-1.293032	-2.008582
O	1.594275	-0.814439	-2.712971
O	0.598864	-2.472832	-1.695066
F	-2.706914	0.0	0.0
