16

C	0.0	0.0	0.0
C	-0.492388	0.059534	-1.480609
F	1.370988	0.0	0.0
H	-1.592631	0.140257	-1.344762
N	-0.455759	1.092275	0.80019
H	-1.481536	0.994304	0.739128
H	-0.19325	1.97832	0.382905
N	-0.48837	-1.254662	0.483656
H	-1.514573	-1.123241	0.425616
H	-0.246136	-1.278296	1.470396
C	-0.095221	-1.105168	-2.255166
N	0.186019	-2.046009	-2.899339
N	0.038749	1.287737	-2.143176
O	-0.519867	2.349239	-1.862877
O	1.01485	1.185703	-2.885646
F	-2.800581	0.0	0.0
