16

C	0.0	0.0	0.0
C	-0.511201	-0.411708	-1.395788
F	1.382843	0.0	0.0
H	-1.61379	-0.398521	-1.275073
N	-0.448711	1.347391	0.218623
H	-0.141887	1.624433	1.146669
H	-1.476217	1.228764	0.232371
N	-0.465237	-1.028631	0.888689
H	-1.490137	-0.89173	0.843781
H	-0.141426	-0.800714	1.824301
C	0.024802	-1.696177	-1.81631
N	0.424277	-2.7316	-2.199368
N	-0.127519	0.623284	-2.411712
O	-1.014669	1.372203	-2.809742
O	1.048549	0.655931	-2.770932
F	-2.793799	0.0	0.0
