16

C	0.0	0.0	0.0
C	-0.505686	0.01571	-1.470582
F	1.371393	0.0	0.0
H	-1.607663	0.036949	-1.337488
N	-0.476859	1.207839	0.591681
H	-1.503615	1.102323	0.519566
H	-0.233762	1.146492	1.575963
N	-0.46489	-1.166857	0.687029
H	-0.166725	-2.009664	0.206741
H	-1.491071	-1.067124	0.626726
C	-0.034299	-1.146656	-2.205571
N	0.313935	-2.11571	-2.771226
N	-0.062728	1.252851	-2.186215
O	1.102176	1.292768	-2.582546
O	-0.89012	2.150908	-2.315022
F	-2.804677	0.0	0.0
