16

C	0.0	0.0	0.0
C	-0.210748	0.112295	-1.545741
F	1.404661	0.0	0.0
H	0.203004	-0.815151	-1.943603
N	-0.461698	1.181775	0.648891
H	-0.193444	1.118191	1.627377
H	-1.493948	1.044727	0.581345
N	-0.468853	-1.280678	0.431777
H	-0.229952	-1.363474	1.417976
H	-1.500273	-1.118952	0.376002
C	0.555067	1.247272	-2.065263
N	1.169401	2.117728	-2.556466
N	-1.596147	0.200066	-2.138067
O	-2.069147	1.315032	-2.301041
O	-2.070462	-0.856542	-2.536159
F	-2.707348	0.0	0.0
