12

C	-0.508768	-0.017307	-1.412006
C	0.0	0.0	0.0
F	-0.112453	1.078562	-2.100446
H	1.090395	0.0	0.0
H	-0.370702	-0.874497	0.535033
H	-0.364396	0.913474	0.476148
C	-0.165721	-1.22585	-2.17607
N	0.083717	-2.192854	-2.792935
N	-2.052327	0.027843	-1.375567
O	-2.593042	1.083386	-1.671265
O	-2.601197	-0.99897	-0.993677
Cl	3.409602	0.0	0.0
