12

C	-0.544387	-0.050492	-1.391307
C	0.0	0.0	0.0
F	-1.92071	-0.163178	-1.38283
H	1.090544	0.0	0.0
H	-0.365079	0.908996	0.481816
H	-0.371248	-0.87596	0.533652
C	-0.207152	1.109725	-2.226679
N	-0.040982	2.08763	-2.85497
N	-0.061197	-1.321436	-2.099213
O	0.625581	-1.198569	-3.104587
O	-0.433608	-2.366451	-1.5829
Cl	3.398693	0.0	0.0
