12

C	-0.5418	-0.073539	-1.39079
C	0.0	0.0	0.0
F	-1.917374	-0.195644	-1.383211
H	1.090369	0.0	0.0
H	-0.36996	-0.867876	0.546811
H	-0.365239	0.916317	0.466466
C	-0.209663	1.077368	-2.239314
N	-0.043306	2.044939	-2.881927
N	-0.047124	-1.349486	-2.081645
O	0.638848	-1.232407	-3.087404
O	-0.40869	-2.390884	-1.550023
Cl	3.400639	0.0	0.0
