12
Coordinates from ORCA-job run
  C   0.44679518173107     -0.64697070301418      0.58423312047529
  C   -0.51217847694565      0.11513045219274     -0.04080031688781
  H   0.19953162684788     -1.52138452175404      1.16619895812780
  N   1.83396255469255     -0.39902767806572      0.49511126196082
  O   2.25081612900961      0.60698730622963     -0.11291331729932
  O   2.58511973295819     -1.21444266419387      1.03677924215642
  N   -0.27539074338826      1.29523652745055     -0.67096729899461
  H   -0.90386547013019      1.56481716112586     -1.40915852421120
  H   0.70704951372600      1.49337835881210     -0.80752235874464
  N   -1.83429965905673     -0.25294391616821      0.07931336454325
  H   -2.49046136280710      0.19306037210868     -0.53953147525643
  H   -2.00607902663736     -1.23384069472354      0.22025734413043
