12
Coordinates from ORCA-job run
  C   0.42605659571304     -0.64168553294078      0.56926607890279
  C   -0.50098666451539      0.08261613701501     -0.13161935745284
  H   0.17081170133424     -1.53366040226676      1.12105424022717
  N   1.81967932345572     -0.37420052431429      0.54832178933641
  O   2.55288192713755     -1.19491543861004      1.10444510378301
  O   2.24459359807136      0.65590592131835     -0.00494630549343
  N   -0.28126387836159      1.27917580382899     -0.74569222800302
  H   -0.82191223705722      1.43219220673485     -1.58235072344888
  H   0.69485815669429      1.53797994352622     -0.79099786774083
  N   -1.80206478235289     -0.37768658588834     -0.24917259747721
  H   -2.49937063869323      0.34159211301643     -0.12526595778153
  H   -2.00428310142587     -1.20731364141962      0.28595782514836
