12
Coordinates from ORCA-job run
  C   0.48256788692561     -0.75438945620532      0.34025749575062
  C   -0.51007475723420      0.08848917063097     -0.08318524608446
  H   0.29467917294814     -1.78061284205487      0.61741932836513
  N   1.86044691379483     -0.41373802416411      0.34927251769337
  O   2.21146052461099      0.75426012309293      0.10403132516174
  O   2.65586806968203     -1.31735095807318      0.61597283766547
  N   -0.37442546184693      1.42234751226776     -0.32884985995839
  H   -0.96313433662994      1.77943298958802     -1.06477313147178
  H   0.58614004981847      1.73713328288225     -0.33341997916032
  N   -1.79451167914670     -0.38968611591958     -0.28085102156878
  H   -2.51497292838845      0.22272610652026      0.07216124646652
  H   -1.93404345453385     -1.34961178856513     -0.00803551285910
