12
Coordinates from ORCA-job run
  C   0.98248476582660      0.16557056772504      0.24565842644668
  C   -0.33185178060099      0.35390030561303     -0.02271341156664
  H   1.69125512215379      0.96796097149146      0.38320600457560
  N   1.56509365058632     -1.15939112841776      0.23624632231366
  O   1.02488158529859     -2.05688681586232      0.88297991353377
  O   2.60920958995897     -1.29124776468877     -0.41084458442561
  N   -1.13526955786660     -0.65964715808009     -0.50835024177682
  H   -2.13068941404074     -0.55731477412973     -0.42159781760920
  H   -0.81625790754152     -1.18544668092515     -1.30252932203837
  N   -0.90969182644806      1.60259767232682      0.14036552444348
  H   -1.84205812704112      1.72337933012859     -0.21426822736641
  H   -0.70710610028523      2.09652547481889      0.99184741346985
