12
Coordinates from ORCA-job run
  C   0.75658833496995     -0.02186793004669      0.61128053956145
  C   -0.39648400527455      0.33784210124164     -0.04736140989864
  H   1.26013191239219      0.64067787663229      1.29817821244411
  N   1.39614768876567     -1.26999642619463      0.45501983121775
  O   2.42223240844940     -1.46296366577789      1.11294460830032
  O   0.92478326526053     -2.11506962406042     -0.33193149052193
  N   -0.97238773985427      1.56487346578858      0.22681649410361
  H   -0.36060545687705      2.21957002444527      0.68662066943252
  H   -1.48006192284951      1.98610250967820     -0.53552177140168
  N   -1.09887620225260     -0.47323424268198     -0.86974302460541
  H   -1.81703945560760     -0.08494484974571     -1.45453030657135
  H   -0.63242882712215     -1.32298923927865     -1.15077235206077
