12
Coordinates from ORCA-job run
  C   0.83206160134882      0.00323020595903      0.47448120799287
  C   -0.38053991538867      0.35669452275773     -0.05433714636546
  H   1.36585452333630      0.62844066886179      1.17402826155915
  N   1.45897266334089     -1.25012417655514      0.25049828491017
  O   0.98048846686144     -2.04269619612902     -0.58047407670181
  O   2.47833841252117     -1.48716889664643      0.90250852142477
  N   -1.03048561956392      1.49557251382146      0.39140551832382
  H   -1.44257942131239      2.04265762765340     -0.35008467805508
  H   -0.49946437175211      2.05847085631091      1.03688437575849
  N   -1.05107652607708     -0.31390100351461     -1.03304941831584
  H   -0.65591654521825     -1.21913893236173     -1.24772856257703
  H   -2.05565326809621     -0.27203719015739     -0.96413228795405
