12
Coordinates from ORCA-job run
  C   0.45019208147057     -0.74296294570217      0.40387745191334
  C   -0.50481687759300      0.09960071512203     -0.09806173188711
  H   0.20859135542845     -1.65171332346290      0.93387790287794
  N   1.84142349223921     -0.45877296958155      0.38854724407725
  O   2.57416416106254     -1.23137195398739      1.01058684953653
  O   2.26331938430790      0.53687282618772     -0.22615568290906
  N   -0.27702625480745      1.19086899037861     -0.88121785569858
  H   0.69749484663621      1.45106143912026     -0.94489437258379
  H   -0.93148280052587      1.94669598842734     -0.75450435477328
  N   -1.84657317507295     -0.13342478492197      0.16014558265712
  H   -2.44019193876268     -0.01704808822595     -0.64802524702025
  H   -2.03509427438294     -0.98980589335401      0.65682421380989
