12
Coordinates from ORCA-job run
  C   0.70924003903732     -0.04176503418225      0.64204810420707
  C   -0.35993401736189      0.36546146155417     -0.11026293636122
  H   1.19478776093881      0.60250431462436      1.35926925185868
  N   1.35797359736551     -1.29436773685967      0.48404940923758
  O   0.86817976705423     -2.15502879409159     -0.26893816064500
  O   2.39504264365204     -1.46953928200124      1.12760581461070
  N   -0.78807766685769      1.68147886474879     -0.05892142582074
  H   -1.79181934153589      1.77994235514162     -0.01753572842026
  H   -0.31542306907000      2.25211502147698      0.62401306814343
  N   -1.10190567948823     -0.42437622258648     -0.93687514810167
  H   -0.69961503405655     -1.33872999192949     -1.09140240801097
  H   -1.46944899967767      0.04230504410479     -1.75104984069761
