12
Coordinates from ORCA-job run
  C   0.85526465788247      0.01935179557233      0.43140361898267
  C   -0.37807081893191      0.35871335417536     -0.05774231601801
  H   1.51475440978707      0.73824712761545      0.89346340325198
  N   1.44425157731479     -1.26191079029023      0.27181368390533
  O   2.62048477742175     -1.38200955703085      0.62176747923434
  O   0.77107637824374     -2.19974654648247     -0.19194377984129
  N   -0.78187662347060      1.68307903751893     -0.07352995788255
  H   -1.73733850784884      1.82099258849031      0.22104723899762
  H   -0.14358196995185      2.32405653478949      0.37039479084187
  N   -1.31217275700660     -0.50900949298211     -0.53914062151667
  H   -1.88893417335521     -0.14258708020634     -1.27994840316771
  H   -0.96385695008481     -1.44917697116987     -0.66758513678758
