12
Coordinates from ORCA-job run
  C   0.79717360741796     -0.01437093508764      0.56194539131377
  C   -0.30029550230429      0.40228271871521     -0.15563109351808
  H   1.30668771361165      0.62848375502973      1.26311125158659
  N   1.35397533157382     -1.30768212883245      0.47225389553271
  O   0.86163301981974     -2.14472669051905     -0.31086423544637
  O   2.32067230467368     -1.55535346137003      1.19812962050773
  N   -0.74768851366038      1.69880503479118      0.00202402176303
  H   -1.71074769346482      1.86820422844888     -0.23993042595950
  H   -0.47844395140131      2.13748072708901      0.86717820015536
  N   -0.91369974657352     -0.32687347653087     -1.11840275270952
  H   -1.85320157725667     -0.08754891813078     -1.38366712023892
  H   -0.63606499243586     -1.29770085360320     -1.15514675298679
