12
Coordinates from ORCA-job run
  C   0.82807673341596      0.02654252979295      0.48055369409257
  C   -0.38872602456482      0.34711442562959     -0.05959154906050
  H   1.33455725912730      0.66187099964343      1.19125411777232
  N   1.48649569396022     -1.21285459529495      0.26793455891079
  O   2.49911824003061     -1.42770509940358      0.93790767518294
  O   1.04001284826229     -2.01575858925454     -0.57088259279290
  N   -1.07399418198329      1.46794248975379      0.38017555554631
  H   -0.56499497492527      2.04181857665450      1.03380867485444
  H   -1.48751862380925      2.00732012608124     -0.36625851740101
  N   -1.02990003292346     -0.33867644347583     -1.04747389608646
  H   -2.03593031321977     -0.32406818824904     -0.98896304987621
  H   -0.60819662337051     -1.23254623187755     -1.25946467114229
