12
Coordinates from ORCA-job run
  C   0.89106797021757      0.08418017454289      0.34144731129481
  C   -0.38734418317248      0.34570846802556     -0.07376079589277
  H   1.57983284156081      0.86364852635625      0.63005048247090
  N   1.48276305022805     -1.20583063277625      0.31695770842921
  O   2.68743464097441     -1.27095259258710      0.57181523483901
  O   0.78529969800842     -2.20257388889477      0.05683299920922
  N   -1.34827438137293     -0.58452226401085     -0.33568692312947
  H   -1.99599700845176     -0.33061940081969     -1.06487987498502
  H   -0.99842393766942     -1.53257201246728     -0.35983702890114
  N   -0.81187012324340      1.65332536028827     -0.24453797837295
  H   -0.14656342462381      2.35226062660066      0.04616361716869
  H   -1.73792514245544      1.82794763574231      0.11743524786948
