12
Coordinates from ORCA-job run
  C   0.44882804853688     -0.68326106372541      0.49937065672045
  C   -0.50570601471410      0.09054476801545     -0.10499558150211
  H   0.21637915288771     -1.61839440946998      0.98588551024633
  N   1.84015202327466     -0.40790306021530      0.44778444418582
  O   2.24172552474624      0.66605639787018     -0.03481658606994
  O   2.59538580474981     -1.26780631904310      0.90659155052482
  N   -1.80894521512498     -0.36563844351089     -0.21095494977470
  H   -2.50311218123648      0.33792179572418     -0.00609126060036
  H   -1.99042578001291     -1.23676561639389      0.26193932129823
  N   -0.31222525079049      1.33426910231687     -0.62749041496665
  H   0.66094340171077      1.60088275858291     -0.68790990651646
  H   -0.88299951402711      1.55109408984898     -1.42931278354543
