12
Coordinates from ORCA-job run
  C   0.87516062623257      0.08828405611886      0.37910603443208
  C   -0.39453637401420      0.33860453678986     -0.06856073034181
  H   1.52787957647849      0.86763719543756      0.74212883945614
  N   1.50546188934468     -1.18115684376545      0.30264762046358
  O   2.70016602562777     -1.22864265947132      0.60394649639856
  O   0.84901518447881     -2.17896367565801     -0.04518749887243
  N   -1.31640332580697     -0.60085490669220     -0.42208510580438
  H   -1.94435989545309     -0.32203091453547     -1.15942276977960
  H   -0.93661183416322     -1.53520034042535     -0.48953442549275
  N   -0.85172879129501      1.64132933962519     -0.17710054692812
  H   -1.79607325411080      1.76910854742740      0.15564936532603
  H   -0.21896982731903      2.34088566514894      0.17741272114271
