12
Coordinates from ORCA-job run
  C   0.91419949224991      0.13878302105735      0.32299088089814
  C   -0.40037315538154      0.31418392307045      0.02531208021864
  H   1.58485708493705      0.94874480624319      0.56576712865495
  N   1.56912376955258     -1.13326800027861      0.16426398466202
  O   0.95501090546792     -2.16794409148639      0.44170103275491
  O   2.73351596339590     -1.10278654149852     -0.24460593893413
  N   -1.21813437689185     -0.62687661413033     -0.51974156553386
  H   -2.20941015299482     -0.54222598588894     -0.39638232519493
  H   -0.85368784891052     -1.43585837125197     -0.98527314317659
  N   -1.05794692664713      1.50946038167951      0.30682330962128
  H   -0.49792223153464      2.17773542797361      0.81276301756528
  H   -1.51823252324286      1.91805204451066     -0.49361846153571
