12
Coordinates from ORCA-job run
  C   0.88925368102211      0.11402271851070      0.50835688340434
  C   -0.35425273393606      0.39017883243350      0.06534829700048
  H   1.53957514631754      0.80679421919886      1.02023221070325
  N   1.45885097830995     -1.20021147396094      0.23712316056173
  O   1.97875238786459     -1.38404105497385     -0.86570651011796
  O   1.39287637363080     -2.04849901207128      1.13149864886162
  N   -0.85869926745002      1.68235012325390      0.09992939696582
  H   -1.85096887121591      1.76087288622959     -0.04403617670452
  H   -0.30373853503783      2.39797680026578     -0.33451101349007
  N   -1.27168340774245     -0.57615374098623     -0.33981343341581
  H   -0.96548119593792     -1.52980329162657     -0.21741477645787
  H   -1.65548455582480     -0.41448700627344     -1.26000668731099
