12
Coordinates from ORCA-job run
  C   0.50689079282898     -0.72733113875050      0.31481971308442
  C   -0.50167954958113      0.14226883349308     -0.02162777592290
  H   0.29963857686263     -1.73279457430314      0.63471969263153
  N   1.87912969682843     -0.47355042734873      0.08880976748667
  O   2.24463773824355      0.68754557744503     -0.17354624447515
  O   2.66901428010250     -1.41710558460291      0.19651473841157
  N   -0.36209626360022      1.40570076439856     -0.31489372554483
  H   0.59007926064288      1.69043620502925     -0.38701559679619
  H   -1.03338626066700      1.78847699750901     -0.92946153412507
  N   -1.83022418760502     -0.32783527760188     -0.04081683690896
  H   -1.93563435736982     -1.30349871192012      0.21133651263480
  H   -2.52636972668578      0.26768733665234      0.42216128952410
