12
Coordinates from ORCA-job run
  C   0.94960834189689      0.08163750990644      0.09850341713221
  C   -0.38346403066091      0.35180837179205     -0.06279330204796
  H   1.68684270760583      0.85743620221379      0.23924599926979
  N   1.48203507670387     -1.22803998404989      0.22288381764576
  O   0.74932405062660     -2.21527193030478      0.03236904084562
  O   2.67691217299565     -1.31847799076814      0.51373055337327
  N   -1.35100306172662     -0.55791108643008     -0.36545482315935
  H   -1.03772997651549     -1.51665356375764     -0.30089333458200
  H   -2.25822144642902     -0.35823585528244      0.02487370531952
  N   -0.85101397475034      1.64939672635045      0.06071552555554
  H   -1.52865684134773      1.90658060696438     -0.64156499270429
  H   -0.13363301839876      2.34673099336586      0.18038439335190
