12
Coordinates from ORCA-job run
  C   0.93145612997248      0.10960567693440      0.19414302202277
  C   -0.39891760594235      0.33868068124147     -0.03523014630152
  H   1.64539688108576      0.90905858191353      0.32250553718252
  N   1.53052824406257     -1.17670036196770      0.16132498187776
  O   2.76073836551642     -1.22033461419769      0.23157802400998
  O   0.81526204106321     -2.19106383525282      0.07673833530549
  N   -0.86308347684680      1.63047830148028     -0.22172545347516
  H   -1.72458690967698      1.82495454639681      0.26719640035732
  H   -0.17058512416871      2.34955950293879     -0.08383550553824
  N   -1.37542318338107     -0.61062945620704     -0.08613205292661
  H   -1.01987023268097     -1.55672816560279     -0.10295450800120
  H   -2.13091512900355     -0.40788085767722     -0.72160863451309
