12
Coordinates from ORCA-job run
  C   0.78190882555037      0.03689658942382      0.55219478262616
  C   -0.38792334162220      0.34054240389844     -0.09162878035690
  H   1.21372539393229      0.67787689412152      1.30577675519979
  N   1.47955664924102     -1.18840220672237      0.39024556071422
  O   2.43557538391705     -1.38860058704833      1.14277105420526
  O   1.12127145802422     -1.99423274179965     -0.48718278524366
  N   -1.12832833966443      1.44615624510820      0.29190583903034
  H   -0.69136950169519      2.02410503846869      0.99222132646979
  H   -1.48838229203886      1.98262315994657     -0.48356897725186
  N   -0.92745844942964     -0.34963071694015     -1.13568188641101
  H   -0.47272189395900     -1.23469553509963     -1.31366363816655
  H   -1.93485389225563     -0.35363854335711     -1.16538925081557
