12
Coordinates from ORCA-job run
  C   0.51540273615606     -0.74792323904648      0.30365017965780
  C   -0.51329041486273      0.06953045206759     -0.08196653437840
  H   0.35380351609634     -1.73731885211210      0.70380794492382
  N   1.87809995830132     -0.35129539210050      0.32107189136081
  O   2.21123610858681      0.74405830850581     -0.16557387030417
  O   2.68124317629474     -1.14078638214177      0.82320835165829
  N   -1.82615229315612     -0.30733966043292      0.14598778449453
  H   -2.44294327038977     -0.12380046147584     -0.63158786222228
  H   -1.94066055363256     -1.23577315743897      0.52044631692588
  N   -0.38547065624177      1.27048506133112     -0.71365381136440
  H   0.56492869182130      1.61381932327692     -0.74076149816631
  H   -1.09619699897364      1.94734399956714     -0.48462889258558
