12
Coordinates from ORCA-job run
  C   0.55296857551430     -0.51668182591931      0.58695887128509
  C   -0.51463072544804      0.10103335081977     -0.00785518553113
  H   0.44222063799383     -1.20116762243969      1.41425532090570
  N   1.88805020364886     -0.41966632043571      0.11444901382420
  O   2.16572527152276      0.37736353107490     -0.79944367947741
  O   2.72489123550666     -1.14418295467385      0.65773675635028
  N   -1.80740054436127     -0.22706836809162      0.36593610125180
  H   -1.87113610019185     -0.86024532774634      1.14736817216295
  H   -2.41431690725390      0.57319409702482      0.46719527812624
  N   -0.44633434788272      1.06730267791076     -0.96679472507417
  H   -1.20102636567546      1.05448337179281     -1.63470589331405
  H   0.48198906662684      1.19463539068347     -1.34610003050950
