12
Coordinates from ORCA-job run
  C   0.94638396023214      0.08308865184903      0.12213152191791
  C   -0.38517547475530      0.35237145205394     -0.04920128870817
  H   1.67388386505767      0.85463274869052      0.32393740384414
  N   1.48842142706503     -1.22739166082884      0.17879318213173
  O   0.76981384709882     -2.20694622653321     -0.08916560114647
  O   2.67774719964871     -1.32544929085729      0.48884829398451
  N   -1.33929453993451     -0.54507331754042     -0.42616320585993
  H   -1.01825708382053     -1.50357715658550     -0.41678365782595
  H   -2.25415124989982     -0.37908946989732     -0.03729691885244
  N   -0.86785547957105      1.63595751301051      0.14268581757770
  H   -0.16030952023664      2.33083145315259      0.32126631592631
  H   -1.53120695088453      1.92964530348599     -0.55905186298933
