12
Coordinates from ORCA-job run
  C   0.81304395240064      0.08790995506742      0.47898354289756
  C   -0.40438103631961      0.33550058244987     -0.11146480925379
  H   1.40135879729143      0.87247731061829      0.93017456639436
  N   1.47074444842371     -1.16018398676992      0.43978196893851
  O   0.86560018363300     -2.16765318240693      0.02233811278743
  O   2.64159042476751     -1.19191974315651      0.82812008069160
  N   -0.84278824694837      1.63897667657241     -0.25852976964633
  H   -0.22669783463572      2.31969161852434      0.15795718716706
  H   -1.80308405970459      1.78213881306321      0.01995794933796
  N   -1.24290022695060     -0.61712350824183     -0.58503149723061
  H   -0.84178668894181     -1.54461948080128     -0.56737060627150
  H   -1.83069971301559     -0.35519505491908     -1.35691672581227
