12
Coordinates from ORCA-job run
  C   0.89684717659817      0.11607837028379      0.37023035413930
  C   -0.42635933184468      0.30527933866419      0.04497253115676
  H   1.50435809395170      0.90090886794167      0.79383922242329
  N   1.59532106515567     -1.09297578011792      0.16524931620602
  O   2.79504298449009     -1.10419787832191      0.45381140661558
  O   0.99925803475631     -2.08769589649151     -0.29443771388463
  N   -0.99930527541855      1.53729987899942      0.28071169495763
  H   -0.35985564705465      2.31412103925368      0.29495127041888
  H   -1.85821289213721      1.73522678826654     -0.20579413821712
  N   -1.26595257821951     -0.67379962213309     -0.37554665764712
  H   -0.80362154349441     -1.53886266001652     -0.62059931574273
  H   -2.07752008678293     -0.40938244632834     -0.90738797042587
