12
Coordinates from ORCA-job run
  C   0.93437509902856      0.12278854207500      0.24107867765089
  C   -0.39093546513953      0.33479044556304     -0.06416094539570
  H   1.62853799794321      0.93119335005079      0.40973247160962
  N   1.53624391406643     -1.15537641132495      0.24667717481629
  O   2.76085383272387     -1.19921504890376      0.39238324222110
  O   0.82734027132399     -2.17876735725861      0.16743486047814
  N   -0.84657398725296      1.61806932346093     -0.24278224014773
  H   -0.22835079396916      2.36633232729053      0.01876306656146
  H   -1.81080453746676      1.79757902361564     -0.01719640136437
  N   -1.32541965592848     -0.63696493484947     -0.19660753228480
  H   -0.95750143401337     -1.57729596028837     -0.19247444435476
  H   -2.12776524131581     -0.42113329943077     -0.76184792979014
