12
Coordinates from ORCA-job run
  C   0.46228986394901     -0.77708341909027      0.34132523382797
  C   -0.50579855562926      0.11619397272220     -0.04364292987907
  H   0.23449346404785     -1.65197838991088      0.93095554077876
  N   1.85215543714352     -0.55971053143768      0.15808562699696
  O   2.61818308222826     -1.39322330440406      0.64711711374100
  O   2.24501599698955      0.43666625791016     -0.47590988766823
  N   -1.84414168871054     -0.21903946254128      0.08899200348346
  H   -2.42507320006482      0.56080287574042      0.35934051521878
  H   -2.01316526634157     -1.03136483932048      0.66095445824729
  N   -0.28597656196319      1.34320799711044     -0.58789515978322
  H   0.66903433443738      1.50480497798763     -0.87168581026533
  H   -1.00801690608618      1.67172386523380     -1.20763670469837
