12
Coordinates from ORCA-job run
  C   0.93334957105299      0.09643256639732      0.19290362561134
  C   -0.38108210676125      0.34637238661652     -0.09846040581023
  H   1.64144295787881      0.88261433164985      0.40676990703852
  N   1.47264760595555     -1.20549871914067      0.36276046852728
  O   0.78016197529445     -2.20305340970000      0.09276740508010
  O   2.63408713275970     -1.27830968741036      0.77030024343542
  N   -1.29998682604624     -0.57690558924815     -0.49920597356868
  H   -2.24348167857805     -0.39528077776708     -0.19500239049219
  H   -0.97925358317730     -1.53153571589050     -0.41220002783917
  N   -0.88093407036178      1.63536919732358     -0.01610552482454
  H   -0.19068234995876      2.34324873369586      0.17858330418611
  H   -1.48626862805813      1.88554668347365     -0.78411063134397
