12
Coordinates from ORCA-job run
  C   0.84810990498865      0.08689406748236      0.43680038355717
  C   -0.38740567995943      0.33989094592337     -0.09668777146527
  H   1.47850129429521      0.86528149304620      0.83921869764310
  N   1.47642638285260     -1.18560344859796      0.40973271023493
  O   0.84034192602206     -2.18257542862407      0.02374374499873
  O   2.64803195668502     -1.23633845056253      0.79065395752248
  N   -0.83039720591055      1.64394019099803     -0.24286456081471
  H   -1.79441231404978      1.77731121309567      0.02497613669595
  H   -0.21979195024713      2.34281726850366      0.14978673280601
  N   -1.28762454369456     -0.59757733192250     -0.50681634242155
  H   -0.90883362756906     -1.53403399051705     -0.54319371644349
  H   -1.86294614341303     -0.32000652882518     -1.28634997231335
