12
Coordinates from ORCA-job run
  C   0.91173021975373      0.13772516452940      0.25877372631078
  C   -0.41135019838767      0.32280233699441     -0.04150371352906
  H   1.53094247670495      0.92207180169357      0.66691463084567
  N   1.57561045934559     -1.11384125786392      0.17347810164312
  O   0.99455420065008     -2.09043558193245     -0.33269401126725
  O   2.72789564616623     -1.16372812600473      0.60953006461666
  N   -1.04126199092375      1.51229246510328      0.28573520494830
  H   -0.43107556324868      2.22329463224594      0.65683441020619
  H   -1.64485649914622      1.86333285452130     -0.44331190273798
  N   -1.21978372974819     -0.57348663570323     -0.67444768126140
  H   -0.80774289109601     -1.49143729845605     -0.77168182692986
  H   -2.18566213007004     -0.54859035512755     -0.38762700284517
