12
Coordinates from ORCA-job run
  C   0.89012832707417      0.10657459594454      0.33795410681530
  C   -0.37612986438486      0.34250888921726     -0.12679392687654
  H   1.52398159067993      0.89128773264036      0.72223354934772
  N   1.45149958847019     -1.18905883391672      0.48184704463968
  O   0.84999976389076     -2.17878075873412      0.02774956697677
  O   2.54033301557168     -1.26357616858380      1.05558100714178
  N   -1.18594234803804     -0.56883426914872     -0.73598867271562
  H   -2.17084611651176     -0.44237705207654     -0.56370924284771
  H   -0.84135476686134     -1.51747684036472     -0.67999092723904
  N   -0.93638776106351      1.60407637426963     -0.01533082661119
  H   -0.31272562681605      2.31249453851100      0.33769780198030
  H   -1.43255580201115      1.90216179224183     -0.84224948061146
