12
Coordinates from ORCA-job run
  C   0.49813359137431     -0.75578826786452      0.31458362100252
  C   -0.51351271099604      0.08881135636849     -0.05733721810657
  H   0.32544079825288     -1.78649958708946      0.58491103711563
  N   1.87467653763859     -0.41418293339966      0.25765752292857
  O   2.21235538619157      0.75788282036357      0.01309038344920
  O   2.68277025954398     -1.32069298062425      0.47128644493230
  N   -0.39095796444564      1.42546764865068     -0.29465787488108
  H   -1.01123585109008      1.78865736385899     -1.00110048196779
  H   0.56803951632760      1.74220465690327     -0.33744457723147
  N   -1.80447821963707     -0.38995345199145     -0.20249563910193
  H   -1.93077496648559     -1.35320833068129      0.06483296154727
  H   -2.51045637667451      0.21730170550563      0.18667382031335
