12
Coordinates from ORCA-job run
  C   0.93771328459230      0.13003242522153      0.14646742477122
  C   -0.41172429887062      0.32315074129533      0.02440516429550
  H   1.62733123143568      0.94036351742595      0.32812968325154
  N   1.58117971133679     -1.11896011591340     -0.06346626232061
  O   0.90041133710603     -2.14912300311193     -0.20998670140431
  O   2.81406635240873     -1.11508075374104     -0.06850133285233
  N   -0.93746510633309      1.60553749681331      0.01323356333039
  H   -1.76670804571325      1.70782821251044      0.57978571193134
  H   -0.26382967051368      2.33621109151986      0.18087664328426
  N   -1.35434005615431     -0.65560609704993     -0.07640310930442
  H   -2.15442656609101     -0.42122948807806     -0.64263335574831
  H   -0.97220817320356     -1.58112402689207     -0.21190742923427
