12
Coordinates from ORCA-job run
  C   0.90176107810373      0.08473472378506      0.31179952311523
  C   -0.37960095843726      0.35000818376329     -0.09180441707836
  H   1.55392797430334      0.84481032152330      0.71454884943981
  N   1.46374305834280     -1.21780983616155      0.35726981957879
  O   0.84023334123552     -2.17907241242442     -0.12727804708332
  O   2.57485609579197     -1.32689432196852      0.88061836234919
  N   -1.21547659273674     -0.52297366830644     -0.72158528299712
  H   -0.87385192238447     -1.47428860287556     -0.73230271690908
  H   -2.19283596098109     -0.40352566817853     -0.50656566754377
  N   -0.92977797415099      1.60456041408335      0.11273692743513
  H   -1.45398102546797      1.95034626464529     -0.67761012100093
  H   -0.28899711361884      2.29010460211474      0.48017277069444
