12
Coordinates from ORCA-job run
  C   0.49233422863493     -0.51520740146804      0.69191333410371
  C   -0.52001393165722      0.07810048724976      0.00350756157599
  H   0.34766274146878     -1.08863707378898      1.59503695483774
  N   1.86918161224069     -0.31062217048464      0.34335775211592
  O   2.68145094792641     -0.32774846022186      1.27071078917467
  O   2.17367720737715     -0.12146455665037     -0.84221649204261
  N   -0.37785109912830      1.05950149833780     -0.97512886211574
  H   -0.78115908700371      0.77540330503090     -1.85821385663382
  H   0.58535722038522      1.33361134025635     -1.10380889743538
  N   -1.82821129283982     -0.19994387853318      0.29155550660063
  H   -2.53922552442018      0.41619901461190     -0.05720348900576
  H   -2.10220302298394     -1.09919210433964      0.64048969882465
