12
Coordinates from ORCA-job run
  C   0.87780180177037      0.11586102585975      0.36541407797630
  C   -0.37955342949077      0.33789036037148     -0.12942705792123
  H   1.48301000185291      0.90274456554392      0.78940738882056
  N   1.46109561189978     -1.17163063601239      0.49531869589082
  O   0.89391420690843     -2.16149478122274     -0.00065763424749
  O   2.53319750691153     -1.23881382722054      1.10055925862028
  N   -1.15229546669333     -0.57371772022301     -0.78456603235679
  H   -0.78950944809083     -1.51627068126474     -0.74238088414448
  H   -2.14420046145825     -0.47177564795501     -0.63823382408651
  N   -0.96869434323730      1.58482793714087     -0.00340699791716
  H   -0.37070267919753      2.29618846352424      0.38618712552017
  H   -1.44606330117500      1.89419094145817     -0.83721411615448
