12
Coordinates from ORCA-job run
  C   0.51729429210506     -0.57321911746222      0.56663367221709
  C   -0.51622061399940      0.07216061441061     -0.05818385310659
  H   0.36169458422342     -1.38807283707160      1.25729460197429
  N   1.88741808411855     -0.32607580049267      0.29038804808446
  O   2.70671759775105     -1.08221656381782      0.81706122336323
  O   2.20983566801214      0.62467049159672     -0.44422895535887
  N   -0.40818417042734      1.18381396960194     -0.83931321347113
  H   0.54590815614014      1.42423034169605     -1.07113764751239
  H   -1.07620415694614      1.23923251089701     -1.59192408880444
  N   -1.81540503619038     -0.38375682337043      0.09084504483815
  H   -2.48992848080633      0.35302697275589      0.23571328795103
  H   -1.92392592398076     -1.14179375874347      0.74585187982519
