16

C	-0.310675	-0.040921	-1.488342
C	0.0	0.0	0.0
Cl	0.151935	1.516651	-2.213444
H	1.098231	0.0	0.0
C	0.442628	-1.166442	-2.152192
H	1.491463	-1.05416	-1.846068
H	0.062225	-2.126633	-1.794563
H	0.335353	-1.113963	-3.234589
N	-1.818351	-0.184708	-1.77445
O	-2.600816	0.066418	-0.862626
O	-2.130243	-0.536427	-2.909729
C	-0.422398	-1.228016	0.646981
N	-0.685361	-2.258056	1.150734
C	-0.478152	1.169587	0.71059
N	-0.769866	2.121765	1.336341
H	2.491387	0.0	0.0
