16

C	-0.309926	0.003482	-1.488953
C	0.0	0.0	0.0
Cl	0.163766	1.577905	-2.168839
H	1.097974	0.0	0.0
C	0.438759	-1.107809	-2.182526
H	1.486231	-1.010808	-1.870698
H	0.333326	-1.022437	-3.262112
H	0.052806	-2.076058	-1.853791
N	-1.815242	-0.126321	-1.782882
O	-2.126185	-0.368118	-2.946205
O	-2.597386	0.01881	-0.848688
C	-0.416934	-1.248587	0.610022
N	-0.686687	-2.292736	1.080261
C	-0.485265	1.147043	0.74106
N	-0.797179	2.093218	1.365842
H	2.494479	0.0	0.0
