16

C	-0.275669	-0.000449	-1.497622
C	0.0	0.0	0.0
Cl	-2.017014	-0.203628	-1.906678
H	1.091473	0.0	0.0
C	0.289542	1.242387	-2.133603
H	-0.243991	2.116304	-1.760675
H	0.200251	1.189643	-3.216057
H	1.344264	1.296361	-1.837751
N	0.409167	-1.231645	-2.1128
O	0.827865	-1.121257	-3.259756
O	0.441703	-2.249097	-1.43468
C	-0.544077	-1.104058	0.76789
N	-0.972268	-1.947103	1.467254
C	-0.431037	1.251939	0.593242
N	-0.717475	2.280357	1.088539
H	2.483408	0.0	0.0
