16

C	-0.28557	-0.1217	-1.490208
C	0.0	0.0	0.0
Cl	-2.034581	-0.326039	-1.868527
H	1.092732	0.0	0.0
C	0.296864	1.053267	-2.231887
H	-0.216296	1.96569	-1.929051
H	0.195546	0.912215	-3.305341
H	1.3552	1.111599	-1.948343
N	0.371797	-1.410426	-2.009156
O	0.451289	-2.352227	-1.232989
O	0.724093	-1.418079	-3.183582
C	-0.547351	-1.033347	0.85907
N	-0.97803	-1.812415	1.627736
C	-0.426128	1.299366	0.487022
N	-0.711131	2.367762	0.889807
H	2.485249	0.0	0.0
