16

C	-0.451707	0.129087	-1.465708
C	0.0	0.0	0.0
Cl	0.115932	-1.284725	-2.362844
H	1.105621	0.0	0.0
C	-1.945676	0.287894	-1.655638
H	-2.296459	1.160865	-1.107416
H	-2.439881	-0.608084	-1.276408
H	-2.184942	0.402249	-2.71663
N	0.242641	1.381358	-2.030252
O	-0.28139	2.440293	-1.686607
O	1.236933	1.264135	-2.728063
C	-0.466395	-1.245994	0.568287
N	-0.795452	-2.262135	1.062966
C	-0.458032	1.103826	0.820509
N	-0.769627	1.997954	1.520258
H	2.440182	0.0	0.0
