16

C	-0.314198	-0.038074	-1.485471
C	0.0	0.0	0.0
Cl	-2.082508	-0.111754	-1.837367
H	1.107675	0.0	0.0
C	0.330379	1.130227	-2.187844
H	1.39407	1.112513	-1.915871
H	-0.118026	2.060479	-1.839116
H	0.202004	1.03902	-3.264421
N	0.257253	-1.329133	-2.08813
O	0.35118	-1.36113	-3.311119
O	0.55906	-2.23508	-1.323131
C	-0.552054	-1.074924	0.801807
N	-0.987065	-1.902122	1.516428
C	-0.411384	1.275446	0.557345
N	-0.687302	2.322893	1.017208
H	2.471541	0.0	0.0
