18

C	0.0	0.0	0.0
C	-0.335232	0.056267	-1.522281
Cl	1.800481	0.0	0.0
H	-1.410468	-0.151993	-1.543252
N	-0.400793	1.209081	0.705816
H	-0.74692	0.861125	1.600787
H	0.433856	1.752416	0.895272
N	-0.745337	-1.13037	0.626201
O	-0.727714	-2.211344	-0.04755
O	-0.740226	-1.14465	1.898185
N	0.433059	-0.923449	-2.303436
H	0.271135	-1.811506	-1.83281
H	-0.026287	-0.983913	-3.208041
C	-0.106058	1.441541	-2.098961
H	-0.404985	1.451777	-3.153394
H	-0.696901	2.179518	-1.55798
H	0.952108	1.707639	-2.052427
H	-2.132149	0.0	0.0
