21

C	0.0	0.0	0.0
C	-0.352369	0.051732	-1.519013
Br	1.990344	0.0	0.0
H	0.405747	0.697355	-1.978531
C	-0.446617	1.261203	0.720794
H	-1.542792	1.257181	0.75575
H	-0.057756	1.274864	1.742879
H	-0.099641	2.16046	0.205033
C	-0.538354	-1.219245	0.718399
H	-0.161288	-2.152024	0.29779
H	-0.270282	-1.183583	1.778167
H	-1.634879	-1.186711	0.633432
C	-1.72114	0.671908	-1.803907
H	-1.704364	1.753275	-1.639636
H	-1.971809	0.506752	-2.85905
H	-2.542744	0.27088	-1.185475
C	-0.250847	-1.323067	-2.178829
H	0.68509	-1.83289	-1.934481
H	-0.298297	-1.209106	-3.266222
H	-1.091633	-1.952593	-1.877373
H	-4.008401	0.0	0.0
