15

C	-0.531996	-0.003557	-1.419037
C	0.0	0.0	0.0
F	-0.114699	1.144868	-2.038667
H	1.094286	0.0	0.0
N	0.051024	-1.134877	-2.282805
O	1.20941	-1.446871	-2.065297
O	-0.671595	-1.537543	-3.188915
C	-1.99621	-0.079644	-1.501144
N	-3.171054	-0.058974	-1.530362
N	-0.408455	-1.180284	0.696678
O	-0.770898	-2.155251	-0.001186
O	-0.211791	-1.211341	1.922822
C	-0.40296	1.200621	0.692153
N	-0.732805	2.200472	1.216684
H	2.295314	0.0	0.0
