15

C	-0.517287	-0.007796	-1.425471
C	0.0	0.0	0.0
F	-0.098232	1.142343	-2.040643
H	1.094289	0.0	0.0
N	0.079918	-1.137677	-2.283581
O	1.242748	-1.432416	-2.066084
O	-0.638617	-1.557366	-3.185138
C	-1.979894	-0.091843	-1.524789
N	-3.154488	-0.082466	-1.568338
N	-0.404755	-1.18592	0.690284
O	-0.220824	-1.218425	1.918322
O	-0.748602	-2.162912	-0.013792
C	-0.421743	1.193883	0.691207
N	-0.77115	2.18229	1.225137
H	2.29593	0.0	0.0
