15

C	-0.4245	0.008859	-1.458638
C	0.0	0.0	0.0
F	0.360427	-0.791325	-2.204436
H	1.096008	0.0	0.0
N	-1.899258	-0.423237	-1.686949
O	-2.66903	-0.199584	-0.771949
O	-2.049113	-1.318283	-2.566318
C	-0.415244	1.363431	-2.025173
N	-0.389928	2.444932	-2.49107
N	-0.419297	-1.266617	0.700382
O	-0.302882	-1.25638	1.912548
O	-0.664344	-2.243758	-0.024584
C	-0.495344	1.126562	0.747219
N	-0.883612	2.084936	1.331837
H	2.46278	0.0	0.0
