15

C	-0.517333	-0.005201	-1.425656
C	0.0	0.0	0.0
F	-0.092644	1.143145	-2.039422
H	1.094135	0.0	0.0
N	0.073727	-1.136162	-2.286925
O	-0.643338	-1.542203	-3.195761
O	1.232979	-1.440705	-2.066553
C	-1.979699	-0.081037	-1.525718
N	-3.153893	-0.065108	-1.573131
N	-0.407195	-1.185165	0.689923
O	-0.759118	-2.159267	-0.013431
O	-0.219665	-1.219252	1.917035
C	-0.422145	1.194493	0.690762
N	-0.772869	2.178955	1.230452
H	2.300752	0.0	0.0
