15

C	-0.516579	-0.008037	-1.425475
C	0.0	0.0	0.0
F	-0.09737	1.142041	-2.040761
H	1.094212	0.0	0.0
N	0.0817	-1.137849	-2.282743
O	1.237556	-1.448563	-2.050795
O	-0.62841	-1.54066	-3.198776
C	-1.979005	-0.092593	-1.526672
N	-3.153538	-0.084138	-1.571699
N	-0.405929	-1.186015	0.690269
O	-0.217918	-1.22	1.917561
O	-0.756675	-2.160958	-0.013111
C	-0.422274	1.193593	0.691365
N	-0.771832	2.181851	1.225459
H	2.296776	0.0	0.0
