15

C	-0.3928	0.016483	-1.456218
C	0.0	0.0	0.0
F	0.379165	-0.792952	-2.205871
H	1.096135	0.0	0.0
N	-1.86443	-0.445548	-1.673311
O	-2.677956	0.033617	-0.896867
O	-2.079957	-1.189399	-2.6147
C	-0.334739	1.378169	-2.010687
N	-0.292455	2.444285	-2.50367
N	-0.373224	-1.231831	0.654163
O	-0.616386	-2.210202	-0.071965
O	-0.273941	-1.262611	1.886324
C	-0.42745	1.153361	0.748096
N	-0.6877	2.126875	1.355635
H	2.322877	0.0	0.0
