14

C	0.0	0.0	0.0
C	-0.438407	0.011616	-1.452126
F	1.389484	0.0	0.0
H	-0.139008	1.000776	-1.833024
H	-1.527254	-0.060128	-1.400855
N	-0.546267	1.123529	0.676521
H	-0.336534	1.028484	1.666955
H	-1.580512	0.910728	0.538473
C	-0.355665	-1.301633	0.636144
N	-0.56606	-2.312867	1.193098
N	0.161411	-1.113041	-2.167497
H	1.128523	-0.905796	-2.381911
H	-0.331185	-1.254779	-3.039154
F	-2.774407	0.0	0.0
