14

C	0.0	0.0	0.0
C	-0.44327	-0.31952	-1.412762
F	1.416525	0.0	0.0
H	-0.194441	0.574934	-2.003932
H	-1.530978	-0.417365	-1.330438
N	-0.555088	1.235376	0.416659
H	-1.59125	0.999668	0.302027
H	-0.381662	1.343446	1.411798
C	-0.304216	-1.133591	0.925171
N	-0.424319	-1.969491	1.741546
N	0.19044	-1.551038	-1.879114
H	1.157645	-1.366198	-2.110409
H	-0.278625	-1.866418	-2.717863
F	-2.792382	0.0	0.0
