14

C	0.0	0.0	0.0
C	-0.413384	0.270722	-1.444963
F	1.420447	0.0	0.0
H	-0.037128	-0.538149	-2.089204
H	-1.50737	0.249051	-1.38372
N	-0.520246	0.916561	0.950027
H	-0.379767	1.831238	0.525253
H	-1.549404	0.699141	0.838652
C	-0.376209	-1.384129	0.376976
N	-0.548496	-2.51035	0.657472
N	0.077294	1.597894	-1.822775
H	1.040217	1.534223	-2.126525
H	-0.475863	1.953851	-2.590111
F	-2.764537	0.0	0.0
