14

C	0.0	0.0	0.0
C	-0.457276	-0.032978	-1.470254
F	1.408424	0.0	0.0
H	-0.983585	0.912125	-1.641077
H	0.462461	-0.042716	-2.063673
N	-0.517085	1.147674	0.660136
H	-1.547237	0.974205	0.539052
H	-0.304906	1.073473	1.650891
C	-0.317131	-1.271503	0.718822
N	-0.427222	-2.216555	1.406851
N	-1.261467	-1.214088	-1.764475
H	-1.529349	-1.166916	-2.742637
H	-2.103837	-1.028091	-1.193939
F	-2.771973	0.0	0.0
