16

C	0.0	0.0	0.0
C	-0.395621	-0.055015	-1.539026
Cl	1.770206	0.0	0.0
H	0.531853	-0.295583	-2.067562
H	-0.384942	0.864008	0.525604
N	-0.403482	-1.178816	0.82986
O	-0.675688	-0.960934	2.003901
O	-0.329954	-2.292324	0.315754
C	-0.830066	1.36324	-1.890148
H	-1.767182	1.515127	-1.354976
H	-0.089109	2.111022	-1.589565
H	-0.99497	1.431378	-2.967721
N	-1.408996	-0.977839	-1.998078
H	-2.188106	-0.775527	-1.338859
H	-1.08634	-1.91834	-1.803613
F	-2.570382	0.0	0.0
