16

C	0.0	0.0	0.0
C	-0.427911	-0.131176	-1.522347
Cl	1.765248	0.0	0.0
H	0.489694	-0.403526	-2.051869
H	-0.385742	0.883332	0.492749
N	-0.399439	-1.146591	0.879527
O	-0.26792	-2.279529	0.424505
O	-0.757631	-0.882013	2.019938
C	-0.910147	1.254093	-1.942459
H	-0.247832	2.066264	-1.611355
H	-1.882108	1.360936	-1.457925
H	-1.019877	1.290792	-3.02807
N	-1.439758	-1.09034	-1.889399
H	-1.112044	-2.013439	-1.639588
H	-2.221761	-0.839524	-1.239891
F	-2.691804	0.0	0.0
