16

C	0.0	0.0	0.0
C	-0.410314	-0.143159	-1.526271
Cl	1.769985	0.0	0.0
H	0.512329	-0.407092	-2.052429
H	-0.386146	0.890734	0.479134
N	-0.398773	-1.130764	0.897955
O	-0.305791	-2.272635	0.455119
O	-0.6929	-0.843585	2.05167
C	-0.866714	1.24687	-1.951938
H	-1.79434	1.424929	-1.405502
H	-0.122978	2.016041	-1.716023
H	-1.053897	1.249441	-3.027931
N	-1.418845	-1.10052	-1.907591
H	-1.092551	-2.022153	-1.647336
H	-2.200833	-0.853178	-1.264682
F	-2.627779	0.0	0.0
