16

C	0.0	0.0	0.0
C	-0.565675	-0.371749	-1.386438
Cl	1.760396	0.0	0.0
H	-1.367932	-1.072718	-1.162566
H	-0.371897	0.959168	0.335694
N	-0.400325	-0.990544	1.057886
O	-0.569616	-0.552888	2.189878
O	-0.431854	-2.17602	0.74157
C	0.412515	-0.997745	-2.365742
H	1.187905	-0.292891	-2.676346
H	-0.151061	-1.304156	-3.2545
H	0.883537	-1.890147	-1.945602
N	-1.137364	0.876696	-1.905005
H	-1.976781	0.905395	-1.291522
H	-1.468909	0.683091	-2.846962
F	-2.660926	0.0	0.0
