16

C	0.0	0.0	0.0
C	-0.413753	-0.248007	-1.512786
Cl	1.765679	0.0	0.0
H	0.511093	-0.542075	-2.020401
H	-0.387225	0.921133	0.416141
N	-0.40513	-1.065714	0.97075
O	-0.729277	-0.701098	2.093204
O	-0.291661	-2.236025	0.610166
C	-0.867853	1.11253	-2.02958
H	-1.006298	1.061895	-3.112183
H	-1.819112	1.3051	-1.52874
H	-0.147012	1.905839	-1.796735
N	-1.427016	-1.226153	-1.824053
H	-2.208489	-0.928423	-1.199827
H	-1.103113	-2.130031	-1.503459
F	-2.648271	0.0	0.0
