14

C	-0.546153	0.024343	-1.396914
C	0.0	0.0	0.0
F	-1.890155	0.109593	-1.436841
H	1.090445	0.0	0.0
H	-0.314882	0.92237	0.49464
N	-0.0397	1.206713	-2.206588
O	0.512544	2.114578	-1.598299
O	-0.320873	1.168403	-3.399943
N	-0.12797	-1.207068	-2.183034
O	1.05325	-1.241405	-2.489019
O	-0.996224	-2.036894	-2.409076
C	-0.532559	-1.152418	0.715239
N	-0.954696	-2.079644	1.298465
Cl	3.249597	0.0	0.0
