14

C	-0.560116	-0.04871	-1.389579
C	0.0	0.0	0.0
F	-1.907014	-0.017693	-1.411548
H	1.089337	0.0	0.0
H	-0.31943	0.961219	0.418039
N	-0.060134	1.155511	-2.173973
O	0.992714	1.018827	-2.777031
O	-0.752261	2.160677	-2.07922
N	-0.158411	-1.268138	-2.196683
O	0.522988	-2.118595	-1.643218
O	-0.605806	-1.291497	-3.338227
C	-0.550244	-1.068691	0.822185
N	-1.028828	-1.896285	1.503391
Cl	3.223781	0.0	0.0
