14

C	-0.441429	0.035291	-1.430498
C	0.0	0.0	0.0
F	-0.099424	-1.044168	-2.119905
H	1.094654	0.0	0.0
H	-0.339391	0.904653	0.502591
N	-1.959642	0.210491	-1.597805
O	-2.419466	-0.145729	-2.676718
O	-2.570461	0.716472	-0.664519
N	0.121306	1.268088	-2.139128
O	-0.106078	2.330594	-1.572356
O	0.696304	1.08825	-3.199117
C	-0.538336	-1.181051	0.65713
N	-0.984458	-2.13078	1.183324
Cl	3.214848	0.0	0.0
