14

C	-0.579365	-0.028963	-1.382503
C	0.0	0.0	0.0
F	-1.924945	-0.128472	-1.378356
H	1.09046	0.0	0.0
H	-0.309498	-0.921341	0.500411
N	-0.204141	1.210176	-2.175929
O	0.955105	1.250898	-2.556644
O	-1.082738	2.049181	-2.323762
N	-0.099734	-1.217223	-2.199724
O	0.354703	-2.170313	-1.582491
O	-0.314893	-1.143461	-3.404595
C	-0.527844	1.148351	0.726938
N	-0.961753	2.06299	1.321085
Cl	3.228751	0.0	0.0
