14

C	-0.465654	-0.043982	-1.424891
C	0.0	0.0	0.0
F	-0.04107	0.981015	-2.150164
H	1.092566	0.0	0.0
H	-0.339681	-0.895699	0.51925
N	-0.054878	-1.33256	-2.132809
O	-0.110242	-1.28188	-3.355732
O	0.237545	-2.293292	-1.437424
N	-1.997308	-0.073601	-1.51415
O	-2.523759	-1.052901	-0.996192
O	-2.550293	0.868267	-2.061722
C	-0.532012	1.19259	0.646018
N	-1.003439	2.133225	1.165428
Cl	3.206498	0.0	0.0
