14

C	-0.440017	0.018069	-1.431224
C	0.0	0.0	0.0
F	-0.099298	-1.070432	-2.107093
H	1.094598	0.0	0.0
H	-0.339621	0.9106	0.491508
N	-1.957581	0.193917	-1.603033
O	-2.567677	0.716361	-0.678222
O	-2.417369	-0.175745	-2.677583
N	0.126937	1.241527	-2.152518
O	-0.097897	2.310563	-1.597563
O	0.700958	1.048332	-3.210766
C	-0.537888	-1.173858	0.670563
N	-0.983607	-2.117775	1.207519
Cl	3.215443	0.0	0.0
