16

C	-0.298247	0.015515	-1.479382
C	0.0	0.0	0.0
Br	-2.185629	0.478183	-1.865761
H	1.096342	0.0	0.0
H	-0.326155	0.974724	0.378478
C	0.661537	0.960573	-2.175878
H	0.437301	1.984471	-1.870379
H	1.657086	0.693391	-1.787723
H	0.583728	0.881465	-3.260596
N	-0.063387	-1.360599	-2.096673
O	-0.478385	-1.560998	-3.235888
O	0.607704	-2.153922	-1.444709
N	-0.659413	-1.085777	0.722676
H	0.048839	-1.782718	0.915323
H	-0.990407	-0.736397	1.610945
F	2.708618	0.0	0.0
