16

C	-0.559697	0.02007	-1.416232
C	0.0	0.0	0.0
Br	0.198795	-1.451178	-2.440704
H	1.093761	0.0	0.0
H	-0.388176	0.898654	0.490994
C	-2.071829	-0.073498	-1.491652
H	-2.421637	-0.074774	-2.526807
H	-2.363552	-0.999108	-0.99726
H	-2.504164	0.776616	-0.959155
N	-0.158485	1.3445	-2.062098
O	0.511203	1.37856	-3.084727
O	-0.605033	2.334349	-1.478663
N	-0.483438	-1.21777	0.683674
H	0.340891	-1.799437	0.795649
H	-0.779217	-0.96674	1.619212
F	2.659135	0.0	0.0
