16

C	-0.56213	0.007558	-1.408433
C	0.0	0.0	0.0
Br	0.198531	-1.492363	-2.416321
H	1.093702	0.0	0.0
H	-0.385101	0.899895	0.4928
C	-2.073771	-0.053519	-1.497206
H	-2.412393	-0.125119	-2.530657
H	-2.403761	-0.914076	-0.917498
H	-2.484756	0.85752	-1.045453
N	-0.129917	1.265333	-2.153141
O	0.448766	2.132222	-1.509845
O	-0.449929	1.36299	-3.336557
N	-0.509043	-1.208966	0.692085
H	-0.594938	-0.972497	1.673416
H	0.258916	-1.872277	0.649496
F	2.67146	0.0	0.0
