16

C	-0.218614	-0.050148	-1.51191
C	0.0	0.0	0.0
Br	-0.014353	1.759206	-2.247765
H	1.093643	0.0	0.0
H	-0.459348	0.886571	0.435602
C	0.786631	-0.969083	-2.167683
H	1.754809	-0.692712	-1.722001
H	0.551309	-1.999851	-1.886842
H	0.777011	-0.894439	-3.253946
N	-1.651227	-0.429663	-1.875359
O	-2.547738	-0.002839	-1.149471
O	-1.835396	-1.148457	-2.857288
N	-0.422087	-1.209468	0.692817
H	0.283969	-1.922841	0.577941
H	-1.325525	-1.553866	0.395647
F	2.710043	0.0	0.0
