16

C	-0.299038	0.134795	-1.480433
C	0.0	0.0	0.0
Br	-0.112416	2.015125	-2.01831
H	1.099707	0.0	0.0
H	-0.439026	0.82011	0.571746
C	0.650347	-0.718385	-2.285346
H	0.57525	-0.539649	-3.356883
H	1.645942	-0.493312	-1.882933
H	0.415235	-1.762362	-2.067318
N	-1.755488	-0.194146	-1.775865
O	-2.590981	0.163134	-0.947754
O	-2.018199	-0.789885	-2.818139
N	-0.447343	-1.333581	0.413299
H	0.311233	-1.762637	0.928271
H	-1.265681	-1.279047	1.002981
F	2.701799	0.0	0.0
