16

C	-0.301071	-0.135826	-1.478783
C	0.0	0.0	0.0
Br	-0.156623	1.624312	-2.343891
H	1.098769	0.0	0.0
H	-0.441204	0.907664	0.417421
C	0.664465	-1.099962	-2.125704
H	0.581466	-1.114905	-3.210754
H	1.658198	-0.792111	-1.775894
H	0.449882	-2.094337	-1.725971
N	-1.751168	-0.541558	-1.710555
O	-2.592477	-0.092135	-0.933984
O	-2.003029	-1.284138	-2.657544
N	-0.433693	-1.242197	0.649452
H	0.318338	-1.539815	1.258081
H	-1.269772	-1.092855	1.19688
F	2.700922	0.0	0.0
