16

C	-0.215112	0.241384	-1.499812
C	0.0	0.0	0.0
Br	-0.030074	2.149755	-1.932021
H	1.094804	0.0	0.0
H	-0.352781	-1.025871	0.178386
C	0.817747	-0.540366	-2.277372
H	0.80353	-0.309199	-3.341751
H	0.61509	-1.607636	-2.143405
H	1.78034	-0.31588	-1.789948
N	-1.634331	-0.086322	-1.950071
O	-2.552185	0.23329	-1.192643
O	-1.793714	-0.660201	-3.027128
N	-0.561112	0.905071	0.975419
H	0.039776	1.715423	1.037643
H	-1.487753	1.202128	0.700193
F	2.723924	0.0	0.0
