16

C	-0.277953	0.004023	-1.50369
C	0.0	0.0	0.0
Br	0.115852	1.754407	-2.252309
H	1.091907	0.0	0.0
H	-0.34943	-0.976428	0.359426
C	0.64094	-1.013977	-2.150366
H	0.367396	-2.011864	-1.802634
H	1.642887	-0.770259	-1.772536
H	0.589268	-0.97934	-3.240797
N	-1.743614	-0.31303	-1.759435
O	-2.547711	0.575544	-2.014003
O	-2.048288	-1.49708	-1.590777
N	-0.615405	1.105204	0.718295
H	-1.186714	0.764241	1.47749
H	0.126637	1.668159	1.115066
F	2.703034	0.0	0.0
