16

C	-0.666256	0.056486	-1.359948
C	0.0	0.0	0.0
Br	0.003305	-1.405758	-2.479786
H	1.100017	0.0	0.0
H	-0.346598	-0.927298	0.476758
C	-2.175921	-0.018288	-1.312521
H	-2.620715	0.049186	-2.304674
H	-2.457629	-0.968301	-0.853569
H	-2.537084	0.810143	-0.701656
N	-0.245767	1.348059	-2.055084
O	-1.143776	2.085146	-2.468964
O	0.950946	1.573281	-2.14453
N	-0.420622	1.209169	0.734207
H	-0.997295	0.978037	1.532201
H	0.437269	1.624779	1.080248
F	2.643316	0.0	0.0
