12

C	0.0	0.0	0.0
C	-0.515514	0.065278	-1.439289
Br	1.956826	0.0	0.0
H	-0.259095	-0.856402	-1.970228
H	-0.28015	0.925045	0.505526
H	-1.620669	0.102204	-1.278012
N	-0.549496	-1.088264	0.742805
H	-1.574164	-0.867964	0.726733
H	-0.428363	-1.941703	0.202871
C	-0.065173	1.21829	-2.204019
N	0.287944	2.160777	-2.81088
H	-2.998913	0.0	0.0
