12

C	0.0	0.0	0.0
C	-0.650643	-0.050551	-1.354191
Br	2.020203	0.0	0.0
H	-1.774244	-0.011606	-1.021003
H	-0.253895	0.943725	0.480403
H	-0.397549	0.819258	-1.964754
N	-0.439734	-1.0705	0.792597
H	-0.173403	-0.994802	1.760965
H	-0.192667	-1.973204	0.413018
C	-0.355775	-1.274211	-2.071852
N	-0.13189	-2.28106	-2.637873
H	-3.126328	0.0	0.0
