12

C	0.0	0.0	0.0
C	-0.509042	-0.126613	-1.438517
Br	1.958532	0.0	0.0
H	-1.614329	-0.041234	-1.288895
H	-0.290641	0.990125	0.353991
H	-0.143765	0.683284	-2.077048
N	-0.53305	-0.966294	0.904872
H	-0.390283	-1.895326	0.516927
H	-1.557582	-0.76607	0.855592
C	-0.186453	-1.41004	-2.041657
N	0.063615	-2.453929	-2.520066
H	-2.992209	0.0	0.0
