14

C	-0.474241	0.008595	-1.455097
C	0.0	0.0	0.0
Cl	0.152697	-1.471081	-2.313434
H	1.093325	0.0	0.0
H	0.00721	0.849165	-1.956567
N	-1.896633	0.141396	-1.531101
H	-2.337178	-0.679021	-1.12749
H	-2.19641	0.219294	-2.494556
C	-0.549258	-1.180667	0.681015
N	-1.067601	-2.105951	1.185614
N	-0.41484	1.210362	0.703589
H	-1.259842	1.577127	0.282466
H	0.334485	1.887126	0.630787
Br	3.480216	0.0	0.0
