14

C	-0.517492	0.026904	-1.432536
C	0.0	0.0	0.0
Cl	0.207799	-1.358635	-2.365694
H	1.092565	0.0	0.0
H	-0.131963	0.933674	-1.895798
N	-1.950205	0.023782	-1.457902
H	-2.289691	-0.879548	-1.14221
H	-2.281944	0.166143	-2.402564
C	-0.5008	-1.212131	0.678879
N	-0.963049	-2.127712	1.254251
N	-0.431253	1.236735	0.63985
H	-1.424905	1.20965	0.821563
H	0.071676	1.350196	1.509284
Br	3.485843	0.0	0.0
