14

C	-0.466493	-0.023553	-1.447156
C	0.0	0.0	0.0
Cl	-2.368896	-0.196057	-1.416856
H	1.094831	0.0	0.0
H	-0.168607	-0.939931	-1.953369
N	-0.035065	1.120098	-2.106253
H	-0.388101	1.212912	-3.045461
H	-0.201316	1.940166	-1.537214
C	-0.441601	-1.197801	0.726467
N	-0.794604	-2.129025	1.349669
N	-0.415159	1.251259	0.627999
H	0.260135	1.489948	1.343888
H	-1.331998	1.160145	1.047066
Br	3.470457	0.0	0.0
