14

C	-0.246621	0.064058	-1.517715
C	0.0	0.0	0.0
Cl	-1.994601	0.323614	-1.906364
H	1.09914	0.0	0.0
H	-0.01881	-0.912598	-1.959546
N	0.522572	1.16679	-2.028015
H	0.51377	1.159953	-3.037856
H	1.485914	1.047671	-1.71198
C	-0.524892	-1.248951	0.549248
N	-0.958655	-2.262466	0.953505
N	-0.456911	1.139731	0.773259
H	-1.41835	1.35015	0.522645
H	0.110561	1.934129	0.501338
Br	3.456681	0.0	0.0
