14

C	-0.365675	0.04611	-1.50675
C	0.0	0.0	0.0
Cl	-0.124283	1.727997	-2.106322
H	1.094749	0.0	0.0
H	-1.428158	-0.168089	-1.658633
N	0.420977	-0.856319	-2.300846
H	1.398432	-0.768355	-2.023718
H	0.120863	-1.806625	-2.117845
C	-0.470597	-1.310519	0.472956
N	-0.934317	-2.338949	0.801701
N	-0.489761	1.044008	0.879618
H	0.151272	1.824153	0.814649
H	-1.404315	1.361882	0.581395
Br	3.47678	0.0	0.0
