14

C	-0.466671	0.018493	-1.447225
C	0.0	0.0	0.0
Cl	-2.368877	-0.150329	-1.420813
H	1.094853	0.0	0.0
H	-0.170513	-0.883865	-1.979209
N	-0.030253	1.17877	-2.073604
H	-0.378568	1.299149	-3.011844
H	-0.190288	1.984291	-1.482853
C	-0.442303	-1.218859	0.691354
N	-0.776952	-2.176133	1.284434
N	-0.414886	1.233558	0.662203
H	0.253679	1.447069	1.392454
H	-1.337422	1.133485	1.067689
Br	3.471123	0.0	0.0
