19

C	0.0	0.0	0.0
C	-0.475997	0.002354	-1.458992
Br	1.985702	0.0	0.0
H	-1.562514	0.108105	-1.306805
C	-0.405592	1.297671	0.692492
H	-0.052527	1.290101	1.729707
H	-1.501092	1.270646	0.660165
H	-0.012893	2.172024	0.174965
N	-0.550334	-1.165312	0.639596
H	-0.375671	-1.078371	1.637769
H	-1.575255	-0.968252	0.499029
C	-0.188126	-1.308677	-2.184365
H	0.890634	-1.449318	-2.318807
H	-0.579772	-2.158718	-1.625612
H	-0.657559	-1.285387	-3.174908
N	0.018115	1.183417	-2.174312
H	0.96631	1.000678	-2.489856
H	-0.555713	1.30722	-3.001062
F	-2.925586	0.0	0.0
