19

C	0.0	0.0	0.0
C	-0.229737	0.067248	-1.571552
Br	1.969079	0.0	0.0
H	0.568257	0.725174	-1.934349
C	-0.448685	1.286463	0.674296
H	-0.048697	2.172034	0.172154
H	-0.115852	1.301477	1.718161
H	-1.544165	1.252503	0.623783
N	-0.626331	-1.16931	0.536606
H	-0.456591	-1.196731	1.539032
H	-1.647344	-0.929141	0.393324
C	-1.532625	0.671846	-2.090721
H	-1.487322	0.623682	-3.18704
H	-2.403992	0.16981	-1.672111
H	-1.612117	1.726331	-1.812146
N	0.000982	-1.278566	-2.127178
H	-0.740685	-1.473261	-2.791794
H	-0.120397	-1.929544	-1.355741
F	-3.039823	0.0	0.0
