19

C	0.0	0.0	0.0
C	-0.122638	0.036698	-1.573972
Br	2.110491	0.0	0.0
H	0.636438	0.746062	-1.92851
C	-0.422704	1.295654	0.645156
H	-0.113132	1.309649	1.692101
H	0.00022	2.160178	0.128284
H	-1.519454	1.283138	0.577377
N	-0.609824	-1.095459	0.614493
H	-0.530279	-1.877224	-0.031576
H	-1.626768	-0.806414	0.603195
C	-1.465609	0.506553	-2.117883
H	-1.458823	0.365245	-3.208617
H	-1.588166	1.575723	-1.927619
H	-2.30406	0.013186	-1.619264
N	0.145676	-1.321322	-2.066958
H	-0.149146	-1.383207	-3.03363
H	1.1437	-1.494309	-2.027283
F	-3.029626	0.0	0.0
