19

C	0.0	0.0	0.0
C	-0.521668	-0.239066	-1.408399
Br	2.068448	0.0	0.0
H	-1.609376	-0.090405	-1.195704
C	-0.517516	1.301891	0.548498
H	-1.614587	1.116749	0.536662
H	-0.133756	1.483616	1.55769
H	-0.245116	2.125948	-0.108512
N	-0.368676	-1.076235	0.845537
H	0.208614	-1.892585	0.70796
H	-0.370464	-0.803378	1.818493
C	-0.314035	-1.665382	-1.901956
H	0.747594	-1.943496	-1.910361
H	-0.876167	-2.361709	-1.277374
H	-0.69491	-1.751724	-2.925482
N	-0.025389	0.793124	-2.317371
H	0.908699	0.541856	-2.628636
H	-0.628414	0.813491	-3.131706
F	-3.001924	0.0	0.0
