19

C	0.0	0.0	0.0
C	-0.466179	-0.000187	-1.476379
Br	1.984611	0.0	0.0
H	-1.557522	-0.016858	-1.338022
C	-0.427465	1.280185	0.709185
H	-0.115335	1.245052	1.757614
H	-0.005736	2.181903	0.259908
H	-1.523407	1.25097	0.636082
N	-0.543565	-1.175448	0.626758
H	-0.361621	-1.111012	1.62497
H	-1.570405	-0.985447	0.489312
C	-0.013228	-1.231658	-2.24591
H	-0.586322	-1.292127	-3.174878
H	-0.171739	-2.132861	-1.65381
H	1.047986	-1.163654	-2.506733
N	-0.126461	1.196641	-2.245906
H	-0.650419	1.98126	-1.876007
H	0.862006	1.402344	-2.118746
F	-2.915568	0.0	0.0
