12
Coordinates from ORCA-job run
  C   0.74694739246259      0.01857556328769      0.03246438397634
  C   -0.42375558033824     -0.57189415586964     -0.29558110426934
  H   -0.37207064747872     -1.57772477224027     -0.71235200655622
  C   0.75396295605735      1.34288940889255      0.59564182011124
  N   0.76936174524081      2.41403056069067      1.08108350424735
  N   2.02608505283535     -0.50346323341123     -0.21624880252824
  H   2.00568825582768     -1.48831753536647     -0.44035994125251
  H   2.68480021036935     -0.31425509936076      0.52578106975501
  C   -1.77720775098101      0.05200225569671     -0.16542497334992
  H   -2.25324637469087      0.15955895368064     -1.14489007137937
  H   -2.43593744132634     -0.57211760562289      0.44541688217635
  H   -1.72462781797794      1.04071565962300      0.29346923906932
