12
Coordinates from ORCA-job run
  C   0.65353009368677      0.44022105116038      0.07143863845386
  C   -0.68311436459749      0.46795989043698      0.27956510896191
  H   -1.10348941647216      1.35005459032626      0.74832390126463
  C   1.45657481890228      1.57397919883601      0.43666167350500
  N   2.13084498415543      2.48976725462561      0.73620614743864
  N   1.33716680301279     -0.58703895551281     -0.58493526549861
  H   2.31407647135760     -0.65225179678814     -0.34738424604343
  H   0.88066509261950     -1.48491768966434     -0.51335295700983
  C   -1.56898559098647     -0.67236780677649     -0.12559946529135
  H   -1.40170971748783     -1.55980461544721      0.49685196185027
  H   -1.39299275073363     -0.95415531379439     -1.17069032893242
  H   -2.62256642345680     -0.41044580740186     -0.02708516869868
