12
Coordinates from ORCA-job run
  C   0.74642192413244      0.01522371618439      0.05085933343425
  C   -0.44588459919633     -0.61906842910508      0.10644742713687
  H   -0.42908323179992     -1.69451175887869      0.28315794149713
  C   0.79746237960847      1.43386019694258     -0.18554140422038
  N   0.85114537257846      2.58832087579479     -0.40369932434254
  N   1.99731940345687     -0.56728694932699      0.30674647359492
  H   2.72988679517439     -0.22275279681109     -0.29728149099253
  H   1.96447716819131     -1.57690315466637      0.29732240130244
  C   -1.78501618621806      0.03744238353083     -0.01636495438416
  H   -2.36675015900610     -0.41580332528568     -0.82435058073570
  H   -2.36453933086221     -0.08406251413594      0.90402183046790
  H   -1.69543953605931      1.10554175575725     -0.22031765275817
