12
Coordinates from ORCA-job run
  C   0.72277002314922      0.04608397429011      0.19063263710488
  C   -0.52847748490208     -0.44142739599403      0.34521369936489
  H   -0.67133236387218     -1.21367737441563      1.10105138089384
  C   0.98268561703345      1.06282175391907     -0.79400647377534
  N   1.20919663855345      1.87478276301717     -1.61418659439638
  N   1.83213902652931     -0.27604953434006      0.98812090038080
  H   2.69311982730524     -0.34707880280590      0.46431733910303
  H   1.67941099686328     -1.10487939846034      1.54536499281416
  C   -1.73670876446011      0.01424686496193     -0.41081888465635
  H   -2.47965612716819      0.44955774364947      0.26464564831898
  H   -1.48600507579542      0.76405803962282     -1.16306088673871
  H   -2.21714231323597     -0.82743863344460     -0.91827375841381
