12
Coordinates from ORCA-job run
  C   0.73529748643139     -0.02001007318996      0.13511878360194
  C   -0.41905405054888     -0.57351859213472     -0.29859238108256
  H   -0.35889335774770     -1.57035565854256     -0.73511224779021
  C   0.73060592752074      1.29554404259720      0.71793137085764
  N   0.74239124755100      2.38021844233203      1.17238979163424
  N   1.98515056372394     -0.65734299060494      0.17137523896233
  H   2.75476751406842     -0.04294936386503     -0.05317169798562
  H   2.01099404235628     -1.49312432688365     -0.39555441307323
  C   -1.77433560466085      0.05246352529580     -0.19659323131011
  H   -2.43516954487583     -0.54751346874819      0.43641989106745
  H   -1.72552115527513      1.05751037261725      0.22586371859848
  H   -2.24623306854338      0.12007809112676     -1.18107482348035
