12
Coordinates from ORCA-job run
  C   0.65044759327804      0.45216193212104      0.05310788278185
  C   -0.55221817637826      0.37257603625585     -0.56095863700667
  H   -0.80205729132386      1.13420442765098     -1.29096702151147
  C   1.54539631919121      1.52960364125733     -0.26452639317689
  N   2.29637257535047      2.39738002232156     -0.52193716810087
  N   1.07999940817584     -0.39956928583903      1.07657505104557
  H   2.08316924112336     -0.47344816638487      1.15292240099122
  H   0.64248899950766     -1.30904234355974      1.05233487211455
  C   -1.53914491221719     -0.70931080355282     -0.23891440494562
  H   -2.47780101794745     -0.55627337593630     -0.77073225381427
  H   -1.76295826702609     -0.73631326011521      0.83311167368374
  H   -1.16369447173373     -1.70096882421879     -0.52001600206115
