12
Coordinates from ORCA-job run
  C   0.74010572388623     -0.00639751562025      0.10907609912937
  C   -0.41738238158833     -0.57955997392335     -0.28955053818735
  H   -0.35243457430937     -1.57105107758112     -0.73719847147371
  C   0.72828471549285      1.30449162434509      0.70255900881082
  N   0.73249843587481      2.38587274302673      1.16508743678080
  N   2.00326052228645     -0.61784269339096      0.09758802564287
  H   2.75133846224562      0.01361685882578     -0.15097773016859
  H   2.02592752943784     -1.45059897169035     -0.47402960287710
  C   -1.78033377584261      0.01803425673368     -0.13429623975677
  H   -2.40568061767626     -0.60146749221523      0.51594991654263
  H   -1.73712673468326      1.02022418990541      0.29549204382202
  H   -2.28845730512400      0.08467805158457     -1.10069994826503
