12
Coordinates from ORCA-job run
  C   0.74517474556089      0.00984012764944     -0.06155616081461
  C   -0.44034820076844     -0.63116150657562      0.04223708489910
  H   -0.41238549512942     -1.71820497580142      0.11541721490514
  C   0.78355716894421      1.44543532262576     -0.15410040316299
  N   0.83017531303013      2.61942052179881     -0.20483894277879
  N   2.00009704355221     -0.60470408460859     -0.19351263505904
  H   1.97889975167906     -1.58555752440253      0.04748506622114
  H   2.73480132618015     -0.12434574034253      0.30628256560126
  C   -1.78562399238182      0.02387148358831      0.02826701425744
  H   -2.35447209159552     -0.23753512397880      0.92518401236150
  H   -2.37225159658635     -0.30934002658458     -0.83345276376296
  H   -1.70662397248510      1.11128152663175     -0.01841205266720
