12
Coordinates from ORCA-job run
  C   0.74683017009509     -0.00304097347891     -0.03606591357049
  C   -0.45058674438664     -0.62184333771557      0.06551992333458
  H   -0.44072906255993     -1.70209458809344      0.20964389635159
  C   0.80920250980691      1.42269199790585     -0.22057898860031
  N   0.87308673965486      2.59064838575020     -0.34322168451333
  N   1.99689347148363     -0.63994106721198     -0.07951723382141
  H   2.71942226609609     -0.13644341137840      0.41497099191278
  H   1.95240556217343     -1.60234460917641      0.22444626574387
  C   -1.78498682898466      0.04730766995020     -0.03833622766257
  H   -1.68777476541891      1.12839460244591     -0.15097177439897
  H   -2.38810109424624     -0.14924782840157      0.85280640987074
  H   -2.34666222371360     -0.33208684059589     -0.89769566464648
