12
Coordinates from ORCA-job run
  C   0.70338837207567      0.36405108832892     -0.05517493958363
  C   -0.58265230868424      0.44859739503465     -0.46617081907869
  H   -0.87105878514546      1.30728000719817     -1.06170488918534
  C   1.63940289854690      1.38979630569513     -0.42120743319450
  N   2.41632845879249      2.22771564220448     -0.69977577101784
  N   1.24604432609956     -0.71958170445933      0.64381966154421
  H   0.56415696106269     -1.23145551522355      1.18402561831461
  H   2.05707948734280     -0.48576439182004      1.19622522083326
  C   -1.59164500230287     -0.61261145549249     -0.14429211049283
  H   -2.53878610887200     -0.42068675323449     -0.64782391168222
  H   -1.80027588109494     -0.66556199157344      0.93143583339784
  H   -1.24098241782059     -1.60177862665801     -0.45835645985488
