12
Coordinates from ORCA-job run
  C   0.74740794630412      0.02301726259670      0.01172686215449
  C   -0.42837684773040     -0.57622158976815     -0.28129196806571
  H   -0.38286516647889     -1.58246291807023     -0.69763805358571
  C   0.76200109875128      1.34913216442213      0.57013483994144
  N   0.78516550553742      2.42242273793020      1.05046789734141
  N   2.02229421124413     -0.49116380132346     -0.27258164301344
  H   2.70077601962136     -0.29576936155963      0.44980976772884
  H   2.00225413363039     -1.47658630836285     -0.49417128002219
  C   -1.78148418451007      0.03995213947555     -0.11397347144241
  H   -2.28690971608368      0.14247182579692     -1.07919862667447
  H   -1.72175893768944      1.03040854636749      0.34029560928305
  H   -2.41850406259623     -0.58620069750466      0.51742006635469
