12
Coordinates from ORCA-job run
  C   0.74372530337355     -0.03163918630011     -0.07527665312517
  C   -0.45314650708944     -0.57551713947402      0.23875028490694
  H   -0.45039293826937     -1.59423158053073      0.62630596646673
  C   0.81276624926561      1.31133077194939     -0.58759310663771
  N   0.88326784861464      2.41718197587376     -0.98172027688827
  N   1.97919742670434     -0.69762105175481     -0.04801611786633
  H   1.94108963585585     -1.56228940864761      0.47326511129219
  H   2.73896293641682     -0.11496409466156      0.27413710825278
  C   -1.78269719096741      0.08672443011852      0.05522876909632
  H   -1.67944046986332      1.10751432827849     -0.31678912386078
  H   -2.33423932910473      0.12414634493391      0.99906235917937
  H   -2.39809296493653     -0.47063538978524     -0.65735432081608
