12
Coordinates from ORCA-job run
  C   0.55380946671678      0.43102541948721      0.36899337969421
  C   -0.75330291200585      0.44037359407937      0.01998413390202
  H   -1.33471477794391      1.32572333490922      0.25145352321000
  C   1.12379851924733      1.56570953259351      1.03949076388528
  N   1.61092912670629      2.48973568091382      1.58037976175894
  N   1.40871708123543     -0.66602630985497      0.21337433499798
  H   2.38574132554915     -0.41899387738965      0.16491150276784
  H   1.14282563820846     -1.27624439829999     -0.54533606396194
  C   -1.40538666076645     -0.73641070179443     -0.64174071766037
  H   -1.26784038407703     -1.64761534094560     -0.04941962558434
  H   -2.47599106641519     -0.57690385961965     -0.76388618732023
  H   -0.98958535645502     -0.93037307407883     -1.63820480568940
