12
Coordinates from ORCA-job run
  C   0.58321889989975      0.41648980130434      0.34051906136720
  C   -0.75560186314843      0.40826231425152      0.14730442641675
  H   -1.32898711027265      1.24902977678637      0.52096493176642
  C   1.19974187229405      1.51307771223832      1.03312580457703
  N   1.72656866533708      2.40745825552387      1.58600540433603
  N   1.44396934936353     -0.63040097143864     -0.00696991773160
  H   1.10290822605983     -1.19531533764125     -0.77089236092805
  H   2.39903577354836     -0.34232820559216     -0.15616519061226
  C   -1.45325546615667     -0.72888438420642     -0.53679389200549
  H   -2.53572836483821     -0.61471469418374     -0.48326989562669
  H   -1.19565578297392     -1.68834427678193     -0.07516067485923
  H   -1.18521419911272     -0.79332999026027     -1.59866769670009
