12
Coordinates from ORCA-job run
  C   0.74810176720226      0.01220348536857      0.01159108623147
  C   -0.43677485523221     -0.57157064549630     -0.27542628723219
  H   -0.40690199985059     -1.58239664485689     -0.68201000384879
  C   0.78261222754686      1.34316551115953      0.55757807037132
  N   0.82089041376494      2.42051637483463      1.02779799544910
  N   2.01461260180693     -0.52448692579342     -0.26830257877714
  H   1.97834770121909     -1.51190007581740     -0.47919024613634
  H   2.69686001127679     -0.33352841563384      0.45173105580725
  C   -1.78062074153581      0.06642505089637     -0.11461668319284
  H   -2.42458702287376     -0.54165885047213      0.52740644799101
  H   -1.70639699434409      1.06246119187267      0.32505822071963
  H   -2.28614310898042      0.16076994393821     -1.08061707738246
