12
Coordinates from ORCA-job run
  C   0.66939524531251      0.42171901615893      0.00178781100141
  C   -0.57694914688232      0.38999117074291     -0.52273131935228
  H   -0.88847798772094      1.22040607663529     -1.14606664673519
  C   1.54056976162325      1.52407544165949     -0.29508330600908
  N   2.26173582614980      2.42617523416142     -0.51716182296717
  N   1.23664175920725     -0.60636749621226      0.76434041793835
  H   1.99772546072347     -0.30370940460958      1.35318165513724
  H   0.55654229621080     -1.13731483504595      1.28800765004186
  C   -1.51323241133940     -0.75513037287630     -0.27982140172805
  H   -1.01709688091491     -1.71579660250550     -0.45479596368983
  H   -1.89208547171558     -0.76267298508926      0.74992038593736
  H   -2.37776845065393     -0.70237524301918     -0.94157745957462
