12
Coordinates from ORCA-job run
  C   0.65703606817645      0.44456186537713     -0.03606593790311
  C   -0.61595550232729      0.37409648589962     -0.48824212113701
  H   -0.98392126791644      1.18793225971496     -1.10276606153702
  C   1.47686146403123      1.57160098715757     -0.38264808664741
  N   2.15793432910309      2.49387605667369     -0.64508921689222
  N   1.30092317400462     -0.56346012508708      0.68967676391772
  H   0.66637260219831     -1.14978115899441      1.21186183368200
  H   2.05865891909503     -0.23184629819886      1.26723494792357
  C   -1.50247444607460     -0.79740438428019     -0.18851620860058
  H   -1.73095004592827     -0.87337049950466      0.88175697628366
  H   -1.03122923966719     -1.73936506833014     -0.48970830923134
  H   -2.45225605469496     -0.71684012042764     -0.71649457985827
