12
Coordinates from ORCA-job run
  C   0.73868063882479     -0.02071038787883      0.11869395232794
  C   -0.42268843257017     -0.56326431565712     -0.31046996607350
  H   -0.36629048530623     -1.54173093542657     -0.78733284866862
  C   0.74104545744455      1.27283110680995      0.74922655783237
  N   0.75766227601240      2.33993028119487      1.24329156428928
  N   1.99201402367857     -0.65213536440554      0.10471522363893
  H   2.75109650013306     -0.02851375511196     -0.13013081108888
  H   2.00524826906435     -1.47597859102040     -0.48021093421943
  C   -1.77815192389034      0.05096022200965     -0.15505925534459
  H   -2.42070269541471     -0.57154599680295      0.47479646476341
  H   -2.27379110180730      0.14636759141659     -1.12540580686518
  H   -1.72312252616897      1.04279014487229      0.29688585940827
