13
Coordinates from ORCA-job run
  C   -0.64442382516541     -0.09639120185559      0.05054178488682
  C   0.81901083073691     -0.22623080887062     -0.31589613347062
  F   -1.42772068129482     -0.15427449200006     -1.05575242031600
  H   1.44377019049108     -0.32271223607470      0.57278445325225
  H   0.96004488343175     -1.09874509084546     -0.95190879113329
  C   -0.94644809560151      1.08667643185458      0.85457930857594
  N   -1.14900879147158      2.02359191737450      1.53342803175244
  N   -1.03110368910289     -1.34566322456070      0.87471210897331
  O   -1.89641100371448     -1.20153572155457      1.72649964825949
  O   -0.48254816207578     -2.38798342696572      0.53722797824148
  N   1.32040263407535      0.96045388069427     -1.08223219079178
  O   0.52340544617029      1.84413202322474     -1.37970117896663
  O   2.51103026352106      0.91968194957932     -1.36328259926341
