13
Coordinates from ORCA-job run
  C   -0.71409250512664      0.02512174916963     -0.03746705216613
  C   0.62523730586509      0.70175894999843     -0.25102268390619
  F   -1.21824810652059     -0.42171420287199     -1.20498983251784
  H   1.09075602688119      0.93227367247417      0.70716656458087
  H   0.49814872522700      1.60478021218706     -0.84637047362185
  C   -1.64809432347716      0.95550661489796      0.60424618080647
  N   -2.38063268338402      1.72609149232184      1.10454082232377
  N   -0.57290697948894     -1.17415431775138      0.92434353704969
  O   -1.06488625694172     -2.22667714655119      0.57055541270921
  O   -0.00256151338309     -0.90460453567092      1.97057110223147
  N   1.55907178151290     -0.19068913547350     -1.00530711785741
  O   2.30899205182530      0.35880412271265     -1.80194151504590
  O   1.52021647701068     -1.38649747544278     -0.73432494458616
