16

C	0.0	0.0	0.0
C	-0.351461	0.119228	-1.535753
Br	1.953635	0.0	0.0
H	0.445721	0.719738	-1.989026
H	-0.306003	-0.973747	0.38691
N	-0.510922	1.011526	0.876666
H	-0.360952	1.927535	0.467373
H	-1.517419	0.860253	0.958438
N	-1.600386	0.760758	-1.873466
H	-1.625051	1.714836	-1.53377
H	-2.401582	0.294001	-1.443314
C	-0.338725	-1.271844	-2.161152
H	0.582154	-1.813597	-1.932979
H	-0.449117	-1.186631	-3.244028
H	-1.191904	-1.840538	-1.77935
Cl	-4.088897	0.0	0.0
