16

C	0.0	0.0	0.0
C	-0.427774	-0.019793	-1.520895
Br	1.95805	0.0	0.0
H	0.477658	0.17769	-2.101583
H	-0.249369	-0.949542	0.485185
N	-0.509451	1.160429	0.67682
H	-1.526183	1.105906	0.580177
H	-0.301283	1.086745	1.666589
N	-1.405574	0.970181	-1.925081
H	-1.121045	1.879722	-1.58065
H	-2.307372	0.748039	-1.504219
C	-0.937062	-1.411478	-1.873795
H	-1.869559	-1.599197	-1.335822
H	-1.140179	-1.465648	-2.945554
H	-0.201641	-2.179786	-1.613395
Cl	-3.852069	0.0	0.0
