16

C	0.0	0.0	0.0
C	-0.492826	-0.352857	-1.412139
Br	1.970915	0.0	0.0
H	-1.582727	-0.293583	-1.318631
H	-0.236676	-0.83483	0.670197
N	-0.508625	1.272579	0.415959
H	-1.525622	1.204841	0.295049
H	-0.337795	1.399381	1.407611
N	-0.177634	-1.716301	-1.828403
H	-0.706242	-2.363452	-1.253486
H	0.80921	-1.894895	-1.670492
C	-0.032105	0.637146	-2.468393
H	-0.617537	0.480287	-3.37668
H	1.023066	0.488359	-2.711109
H	-0.169076	1.661265	-2.119882
Cl	-3.643852	0.0	0.0
