16

C	0.0	0.0	0.0
C	-0.36393	0.240872	-1.46755
Br	2.071697	0.0	0.0
H	0.308754	-0.368129	-2.085224
H	-0.187767	-1.03183	0.292162
N	-0.548778	0.916361	0.885486
H	-0.883005	1.735405	0.394477
H	-1.233298	0.525284	1.514264
N	-0.22146	1.672761	-1.73105
H	-0.725666	1.916466	-2.57341
H	0.756166	1.905402	-1.857764
C	-1.798792	-0.193856	-1.717732
H	-2.532322	0.3324	-1.10591
H	-2.049471	-0.036445	-2.772893
H	-1.925404	-1.257712	-1.505953
Cl	-4.829152	0.0	0.0
