16

C	0.0	0.0	0.0
C	-0.478426	-0.156096	-1.457276
Br	1.97329	0.0	0.0
H	-1.568383	-0.122198	-1.350398
H	-0.271775	-0.907543	0.542877
N	-0.498836	1.121943	0.736621
H	-0.384218	1.965027	0.185655
H	-1.506041	0.956184	0.830306
N	-0.14249	-1.44334	-2.06241
H	-0.666088	-2.169488	-1.585594
H	0.845019	-1.630829	-1.919562
C	-0.042053	0.966566	-2.385417
H	-0.288297	1.95197	-1.980813
H	-0.568594	0.849908	-3.334059
H	1.03309	0.929725	-2.580492
Cl	-3.63452	0.0	0.0
