12
Coordinates from ORCA-job run
  C   0.72548677970205     -0.80057643510638      0.20301552435100
  C   -0.47014537720433     -0.30607771984749     -0.17574127506608
  H   0.97558291227755     -1.85401129970398      0.18923557178132
  N   1.84612781535665      0.03299371942726      0.60734801932251
  O   2.95336441456780     -0.49846017013263      0.52151940848866
  O   1.62459108865357      1.17636229982440      1.00472978308414
  C   -1.44491794563067     -1.29347069235191     -0.54391219282316
  N   -2.26510567580521     -2.08126410672980     -0.84795233898312
  C   -0.90257126896735      1.13432641660969     -0.23684284657507
  H   -1.76838066165392      1.23225846415350     -0.89127890004733
  H   -0.09760300160801      1.77517545324083     -0.59228049081554
  H   -1.17542907968814      1.48274407061652      0.76215973728268
