12
Coordinates from ORCA-job run
  C   0.69027342632872     -0.64390666582983      0.56431383916377
  C   -0.52296739290459     -0.20560128835667      0.17250621300165
  H   0.84225903258353     -1.42762868203506      1.29578145578116
  N   1.94061273046623     -0.06354097328673      0.10116420961412
  O   2.91430616783006     -0.26779595435229      0.82640442284551
  O   1.94905678504618      0.56664018444657     -0.95572388110661
  C   -1.63601583657783     -0.90743719400527      0.74620476911773
  N   -2.57029619613290     -1.46468948451807      1.19625319471874
  C   -0.84245573680072      0.90079548708799     -0.79670130831325
  H   -0.74539513060198      0.53529068441852     -1.82177086463455
  H   -1.86570944310052      1.24249637804870     -0.64195511758682
  H   -0.15366840613618      1.73637750838214     -0.68647693260145
