12
Coordinates from ORCA-job run
  C   0.97023688402004      0.12608900288368      0.07779547754126
  C   -0.36455996862869      0.03383488880086     -0.04803469811797
  H   1.53751401878408      0.98982221722932     -0.24465682755717
  N   1.82703332044971     -0.92789431587944      0.60709981921120
  O   1.31169386929626     -1.89284502699538      1.16279668735617
  O   3.03417536971820     -0.74309855526316      0.44334300005466
  C   -1.12523544387077     -1.11617424034221      0.34383079444472
  N   -1.88162636620444     -1.97953094521150      0.60379725895936
  C   -1.16770765446332      1.16713299317396     -0.62778215434412
  H   -0.52585369160756      2.00365015828439     -0.90628192806963
  H   -1.90611177016097      1.51170443405555      0.10006234089470
  H   -1.71155856733254      0.82630938926392     -1.51196977037317
