12
Coordinates from ORCA-job run
  C   0.93769198544408      0.21196046302157      0.19381902442369
  C   -0.36578132055446     -0.00130758507875     -0.05431364590221
  H   1.35577134931587      1.19760401155929      0.35409758153321
  N   1.95566427271102     -0.83010969678509      0.24057349367473
  O   1.60672162026437     -2.00622460390620      0.21635680601310
  O   3.11502914774921     -0.41775637653496      0.30489624989503
  C   -0.93181109561136     -1.29596389343657     -0.29576420644471
  N   -1.53924160523527     -2.27896044436422     -0.51951012911303
  C   -1.34154412778828      1.14398484433513     -0.09951023401832
  H   -1.82327142596649      1.18638401299534     -1.07927853017420
  H   -2.12569504574509      0.99552448168659      0.64667231967177
  H   -0.84353375458360      2.09486478650786      0.09296127044095
