12
Coordinates from ORCA-job run
  C   0.73245227693437     -0.80958535267566      0.10642564521811
  C   -0.46522079782373     -0.28696912433329     -0.21820313237866
  H   0.96862054564744     -1.86685906967915      0.08056911612697
  N   1.85884025571792     -0.00861621197031      0.57013053350324
  O   2.07917772052189      1.07967993572255      0.04295370909349
  O   2.51793744388466     -0.51502852471348      1.47714490264358
  C   -1.45145237760167     -1.23854126304324     -0.64254668506003
  N   -2.26316685790353     -2.00850812898411     -1.00854023173820
  C   -0.90248022392780      1.14587768380449     -0.11768450820832
  H   -1.73695798505187      1.21238471866727      0.58551900654981
  H   -0.08948442630389      1.78799342092897      0.21140692511119
  H   -1.24926557409379      1.50817191627595     -1.08717528086118
