12
Coordinates from ORCA-job run
  C   0.94934969858973      0.14819751392016      0.19367216437100
  C   -0.35852838695493      0.02263932934074     -0.08903869477220
  H   1.46777831930117      1.09845773722666      0.18518303509476
  N   1.83166973056522     -0.95307043050073      0.55989704974592
  O   2.98177444897761     -0.61900611485419      0.84996904655306
  O   1.39112203156565     -2.09819591198727      0.55568560540065
  C   -1.06440485217828     -1.22497415376688     -0.07417975023379
  N   -1.78012916179912     -2.15884424790311     -0.10324763782692
  C   -1.18986672630304      1.22444014238875     -0.45039397775675
  H   -1.62419007190442      1.09252347827347     -1.44417047890691
  H   -2.01466130311565      1.33408955220319      0.25765992989582
  H   -0.59091372674392      2.13574310565919     -0.44203629156464
