12
Coordinates from ORCA-job run
  C   0.97103596088870      0.15387855173976     -0.01453751472513
  C   -0.36715659255224      0.03145391698265     -0.01318989305211
  H   1.48952091814748      0.99364549380156     -0.45937823380495
  N   1.88803538370583     -0.84952243681739      0.51119714267453
  O   1.46412138323822     -1.68581810340454      1.30316172777204
  O   3.04477297192027     -0.75981718903367      0.09729987509030
  C   -1.05690217437323     -1.10226740529660      0.52835930877126
  N   -1.75176461257643     -1.97000989580055      0.91481143550371
  C   -1.24657755486049      1.09878019833728     -0.60629788255026
  H   -1.84726671755163      0.68160658695886     -1.41793652559186
  H   -1.93542373588788      1.47810724463287      0.15208842125506
  H   -0.65339523009860      1.92796303789978     -0.99357786134259
