12
Coordinates from ORCA-job run
  C   0.86067445329412      0.15574597898503      0.44367281650817
  C   -0.34509824794719      0.01323072758667     -0.13245459642946
  H   1.18140259753263      1.06995589243060      0.92670074844114
  N   1.89886537042314     -0.86736286975123      0.46058921359584
  O   2.99382027499577     -0.48529473701125      0.87705443374255
  O   1.62682586243039     -2.00023363972527      0.07564668968641
  C   -0.77463911163242     -1.18050561684006     -0.79975266079167
  N   -1.26475173863723     -2.07706453404423     -1.38380651995018
  C   -1.34827466694968      1.13524194304887     -0.11569065347917
  H   -2.26501982003274      0.80856069114253      0.38087886001488
  H   -1.61028040700959      1.41750257212728     -1.13814410760716
  H   -0.95452456646720      2.00922359205105      0.40430577626864
