12
Coordinates from ORCA-job run
  C   0.64366398267139     -0.71700302803222      0.53364409443322
  C   -0.50017418290628     -0.30652511797655     -0.04957948577431
  H   0.79267778793584     -1.70704655498045      0.94499832301369
  N   1.84284334491978      0.10239238369011      0.60198396612018
  O   1.72609208496000      1.32703474719679      0.58379889359318
  O   2.90146866399240     -0.52061253458604      0.68472351493873
  C   -1.57480281919771     -1.25730057539246     -0.02312786960688
  N   -2.47088941250751     -2.02071426810867     -0.01877641012063
  C   -0.78252661531145      1.02147192436622     -0.69903464481329
  H   0.10226003738538      1.41890661480709     -1.19201517582094
  H   -1.58925879201421      0.91160251902768     -1.42481924008138
  H   -1.09135407992763      1.74779388998852      0.05720403411843
