12
Coordinates from ORCA-job run
  C   0.82586241631735     -0.00445439798126      0.52951682962944
  C   -0.32012135605978      0.07751331573065     -0.16789135107552
  H   1.11294398248864      0.71872781950643      1.28221802636523
  N   1.80034618907896     -1.08094596022191      0.40146099768538
  O   1.67815725714165     -1.89086689054663     -0.51213588788695
  O   2.68996776262139     -1.07671088368924      1.25396267497346
  C   -0.72808476725091     -0.88579638553327     -1.14789403717405
  N   -1.20275372737706     -1.58647082479071     -1.96577192732879
  C   -1.27699474204181      1.21918690287178      0.04727590760162
  H   -0.90391068114552      1.90931122528163      0.80479686799537
  H   -1.42479388590666      1.76368348281313     -0.88835494243075
  H   -2.25061844786625      0.83682259655940      0.36281684164558
