12
Coordinates from ORCA-job run
  C   0.72046558624870     -0.68989216324671      0.46835414316400
  C   -0.48606124802540     -0.33089954031684     -0.01287723819455
  H   0.94873709629446     -1.67386423083826      0.85844144847652
  N   1.88098839477720      0.18587205156468      0.44196904387256
  O   2.97061002254687     -0.38674524450838      0.43254955091986
  O   1.70607161360750      1.40398797325668      0.44246927377639
  C   -1.50878239442647     -1.33240732019578      0.09334316072700
  N   -2.37000884148686     -2.13128634744421      0.16977145326294
  C   -0.88681354454059      0.98766809174658     -0.61745165400463
  H   -1.75399774061796      0.84820065783377     -1.26279061816844
  H   -0.07165658311968      1.42862293584316     -1.18751672074066
  H   -1.14955236125778      1.69274313630532      0.17473815690900
