12
Coordinates from ORCA-job run
  C   0.88452900235052      0.18533576372299      0.38062161427507
  C   -0.33967751820364      0.01175252026165     -0.14604861955497
  H   1.25719250733874      1.14795843539786      0.70715920329238
  N   1.84668309549252     -0.88401693873148      0.61675878977992
  O   1.61270139573457     -2.00550483932264      0.17737744435298
  O   2.84341094910810     -0.54945118103391      1.25939050538557
  C   -0.85808271857792     -1.25894982992328     -0.55996629413691
  N   -1.42349222193312     -2.22101492528056     -0.93402186720308
  C   -1.27230691697218      1.17783037660552     -0.33582104986185
  H   -1.53939696367273      1.27441051292318     -1.39085480520583
  H   -0.81451528530620      2.10834138632521      0.00162162258487
  H   -2.19604532535865      1.01230871905545      0.22378345629185
