12
Coordinates from ORCA-job run
  C   0.86389371692604      0.13320297122774      0.44465637611887
  C   -0.34266173489368      0.02372523240282     -0.13706474015589
  H   1.21895866091652      1.04737268204656      0.90312539109305
  N   1.85707833772029     -0.93221003360105      0.50516659875060
  O   1.54728323664501     -2.05912306678787      0.13143749194872
  O   2.95641466663905     -0.58929088154420      0.94370564126149
  C   -0.81905204997060     -1.17127806666812     -0.76943038041936
  N   -1.34476388315030     -2.06451516726848     -1.32708032642739
  C   -1.29706218641922      1.18739624681655     -0.16381362115203
  H   -0.87043088578684      2.05951370336241      0.33286432167398
  H   -1.53891039119118      1.44882792588994     -1.19672680699217
  H   -2.23074748743509      0.91537845412368      0.33416005430014
