16

C	-0.600056	0.024013	-1.404935
C	0.0	0.0	0.0
F	0.162462	0.869218	-2.187272
H	1.095954	0.0	0.0
N	-0.396919	-1.34251	-2.086954
O	0.698175	-1.864437	-1.943368
O	-1.326287	-1.781424	-2.765574
N	-1.944722	0.388245	-1.423123
H	-2.29547	0.577996	-0.496198
H	-2.511376	-0.229395	-1.982412
C	-0.519157	-1.170798	0.710517
N	-0.965527	-2.087362	1.293529
N	-0.491781	1.215417	0.692722
H	-0.042316	1.995362	0.217923
H	-0.078114	1.197657	1.620091
Cl	3.301512	0.0	0.0
