16

C	-0.369324	-0.163392	-1.478708
C	0.0	0.0	0.0
F	-1.634978	-0.659951	-1.655371
H	1.093545	0.0	0.0
N	-0.455636	1.268171	-2.082324
O	-1.559164	1.784647	-2.20416
O	0.620256	1.77294	-2.379174
N	0.568054	-0.981723	-2.108925
H	0.4863	-0.973796	-3.115984
H	1.51722	-0.762885	-1.809666
C	-0.460648	-1.191101	0.72596
N	-0.884429	-2.079349	1.368014
N	-0.466187	1.250137	0.56766
H	-1.385688	1.155342	0.976968
H	0.190692	1.546247	1.277399
Cl	3.270944	0.0	0.0
