13
Coordinates from ORCA-job run
  C   -0.69310229973419      0.14237474658756     -0.32568083318078
  C   0.73576234779690     -0.43912335514459     -0.35876070627086
  Br  -0.66227612166715      1.99282740261858     -0.92296311673422
  H   0.65966622071235     -1.48972024969173     -0.04423223455634
  H   -1.28425910260737     -0.39684107420751     -1.06918775241836
  C   -1.31278280032112      0.03544512121434      1.05495027016301
  H   -0.74986551450391      0.62150947714817      1.78337699338405
  H   -1.32815415058418     -1.01079904918194      1.37676479282258
  H   -2.33852881757158      0.40439491277458      1.03633077045939
  C   1.62042074168408      0.24206817655989      0.59239888611541
  N   2.30581174672897      0.77005064876121      1.38577994733193
  C   1.30751070216846     -0.42534415822117     -1.70881189206275
  N   1.73979704789876     -0.44884259921739     -2.79996512505306
