13
Coordinates from ORCA-job run
  C   -0.65065974886988      0.48316043790053     -0.37183450540890
  C   0.83721465299482      0.15322037391051     -0.63016234866641
  Br  -0.81009746541801      2.41325932204001     -0.15906226252259
  H   1.19536296408486      0.76577909934944     -1.46543331094349
  H   -1.20267039021066      0.24358877382588     -1.28309284190556
  C   -1.22379000825197     -0.24269940255681      0.82869321546387
  H   -2.27940189271789      0.00310792195769      0.94703575250701
  H   -0.69906913348479      0.04058652471834      1.74268842197823
  H   -1.13489695964938     -1.32369808114206      0.68734849150892
  C   0.96381114053980     -1.26075067879029     -1.00667314512058
  N   1.01398667607697     -2.39016291534756     -1.32423026633668
  C   1.66872665178385      0.44287363919017      0.54301828735172
  N   2.32148351312228      0.67073498494415      1.49170451209447
