13
Coordinates from ORCA-job run
  C   -0.63556346192388      0.25303886295596     -0.37360344523806
  C   0.72210018113716     -0.47873152343224     -0.33318821856133
  Br  -0.35256739094859      2.14057542355251     -0.74659966740841
  H   0.50600374428541     -1.54109530022591     -0.15107370351914
  H   -1.19268680348169     -0.13518015644908     -1.22908314271881
  C   -1.41089196110611      0.07276127674217      0.91793670725691
  H   -2.38632400372942      0.55388064298703      0.84148729266431
  H   -0.87549413823959      0.51343406870313      1.76073119767639
  H   -1.56607104959771     -0.99301495481156      1.11422197618688
  C   1.56165509062995     -0.00554249951490      0.77252187948712
  N   2.20869530963271      0.34959448076003      1.68540338001086
  C   1.43786246039397     -0.38785612262990     -1.60943417164439
  N   1.98228202294779     -0.34186419863725     -2.64832008419234
