13
Coordinates from ORCA-job run
  C   -0.51633240690970      0.50382940509491     -0.23495302188421
  C   0.92282695947860      0.04385499732974      0.09038407867236
  Br  -0.65621838601826      2.39113524147299      0.22871310176014
  H   1.10864324586801      0.22633951630264      1.15617632938134
  H   -0.66889073428243      0.45201157766038     -1.31474309429228
  C   -1.56062534849186     -0.30240868369081      0.51400877750396
  H   -1.51788651802851     -1.35148564468354      0.21059156045831
  H   -2.55759374794116      0.07969226416311      0.29319074946398
  H   -1.40032283643807     -0.23748312142704      1.59266101553890
  C   1.92582404212496      0.78040216435295     -0.68645752142992
  N   2.72561737085396      1.36172227205560     -1.31927575383194
  C   1.06134447369147     -1.39601062554374     -0.16545014963880
  N   1.13361388609300     -2.55059936308720     -0.36684607170184
