13
Coordinates from ORCA-job run
  C   -0.70674486606245      0.11155151966404     -0.30967097434604
  C   0.75215827787699     -0.38484144973230     -0.38417098982154
  Br  -0.79307154054635      1.97789481285143     -0.84923484996790
  H   0.74265436033463     -1.44697536375404     -0.10091875969354
  H   -1.27992353902515     -0.43798798939084     -1.05964747449270
  C   -1.29354076673932     -0.07236023822626      1.07731691207986
  H   -2.33923170933176      0.23617049438095      1.08735007280110
  H   -1.24181653679659     -1.12663199478526      1.36765453659231
  H   -0.75215335373278      0.52425265951097      1.81360055722701
  C   1.61401553982372      0.31767075873427      0.57259087919565
  N   2.29073415880891      0.85409378271747      1.36784575861401
  C   1.29822205686089     -0.29654205012192     -1.74201699899213
  N   1.70969791852926     -0.25629494184852     -2.84069866919611
