13
Coordinates from ORCA-job run
  C   -0.70367821651029     -0.01201187193169     -0.28039341117533
  C   0.83361689850883      0.08957882577558     -0.39789780075081
  Br  -1.48279225238916      1.14147778507132     -1.64347247930094
  H   1.11884253516942      1.14098039956062     -0.26667423434865
  H   -1.01246445861379     -1.02674221409351     -0.53904785682552
  C   -1.20164144665622      0.38665951539455      1.09616714619538
  H   -2.29051444842801      0.34200214945826      1.12767126978600
  H   -0.80629387635898     -0.29484132739474      1.85359159182466
  H   -0.89367042932242      1.40606008487908      1.33957527027037
  C   1.31796619676503     -0.36113837566808     -1.70709471848709
  N   1.69131426275987     -0.74752241546889     -2.75089611640319
  C   1.47361275823414     -0.70250600607985      0.66088504251939
  N   1.95470247684159     -1.35999654950267      1.50658629669574
