13
Coordinates from ORCA-job run
  C   -0.64733348079006      0.48293940603421     -0.38159349490591
  C   0.86069543886323      0.20925026930545     -0.58245883632917
  Br  -0.87613997186927      2.39504258120325     -0.08549277369653
  H   1.23767763881835      0.87132221121601     -1.37025366245015
  H   -1.14799380068027      0.27266363437301     -1.32901427716220
  C   -1.25394640527943     -0.31668243269432      0.75379275870422
  H   -0.78279690653643     -0.06269195332896      1.70494076286349
  H   -1.12409803128477     -1.38653212562410      0.56649331819237
  H   -2.32136160440795     -0.10799319443405      0.83118092577051
  C   1.04999855805777     -1.18145245629058     -1.01546329139563
  N   1.15292447302533     -2.29755960245886     -1.36546833982192
  C   1.62639296614066      0.46580009104045      0.64219647992984
  N   2.22598112594282      0.65689357165844      1.63314043030104
