13
Coordinates from ORCA-job run
  C   -0.54146213437659      0.52098811901554     -0.10754992260606
  C   0.92528471113624      0.05574856762972      0.03644888085105
  Br  -0.69016424747255      2.28315710685640      0.71012005062638
  H   1.17741640827254      0.04036249239283      1.10431653518276
  H   -0.76430374511824      0.66603218630205     -1.16644881441093
  C   -1.51677630191344     -0.44432488226604      0.53933695271019
  H   -2.53427302831699     -0.06275089129059      0.45133883848478
  H   -1.28961449760825     -0.57183766146016      1.60017230524498
  H   -1.46942077607486     -1.41826568588946      0.04588243554492
  C   1.86111018308229      0.95783488477474     -0.64320755443954
  N   2.60933162567456      1.68552083354295     -1.18057582781575
  C   1.07655409763489     -1.30607517107211     -0.49286152252520
  N   1.15731770508046     -2.40638989853585     -0.89497235684759
