13
Coordinates from ORCA-job run
  C   -0.68333954060306      0.18969133591824     -0.32234840428460
  C   0.75432319699771     -0.36510593036579     -0.40074918706377
  Br  -0.65920997481886      2.11518328182043     -0.59393628077033
  H   0.68318663031852     -1.45457377191013     -0.27278700371472
  H   -1.23991974275370     -0.21935315508880     -1.16844531617032
  C   -1.34938748729380     -0.15696143394519      0.99595530561769
  H   -0.82106458257203      0.30119332088421      1.83385299805998
  H   -2.37929120489255      0.20081022941104      1.00262560176850
  H   -1.36022507699013     -1.24287845421916      1.13416887453391
  C   1.59457324898317      0.15074463196351      0.68541897306261
  N   2.24635211629061      0.53838652355863      1.58141958085756
  C   1.37326066797813     -0.11446497917307     -1.70605036839878
  N   1.84274174935597      0.05732840114605     -2.76812477349774
