14

C	-0.474833	0.016278	-1.456234
C	0.0	0.0	0.0
Cl	0.218859	-1.306741	-2.395594
H	1.094109	0.0	0.0
H	-1.559711	-0.025956	-1.567386
N	-0.097553	1.344802	-2.061944
O	1.045167	1.524664	-2.454287
O	-1.002579	2.186976	-2.05247
C	-0.56614	-1.185152	0.632058
N	-1.034009	-2.137646	1.138961
N	-0.354564	1.200844	0.745193
H	0.452752	1.809049	0.711154
H	-1.16472	1.684455	0.381936
F	2.518674	0.0	0.0
