14

C	-0.243101	0.109055	-1.482441
C	0.0	0.0	0.0
Cl	-1.95826	0.373966	-1.957464
H	1.094942	0.0	0.0
H	0.332675	0.945927	-1.864817
N	0.24563	-1.080674	-2.260085
O	-0.195549	-2.183507	-1.956786
O	1.041508	-0.844159	-3.165625
C	-0.640002	-1.133669	0.642029
N	-1.158938	-2.015154	1.221171
N	-0.325834	1.23827	0.700931
H	-1.14028	1.700993	0.318002
H	0.489427	1.836874	0.634619
F	2.510335	0.0	0.0
