14

C	-0.354285	0.014307	-1.465115
C	0.0	0.0	0.0
Cl	0.072731	1.535727	-2.249764
H	1.095847	0.0	0.0
H	0.169474	-0.785229	-1.987107
N	-1.823902	-0.225109	-1.746762
O	-2.640164	0.180745	-0.92312
O	-2.100616	-0.809878	-2.793492
C	-0.439905	-1.275772	0.561796
N	-0.794486	-2.289886	1.042762
N	-0.434151	1.165347	0.74055
H	0.2696	1.360201	1.438794
H	-1.335149	1.033581	1.1765
F	2.523117	0.0	0.0
