14

C	-0.393739	0.124488	-1.44269
C	0.0	0.0	0.0
Cl	-2.159403	0.269353	-1.723955
H	1.091496	0.0	0.0
H	0.077978	1.012808	-1.850201
N	0.099239	-1.025007	-2.274327
O	0.820033	-0.739198	-3.22773
O	-0.259387	-2.153198	-1.954704
C	-0.556094	-1.15264	0.690429
N	-1.004125	-2.016038	1.352444
N	-0.323901	1.270156	0.658756
H	0.460337	1.480148	1.265505
H	-1.166307	1.199572	1.215308
F	2.513343	0.0	0.0
