12
Coordinates from ORCA-job run
  C   0.32004578745926     -0.10795522952977     -0.14652069673161
  C   -0.57221084179522      0.87296112533302      0.12238079810747
  H   -0.33148305962820      1.90165025417688     -0.11762151371169
  N   0.04214257813328     -1.45690800286628      0.14632842137519
  H   -0.06480999496571     -1.99799483916196     -0.70453847674962
  H   0.80926647141537     -1.87003133481221      0.66337814029748
  N   1.60233407101808      0.24942282643293     -0.73936223270988
  O   1.83073252351143      1.42731498776782     -1.01400977326919
  O   2.39720624651905     -0.67913410530214     -0.91720904754377
  N   -1.81328165758947      0.61566262098252      0.61704966765280
  H   -1.93339685084458     -0.31443467364164      0.99099304371552
  H   -2.28654527323327      1.35944637062084      1.09913166956730
