12
Coordinates from ORCA-job run
  C   0.30863386388133     -0.09911916780788     -0.17440651043486
  C   -0.33347027784809      0.70874183357246      0.70039655941624
  H   0.19057090227952      1.54427863039313      1.14871870131412
  N   -0.33705730353640     -1.19788664934491     -0.77308957511820
  H   -0.20176042472744     -1.18158820201157     -1.77703450755954
  H   0.05098029454730     -2.07266115923044     -0.43780778896834
  N   1.69805421873612      0.18743946833789     -0.50881325345951
  O   2.22060963748704     -0.55556434277623     -1.34575411977358
  O   2.26357937095813      1.13697595062703      0.03297163002615
  N   -1.60841597030448      0.47193117410607      1.11339104477477
  H   -2.11721068296946     -0.19331664445234      0.54953128919743
  H   -2.13251362850356      1.25076910858679      1.47189653058533
