12
Coordinates from ORCA-job run
  C   0.15532041800188     -0.29733640596434     -0.36776348593340
  C   -0.86632471270774     -0.01242706793691      0.48514050247821
  H   -1.64197793398940     -0.76988136905082      0.57275095857655
  N   0.19725718787875     -1.38836109208508     -1.24991881403192
  H   -0.58739264293485     -2.00891918431466     -1.11323797919651
  H   1.07462146815305     -1.88797225180565     -1.19561227173854
  N   1.29905128297740      0.56700052420439     -0.48456944903106
  O   1.26958144168442      1.67857825950488      0.06583999639972
  O   2.27482647177143      0.12390948752324     -1.09684824083930
  N   -1.12639135388002      1.14824487743778      1.16588605787514
  H   -1.69075509411388      1.05042153610046      1.99264481089536
  H   -0.35681653284102      1.79674268638672      1.22568791454575
