12
Coordinates from ORCA-job run
  C   0.12765031416781     -0.34842214492544     -0.31421641778385
  C   -0.84834434502490      0.00406045330096      0.56745748674843
  H   -1.65155622374605     -0.71755231716863      0.69601170303603
  N   0.09969275562578     -1.52401916423440     -1.09074033662574
  H   1.01636007584985     -1.70065446085344     -1.47889562104901
  H   -0.20896712630843     -2.31680214569148     -0.54670940053416
  N   1.21825176642265      0.53358045746201     -0.61385135400721
  O   2.07244420528464      0.13332499581514     -1.41438781457029
  O   1.25785671299121      1.64554949442815     -0.06345578797212
  N   -0.91914178670728      1.09570690041541      1.38899225134600
  H   -0.32753113912211      1.87133594779359      1.13628649277531
  H   -1.83571520943317      1.32389198365812      1.73350879863660
