12
Coordinates from ORCA-job run
  C   0.15755668164144     -0.29890902612627     -0.36521059147192
  C   -0.86150174632098     -0.02689558629208      0.49530494198178
  H   -1.61524357866425     -0.80321690547382      0.60563746545513
  N   0.21891637767325     -1.40453022235015     -1.22770560184786
  H   -0.54439128621017     -2.04562448398140     -1.06712276376203
  H   1.11183983774118     -1.87619832410350     -1.17787130146061
  N   1.27693805937868      0.59247920672092     -0.50945591106837
  O   2.25723960601164      0.16362584779881     -1.12479598735262
  O   1.22470509195900      1.71272744432110      0.02131237131862
  N   -1.14467432094891      1.13934061993726      1.15788830212994
  H   -1.69244593631952      1.04039540074178      1.99571110910734
  H   -0.38993878594137      1.80680602880735      1.19630796697060
