12
Coordinates from ORCA-job run
  C   0.33252317884269     -0.12524054574414     -0.09538579901792
  C   -0.43519207963031      0.75910409800623      0.58198357430977
  H   0.02909121564860      1.58397133473226      1.10905155209705
  N   -0.23291694933726     -1.21176940258701     -0.78951377376730
  H   0.12387344774554     -1.24916338830537     -1.73704376606147
  H   0.01211302941836     -2.09104213986405     -0.34789160639919
  N   1.77781844598228      0.06496185695691     -0.11238646108282
  O   2.26800724809668      1.00616395284412      0.51107883269340
  O   2.42532951118096     -0.74719574144271     -0.78072568405558
  N   -1.78345383732508      0.61591071984759      0.70012182294089
  H   -2.19408234703730     -0.04537000030752      0.05706811891148
  H   -2.32211086358518      1.43966925586369      0.90264318943168
