12
Coordinates from ORCA-job run
  C   0.31802897009504     -0.07972810808345     -0.16713235393574
  C   -0.46031441612028      0.79356868953071      0.51258883941827
  H   -0.11601686548423      1.80713747690833      0.67958709338677
  N   -0.09265182068961     -1.40639008749573     -0.39918862679162
  H   0.00736013750198     -1.63965646168123     -1.38002947388949
  H   0.48339953611537     -2.06011360796842      0.11939356334543
  N   1.60708328869932      0.37295745938424     -0.67490747615372
  O   2.25725800382208     -0.45364356394132     -1.32266264341522
  O   1.96975207845741      1.52770394155707     -0.45139311619821
  N   -1.64534868141368      0.43159326401692      1.07492986759681
  H   -2.01312770891501     -0.45124558292997      0.75139620652586
  H   -2.31542252206839      1.15781658070286      1.25741812011086
