12
Coordinates from ORCA-job run
  C   0.15175257929007     -0.41758778134691     -0.17534989569045
  C   -1.03292011301829      0.17463364733394      0.14703638489605
  H   -1.90841764625354     -0.42457122213984     -0.08182552629228
  N   0.17180601758012     -1.70197770112436     -0.75258765865224
  H   0.68224949826695     -2.35009540020539     -0.16425488724139
  H   0.64759725535707     -1.68231414871554     -1.64682572762214
  N   1.41061969874575      0.26047168671588      0.04700301538638
  O   1.39829191031754      1.39211767239858      0.55744414644223
  O   2.44083938875806     -0.32790319623272     -0.29144425037227
  N   -1.26700513602402      1.35815296431463      0.75269085978484
  H   -0.49281939376944      1.99227365775258      0.86444244322554
  H   -2.20099405925027      1.72479982124916      0.74167109613572
