12
Coordinates from ORCA-job run
  C   0.32477090194628     -0.11920750182345     -0.12565246249006
  C   -0.38978860570711      0.61988355323695      0.75390393299986
  H   0.12175968369396      1.26068360429054      1.46202985651674
  N   -0.30430471170518     -0.96664499753667     -1.05758156162438
  H   -0.12221768913087     -1.94081839458324     -0.84316504195370
  H   0.05832435404709     -0.79723920281117     -1.98830144136987
  N   1.77885325659323     -0.01888806724751     -0.11247852715923
  O   2.37704895775774     -0.67593592361072     -0.97044664936008
  O   2.32440667993219      0.70505831780355      0.72002273703202
  N   -1.74515532495117      0.53551332546257      0.84775337430954
  H   -2.23155360450902      1.31921054257606      1.24673088640714
  H   -2.19214389796714      0.07838474424309      0.06618489669203
