12
Coordinates from ORCA-job run
  C   0.31429768149508     -0.09211179974733     -0.16785062827072
  C   -0.35730383869211      0.68098437085196      0.71614986074735
  H   0.14947157880426      1.50066316868938      1.21118065878495
  N   -0.30946174014423     -1.16864291084878     -0.82725935477259
  H   -0.14282281589440     -1.11359718060345     -1.82512663012911
  H   0.07053471477271     -2.05499135635383     -0.51386422962913
  N   1.71184266129943      0.21077054503062     -0.44926050403842
  O   2.25772378800252      1.13935888224893      0.14622591490066
  O   2.26164027769327     -0.49765404370146     -1.29863690310484
  N   -1.64340979302011      0.42562382130992      1.08043898585113
  H   -2.18161515422953      1.18851655605467      1.45204696575481
  H   -2.13189736008689     -0.21892005293064      0.47595586390593
