12
Coordinates from ORCA-job run
  C   0.30241434943871     -0.10198573475355     -0.18305232317291
  C   -0.41290975783341      0.85189246432970      0.45612401951871
  H   0.01858452201735      1.83230455199105      0.61849946571878
  N   -0.22544815171184     -1.38618034215974     -0.41658373281172
  H   0.42872238552124     -2.09687724248107     -0.11095345604968
  H   -0.38496620638699     -1.53832390735077     -1.40630188445388
  N   1.65494082481765      0.21084886010043     -0.62742748295240
  O   2.10290948353084      1.34196771468944     -0.44097419049593
  O   2.27824115552329     -0.71111953784915     -1.16323451239387
  N   -1.70320972400905      0.66064759253890      0.84434484345036
  H   -2.05590592722706      1.23990729771399      1.58588390546325
  H   -2.00437295368075     -0.30308171676924      0.84267534817929
