12
Coordinates from ORCA-job run
  C   0.17012638120789     -0.36453406896026     -0.27568854780868
  C   -0.97447464135269      0.21428596420877      0.18099007251571
  H   -1.90105036612484     -0.27930581321363     -0.10239772327697
  N   0.20568804761024     -1.46925694107756     -1.14945353362281
  H   1.09903131674206     -1.93742050754893     -1.07825711736622
  H   -0.54604868394699     -2.11512057432020     -0.95534911062727
  N   1.45767712999288      0.20213234914278      0.00348777213369
  O   1.51908314192887      1.26042134365543      0.64921120154451
  O   2.45029513711287     -0.40823011471809     -0.41152671764672
  N   -1.12775477558899      1.28101080174353      1.02484579246092
  H   -2.02597122939253      1.73197090228064      0.99748742749246
  H   -0.32560145818876      1.88404665880754      1.11565048420138
