12
Coordinates from ORCA-job run
  C   0.34243912327062     -0.10430541640152     -0.08488220366864
  C   -0.51434091624534      0.54137912412673      0.73927320751758
  H   -0.13112898037969      1.10871650577916      1.57893564203971
  N   -0.11708577917101     -0.85693831586687     -1.18265360088971
  H   0.38345377160875     -0.59463730753213     -2.02356963002256
  H   0.04920411560165     -1.84663978342077     -1.03759873455396
  N   1.77402335793340     -0.00625040188173      0.17025410327141
  O   2.16897949556726      0.63275861772951      1.14526084776435
  O   2.51125684969566     -0.57592004032083     -0.64071920661647
  N   -1.86559441212236      0.44780998256298      0.60770953567034
  H   -2.42335884992828      1.18367107432149      1.00410081894338
  H   -2.17784777583064      0.07035596090397     -0.27511077945542
