12
Coordinates from ORCA-job run
  C   0.37898820189985     -0.11252790889402     -0.08917536322749
  C   -0.45584462028335      0.54492168506004      0.74301275641411
  H   -0.09691305019514      1.08824323706869      1.60577739296370
  N   -0.05838093488704     -0.90043976848453     -1.13692492806338
  H   0.66359559999011     -1.20181779614780     -1.76737981713239
  H   -0.70887568026302     -1.62159015598417     -0.86781282828059
  N   1.81880501760382      0.05682936750117      0.05265276011283
  O   2.24227892306643      0.77268645344912      0.95772682343996
  O   2.52498869893450     -0.53702984955508     -0.76748878597387
  N   -1.83391368154206      0.41745346751460      0.57572242104633
  H   -2.10675807690069      0.39593396501945     -0.40059868807496
  H   -2.36697039742340      1.09733730345252      1.09548825677575
