12
Coordinates from ORCA-job run
  C   0.31876681500589     -0.06700743236940     -0.17140413457246
  C   -0.38351519525410      0.59807608827142      0.77438414992089
  H   0.12994804564788      1.25467976549283      1.46645309485216
  N   -0.31388951640093     -0.92496243985852     -1.09126825627754
  H   0.15948473302479     -1.82021946287348     -1.12033954868403
  H   -0.27742897708288     -0.54146305665170     -2.02923729158361
  N   1.76537705092749      0.10221901248199     -0.22411525846677
  O   2.36085242962583     -0.56808057018251     -1.07365671182139
  O   2.31012661751635      0.87223778594659      0.56654532138872
  N   -1.74132066941266      0.54239226835284      0.84997693180936
  H   -2.16101171529482     -0.20694019957300      0.31900380188120
  H   -2.16638961830284      0.75806824096295      1.73465790155347
