12
Coordinates from ORCA-job run
  C   0.31947209945863     -0.13322986066391     -0.12448875418468
  C   -0.38591434885693      0.86503847976796      0.45519801543434
  H   0.12779094444116      1.74359008412752      0.82666274383409
  N   -0.31188633998761     -1.28896361207839     -0.62227046925012
  H   0.14734607435372     -2.12062852742761     -0.27030376273518
  H   -0.25475478998894     -1.32646962045511     -1.63393604471094
  N   1.76883427706261     -0.00856291263831     -0.21891084912225
  O   2.31337806469092      1.01296762633581      0.19918186212228
  O   2.36607761480126     -0.96953812885659     -0.71434002622326
  N   -1.74504960822143      0.85424202311425      0.52537165528702
  H   -2.16846787985822     -0.04355508791876      0.34053791514735
  H   -2.17782610789517      1.41610953669314      1.23729771440136
