12
Coordinates from ORCA-job run
  C   0.15371541882423     -0.41692332788280     -0.17375303852526
  C   -0.96654225622040      0.08076013462454      0.42220892605832
  H   -1.78281763395100     -0.63027578232626      0.50041771198495
  N   0.18652172660041     -1.75004760623566     -0.62610881155676
  H   0.39644126175674     -1.78438338506365     -1.61665046280616
  H   0.91707226255451     -2.27019218675419     -0.15442027883198
  N   1.32184945234186      0.41214045704585     -0.37831479961235
  O   1.29907987559252      1.58656950544135      0.02339245374941
  O   2.28760978614312     -0.09753971390208     -0.95227449632854
  N   -1.18282521973827      1.29419842942859      0.97461711866745
  H   -2.12877170906648      1.55886048665978      1.18092036844117
  H   -0.50233296483725      2.01583298896454      0.79996530875974
