12
Coordinates from ORCA-job run
  C   0.12618971483154     -0.40083990403579     -0.22538903015160
  C   -0.89831789198831      0.04026345155697      0.55789627752834
  H   -1.63664231713562     -0.71888399850091      0.79564157366238
  N   0.16640443609845     -1.74029330865759     -0.65782291871884
  H   0.15177430161013     -1.79061849797931     -1.66956311147502
  H   1.02320834289760     -2.18706476789483     -0.35363597151736
  N   1.20327725063081      0.48374604137008     -0.61483051625873
  O   1.17323214614057      1.66545437166765     -0.23546716981443
  O   2.10730596878758      0.00890044824988     -1.30699367431486
  N   -1.15384270376607      1.28199993292669      1.02373821632876
  H   -0.42618523287506      1.97299590328957      0.93792966826053
  H   -1.83740401523164      1.38434032800757      1.75149665647083
