12
Coordinates from ORCA-job run
  C   0.08156142732518     -0.37018747746392     -0.29003519021844
  C   -0.95018031401479      0.12895375591573      0.44785781306320
  H   -1.84621770589240     -0.48324886357719      0.43317420514087
  N   -0.06624217738276     -1.58192744957369     -0.99201624285621
  H   0.63497970557633     -2.25130550211497     -0.69767630036265
  H   0.06677772340201     -1.43753829789060     -1.98608855420978
  N   1.35384796969083      0.31635252372828     -0.35576120435092
  O   1.48845542220656      1.38666145963857      0.25861655282637
  O   2.24909474352829     -0.20862922143517     -1.02279483828210
  N   -1.03447755310807      1.28680158040264      1.13755512039572
  H   -1.79280402776131      1.40166491202860      1.78479779934898
  H   -0.18679521356986      1.81140258034174      1.28037083950496
