12
Coordinates from ORCA-job run
  C   0.39080532057905     -0.07830376980051     -0.16023835684628
  C   -0.57445291002210      0.74423685995653      0.29898451801531
  H   -0.41473298179246      1.81007748016126      0.19472701514603
  N   0.34744411270103     -1.46923464723382     -0.20149923507882
  H   -0.26870391812802     -1.84222708089274      0.50848632434758
  H   1.26375208912159     -1.88838072841306     -0.13227648987425
  N   1.56118240891247      0.49919346448348     -0.80415603864477
  O   1.58503968612575      1.70569519749455     -1.04294019370058
  O   2.45269609981469     -0.29363919516462     -1.12371211107538
  N   -1.74170927122632      0.27864765329761      0.88771391496117
  H   -2.21967542258982     -0.46990608676759      0.40919652518801
  H   -2.38064521349587      1.00384085287890      1.16571412756198
