12
Coordinates from ORCA-job run
  C   0.40926260426978     -0.04046392064203     -0.20464049136015
  C   -0.46534318126588      0.69664312022618      0.51162815777635
  H   -0.11376105505955      1.58749585950574      1.01559196993277
  N   0.11094864040489     -1.05087384872039     -1.10946271755296
  H   -0.86394277856010     -1.10455158362908     -1.35570820931085
  H   0.54405512593172     -1.94444741288226     -0.93691631480755
  N   1.82981818790396      0.27856332556019     -0.10991923899073
  O   2.17487922951452      1.31778062316398      0.45010340881243
  O   2.60084096342768     -0.56616903436784     -0.56962372837890
  N   -1.83282467584765      0.44480931076821      0.53202131650492
  H   -2.07437508683349     -0.53604909821206      0.50039118573721
  H   -2.31955797388587      0.91726265922937      1.27653466163747
