15

C	0.0	0.0	0.0
C	-0.505323	-0.056457	-1.443271
F	1.381255	0.0	0.0
H	-1.606049	-0.090381	-1.284872
H	-0.294262	-0.933561	0.497434
N	-0.536055	1.168242	0.626134
H	-1.56284	0.964371	0.520169
H	-0.321824	1.109683	1.617202
C	-0.056057	-1.287009	-2.085564
N	0.303873	-2.266152	-2.627739
C	-0.06	1.164156	-2.249603
H	-0.400769	2.063449	-1.738457
H	-0.480612	1.137895	-3.258206
H	1.030213	1.199974	-2.326041
F	-2.815434	0.0	0.0
