15

C	0.0	0.0	0.0
C	-0.29467	0.065348	-1.51569
F	1.391445	0.0	0.0
H	0.263498	0.955078	-1.836299
H	-0.313976	-0.96447	0.414019
N	-0.507155	1.145607	0.671253
H	-0.313536	1.026351	1.661881
H	-1.540552	0.957114	0.537158
C	-1.659255	0.25794	-2.036647
N	-2.454543	0.42731	-2.891144
C	0.283974	-1.165872	-2.2296
H	-0.239927	-2.064868	-1.89579
H	1.346542	-1.274874	-2.011486
H	0.145534	-1.079556	-3.308255
F	-2.670355	0.0	0.0
