15

C	0.0	0.0	0.0
C	-0.416112	-0.354209	-1.448764
F	1.411458	0.0	0.0
H	0.529924	-0.427865	-1.999255
H	-0.267852	-0.839904	0.653143
N	-0.514248	1.255194	0.414106
H	-1.546064	1.051346	0.324921
H	-0.311153	1.360982	1.403601
C	-1.176876	0.696286	-2.132205
N	-1.689269	1.487107	-2.832414
C	-1.158096	-1.690305	-1.532032
H	-0.530457	-2.485624	-1.115774
H	-2.07062	-1.552639	-0.947021
H	-1.389039	-1.941012	-2.572729
F	-2.736478	0.0	0.0
