15

C	0.0	0.0	0.0
C	-0.517956	-0.077407	-1.434512
F	1.406811	0.0	0.0
H	-1.611471	-0.188515	-1.256645
H	-0.271258	-0.93516	0.507186
N	-0.537373	1.165885	0.619534
H	-0.314633	1.12175	1.609738
H	-1.565593	0.955818	0.519103
C	0.013421	-1.257294	-2.106659
N	0.428613	-2.197392	-2.677262
C	-0.215917	1.190435	-2.234373
H	0.860076	1.376502	-2.279768
H	-0.603515	1.10326	-3.252464
H	-0.693397	2.034326	-1.739695
F	-2.821608	0.0	0.0
