15

C	0.0	0.0	0.0
C	-0.508132	-0.134889	-1.433953
F	1.406504	0.0	0.0
H	-1.604097	-0.23013	-1.262113
H	-0.273952	-0.9136	0.543406
N	-0.533662	1.191588	0.573597
H	-1.561148	0.986236	0.470771
H	-0.323583	1.177193	1.566764
C	0.021931	-1.348315	-2.044961
N	0.440505	-2.317152	-2.562413
C	-0.179177	1.091704	-2.284896
H	-0.55571	0.966048	-3.303606
H	0.900252	1.258537	-2.325894
H	-0.647651	1.964657	-1.833713
F	-2.816297	0.0	0.0
