15

C	0.0	0.0	0.0
C	-0.310419	0.063378	-1.550684
F	1.390417	0.0	0.0
H	0.642561	-0.168697	-2.036321
H	-0.324832	-0.981982	0.351946
N	-0.570446	0.975096	0.844837
H	-1.595012	0.738859	0.738411
H	-0.429141	1.894109	0.43547
C	-0.63228	1.43259	-1.944317
N	-0.822003	2.549092	-2.256179
C	-1.366351	-0.932237	-2.03466
H	-2.301587	-0.679681	-1.518512
H	-1.05485	-1.939098	-1.728452
H	-1.44615	-0.913704	-3.127465
F	-2.862485	0.0	0.0
