15

C	0.0	0.0	0.0
C	-0.18881	0.153942	-1.560877
F	1.390744	0.0	0.0
H	0.580584	-0.505904	-1.969272
H	-0.356232	-0.9903	0.285183
N	-0.549487	0.955907	0.876284
H	-0.375293	1.886878	0.517291
H	-1.580089	0.735249	0.775289
C	0.226909	1.508389	-1.934184
N	0.535932	2.598763	-2.247583
C	-1.497487	-0.198943	-2.26771
H	-1.280561	-0.19946	-3.340455
H	-2.293771	0.481326	-2.004975
H	-1.832714	-1.185279	-1.952293
F	-2.829981	0.0	0.0
