15
Coordinates from ORCA-job run
  C   0.86739196125147     -0.14098130989121      0.25229370034778
  C   -0.36531121674596      0.50031526085423     -0.40115845903443
  Br  2.48037414740366      0.16447233905587     -0.76117697092380
  H   -0.18629821612344      1.56970342551831     -0.50292047033179
  C   0.68988765804175     -1.56019944429823      0.49967656151880
  N   0.51747841995656     -2.70872067886716      0.68720367687433
  N   1.01754903329402      0.58959405761552      1.61332308670964
  O   1.07420587232385     -0.10929313290250      2.61059912931561
  O   1.05830347524592      1.80646751333405      1.54646161603027
  N   -1.49036476380884      0.22811805220397      0.41345153579515
  H   -2.26404212589996      0.84880599749307      0.21689737502492
  H   -1.78829281772362     -0.73781825569595      0.33021762515944
  N   -0.49460731578804     -0.02465713233107     -1.82737281868043
  O   -0.20327262164414      0.74702336310523     -2.73640494125733
  O   -0.91200148978321     -1.17483005519414     -1.94309064654816
