15
Coordinates from ORCA-job run
  C   0.65830341641376      0.14677426539725      0.53947361485236
  C   -0.33384237208094     -0.07238950880155     -0.61864695567733
  Br  0.22980136248266      1.74642817108619      1.51961522967898
  H   -0.16543375892101     -1.08114291192408     -1.00298547255101
  C   2.00878456070753      0.24209780545161      0.00857887105752
  N   3.11313711764665      0.30366327417981     -0.39091749785470
  N   0.65829853096171     -1.10500411344975      1.47194588718600
  O   0.45993711857443     -0.95687614007732      2.65970628016768
  O   0.90161345266586     -2.13759772530151      0.86539413622246
  N   -0.15873794959778      0.89497534807960     -1.62316039176386
  H   -0.61496407698142      0.62720960744920     -2.48388216826255
  H   -0.49490718025715      1.80518925626168     -1.33520976677200
  N   -1.75163282174866     -0.11967865298080     -0.01301475736489
  O   -2.58201352146233      0.65510719781802     -0.46916351880051
  O   -1.92834387840330     -0.94975587318835      0.87226650988184
