15
Coordinates from ORCA-job run
  C   0.88235927670927     -0.05099447480618      0.20749505082578
  C   -0.45668009978065      0.47068059013429     -0.34476896394695
  Br  2.38539629767598      0.48481319252223     -0.87889651545499
  H   -0.42474254454394      1.55899972466424     -0.35032644385971
  C   0.87039206326811     -1.49029835106025      0.39279573131521
  N   0.78545509280504     -2.64966484244191      0.57979516256703
  N   1.04094917330243      0.62585965817034      1.59185873244648
  O   1.25946252701001     -0.10676832039920      2.54228589114934
  O   0.92050455518607      1.83905574062686      1.59345922529490
  N   -1.49526927330093     -0.03117853277617      0.46908137047885
  H   -1.65050026784683     -1.02164902774723      0.31964746243549
  H   -2.35717055907108      0.48441117885077      0.36497603390148
  N   -0.55436976819040      0.06364945351910     -1.81332305796037
  O   -0.80133125334546     -1.12244551999711     -2.02033630326092
  O   -0.40545521987762      0.94452953074023     -2.65274337593163
