15
Coordinates from ORCA-job run
  C   0.69794834301730      0.10937807027339      0.49684893061971
  C   -0.37390828674192     -0.06360727927631     -0.59637410514698
  Br  0.45480475356385      1.76737613284123      1.44302065972538
  H   -0.30702263061089     -1.09377139096267     -0.95396623858426
  C   2.01836324856703      0.07811512486919     -0.11118198327445
  N   3.09793226939234      0.03513092342550     -0.57587311009409
  N   0.65196400675483     -1.10975611124634      1.47193340223807
  O   0.76799363181506     -2.17750612323983      0.88947777992102
  O   0.54556057799449     -0.90826634248325      2.66362223183381
  N   -0.18080277023290      0.85535733903157     -1.64204717738149
  H   -0.70749243047080      0.60146593227989     -2.46583787389164
  H   -0.42245832381457      1.79883174002512     -1.36733969123489
  N   -1.75356157429715      0.02214631263596      0.08748864316588
  O   -2.54498801464881      0.84722219938416     -0.34966260375600
  O   -1.94433280028788     -0.76411652755760      1.00889113585991
