15
Coordinates from ORCA-job run
  C   -0.52368419028288     -0.03575725263681     -0.06114546788619
  C   0.91660069709401     -0.45465252910757     -0.35216208367745
  Cl  -1.53996253438342     -0.38582259509050     -1.51203089668954
  H   0.94236248508208     -1.43323131569057     -0.82716165459979
  H   1.49225095052641     -0.45281937412825      0.57457439267263
  N   -0.57410915703220      1.38242089106273      0.16287592820852
  H   -1.48727322719053      1.66295920495712      0.49671691667269
  H   0.14202371534084      1.68269801041295      0.81321692983615
  C   -1.06300845585151     -0.90144575533337      1.07346544292906
  H   -0.49840947624832     -0.69557846036635      1.98754524742670
  H   -2.11292482408976     -0.66015135735459      1.25017305143607
  H   -0.99368392955168     -1.96589596072367      0.83913528717842
  N   1.59822455542329      0.50745017632992     -1.25957727368883
  O   1.50440274892497      0.31162263688544     -2.46683221675930
  O   2.19519064223868      1.43820368078351     -0.71979360305916
