15
Coordinates from ORCA-job run
  C   -0.45969474550429      0.03958979816743      0.12063606158756
  C   0.93792721422892     -0.37843880251951     -0.31809369228925
  Cl  -1.48881933944140      0.04614828039364     -1.42536285469435
  H   0.93404488086214     -1.39367490032888     -0.70687667982333
  H   1.61916328492036     -0.28343800640417      0.53088608515467
  N   -0.45078435449301      1.28258060816539      0.79285479199684
  H   -0.02602266825328      2.01024670738102      0.23298707297907
  H   -1.38457812680043      1.55565695458462      1.07024754758964
  C   -1.04821215827715     -1.03839044039135      1.01431599375764
  H   -0.43630355925134     -1.13217446561473      1.91440472061938
  H   -1.09831824796377     -1.99634156930670      0.49683349734945
  H   -2.06146702100019     -0.75897756191876      1.30965871767124
  N   1.50417586367932      0.46968777689904     -1.40816509244841
  O   1.96487522995938     -0.10951181316359     -2.38562268305262
  O   1.49501374733473      1.68803743405653     -1.23870348639754
