15

C	0.0	0.0	0.0
C	-0.415562	0.052584	-1.480473
Cl	1.846639	0.0	0.0
H	-0.276432	1.094411	-1.812621
H	0.269577	-0.574833	-2.055358
N	-0.485078	1.158656	0.673789
H	-0.030382	1.996632	0.332806
H	-0.341444	1.091304	1.674519
N	-0.43605	-1.220814	0.582223
H	-0.686996	-1.094761	1.553776
H	-1.259448	-1.519873	0.061146
N	-1.751034	-0.488629	-1.617269
H	-2.467287	-0.000961	-1.075216
H	-2.047684	-0.508524	-2.582381
Cl	-4.60771	0.0	0.0
