15

C	0.0	0.0	0.0
C	-0.387934	-0.090203	-1.47339
Cl	1.830058	0.0	0.0
H	0.204053	0.666679	-1.998801
H	-1.447034	0.133208	-1.664844
N	-0.472524	1.21731	0.525167
H	-0.111235	1.41853	1.444685
H	-0.293275	1.999813	-0.091259
N	-0.430754	-1.129072	0.765885
H	-1.440659	-1.06326	0.922309
H	0.05008	-1.16175	1.657862
N	-0.012014	-1.408903	-2.009646
H	-0.621312	-1.600918	-2.799613
H	-0.260465	-2.075027	-1.281558
Cl	-3.883281	0.0	0.0
