15

C	0.0	0.0	0.0
C	-0.443738	-0.301364	-1.432159
Cl	1.791876	0.0	0.0
H	-0.012865	-1.268869	-1.71502
H	-1.531531	-0.403199	-1.372532
N	-0.469999	1.311576	0.360981
H	-0.252589	1.45341	1.341851
H	-1.4895	1.274916	0.276325
N	-0.435474	-0.994708	0.958092
H	-1.45673	-0.950936	0.948886
H	-0.161066	-1.917407	0.635408
N	-0.012372	0.734453	-2.379424
H	-0.748255	0.846169	-3.06733
H	0.017248	1.601905	-1.852032
Cl	-3.659115	0.0	0.0
