14

C	-0.551648	0.005062	-1.41339
C	0.0	0.0	0.0
Br	-0.080832	-1.672533	-2.340899
H	1.09943	0.0	0.0
H	-0.030062	0.772748	-1.98947
H	-0.318715	0.95463	0.441424
C	-2.058727	0.180358	-1.478
H	-2.323985	1.141592	-1.02136
H	-2.420851	0.171155	-2.508071
H	-2.546526	-0.613149	-0.912124
N	-0.590459	-1.081828	0.80235
H	-0.143056	-1.943104	0.504368
H	-0.284551	-0.940119	1.759053
Br	3.75432	0.0	0.0
