13
Coordinates from ORCA-job run
  C   -0.52918629914165      0.06722237450653     -0.40957576537392
  C   0.73471364420228     -0.45516044910328      0.28783913323086
  Br  -0.36782883309846     -0.03567959857838     -2.33496643983195
  H   0.93071765587750     -1.45324049407773     -0.10294056769007
  H   0.48236134048357     -0.55549548352282      1.35366580520757
  C   -0.80121121754350      1.44091730225973     -0.01714296314535
  N   -0.93172685314360      2.55126819474418      0.34624884812924
  N   -1.71704637239433     -0.81338405384790     -0.01360790661244
  O   -2.77649075697935     -0.25492620661102      0.23738014830765
  O   -1.49391959762756     -2.01664879691694      0.00474885540369
  N   1.83514545924286      0.43754636387814      0.00594841176773
  H   2.70700695156989     -0.06422074306174     -0.07022365801071
  H   1.92746487855236      1.15280159033122      0.71362609861769
