13
Coordinates from ORCA-job run
  C   -0.53833468892772      0.06010654116754     -0.34866837015921
  C   0.74561909213014     -0.39749431877472      0.35391760980077
  Br  -0.37723758233477     -0.18033060472050     -2.26998855074613
  H   0.55044733599791     -0.33476554660750      1.42931000786341
  H   0.90560767438047     -1.44906746435276      0.10431535344935
  C   -0.83817051953517      1.45200906552569     -0.05734011300001
  N   -1.05408387423214      2.57296294476437      0.22242075394402
  N   -1.72619346842407     -0.80193594152172      0.09253279828867
  O   -1.46374698885857     -1.96129530759934      0.38750017124901
  O   -2.82960601020037     -0.27489140978075      0.08822248322695
  N   1.82247323781859      0.49752250554676     -0.01546379007072
  H   2.41690413551323      0.70428663106772      0.77283235502689
  H   2.38532165667247      0.11189290528519     -0.75959070887302
