13
Coordinates from ORCA-job run
  C   -0.50527225160458      0.16132971220410     -0.60283309752192
  C   0.96392309672316     -0.14870855398875     -0.31549057807103
  Br  -0.91709746141371     -0.10645197034297     -2.48162339336152
  H   1.17298630005501     -1.14828653240838     -0.70007732510320
  H   1.56401010765849      0.56793231402461     -0.88238152289892
  C   -0.85233000596174      1.51750728623128     -0.21175798528387
  N   -1.05100999560845      2.63896885821392      0.07829296976680
  N   -1.37477081197906     -0.82205536650635      0.18858545833926
  O   -0.93297494521468     -1.95783702719695      0.29149563450813
  O   -2.43998294569649     -0.40245245743740      0.61520631430019
  N   1.15304770313653     -0.03137823278157      1.11420391901592
  H   1.36386462064863     -0.91841650728468      1.54550522350663
  H   1.85460658925689      0.64884847727313      1.36187438280354
