13
Coordinates from ORCA-job run
  C   -0.52912187004998      0.11802528065493     -0.42154094144462
  C   0.70134111877427     -0.40698488696049      0.34200956415983
  Br  -0.19884620628720      0.11814147431667     -2.32367466685002
  H   0.87315260082155     -1.43429193228143     -0.00246082082578
  H   0.41008208062222     -0.43884017449522      1.39659074648066
  C   -0.89579624093506      1.45842729888090      0.00186455390132
  N   -1.16814482244824      2.54655353940066      0.35269544722192
  N   -1.67442186373952     -0.84945152795282     -0.08279194906525
  O   -2.32528808608045     -0.54879814425289      0.91144176080139
  O   -1.76551033677422     -1.87098844400644     -0.74422507812439
  N   1.80810696621042      0.50011851914698      0.16045939696777
  H   2.41236326863483      0.21008805129797     -0.59422638296180
  H   2.35108339125138      0.59800094625119      1.00485836973897
