16

C	0.0	0.0	0.0
C	-0.534374	0.330613	-1.392795
Br	1.970541	0.0	0.0
H	-1.618997	0.395029	-1.238158
H	-0.276909	-1.027496	0.242975
C	-0.49391	0.955576	1.063977
H	-1.587039	0.914413	1.046929
H	-0.162791	1.969748	0.840401
H	-0.136485	0.662175	2.05452
N	-0.305567	-0.71778	-2.390501
H	-0.968329	-1.467913	-2.227974
H	0.630408	-1.0962	-2.276158
N	-0.058447	1.634201	-1.823379
H	-0.580149	1.870609	-2.65963
H	0.915039	1.547723	-2.098426
Cl	-3.813677	0.0	0.0
