16

C	0.0	0.0	0.0
C	-0.414786	0.345143	-1.449256
Br	1.97015	0.0	0.0
H	0.213975	-0.282773	-2.10181
H	-0.253593	-1.046932	0.179705
C	-0.586696	0.886485	1.069898
H	-1.676066	0.780396	1.024448
H	-0.248379	0.578724	2.061808
H	-0.325498	1.928406	0.89587
N	-0.211576	1.77142	-1.67805
H	0.776609	1.976516	-1.759565
H	-0.673367	1.991254	-2.55058
N	-1.777443	0.044725	-1.790364
H	-2.473207	0.39849	-1.132524
H	-1.930989	-0.953342	-1.835056
Cl	-4.443017	0.0	0.0
