16

C	0.0	0.0	0.0
C	-0.404813	-0.262394	-1.467667
Br	1.968331	0.0	0.0
H	0.15214	0.472651	-2.075116
H	-0.28687	-0.865746	0.599694
C	-0.542059	1.29169	0.567077
H	-0.262445	2.140223	-0.06334
H	-0.165786	1.4717	1.57574
H	-1.633009	1.210226	0.605188
N	-1.796957	-0.094512	-1.782589
H	-2.069672	0.879025	-1.77631
H	-2.430347	-0.546394	-1.125148
N	-0.067286	-1.645786	-1.798927
H	0.933983	-1.752613	-1.905745
H	-0.516254	-1.836555	-2.686381
Cl	-4.465539	0.0	0.0
