16

C	0.0	0.0	0.0
C	-0.554084	0.154865	-1.413642
Br	1.965249	0.0	0.0
H	-1.631948	0.00323	-1.274053
H	-0.25671	-1.003716	0.340114
C	-0.511565	1.041992	0.969505
H	-1.605621	0.989623	0.950561
H	-0.183223	2.04355	0.683917
H	-0.157743	0.838811	1.982455
N	-0.058097	-0.91877	-2.260411
H	0.914418	-0.731732	-2.483648
H	-0.574026	-0.858587	-3.130729
N	-0.375996	1.479241	-2.008172
H	-1.068515	2.111297	-1.622969
H	0.545712	1.842216	-1.783361
Cl	-3.859712	0.0	0.0
