15

C	-0.341969	0.011126	-1.471165
C	0.0	0.0	0.0
Cl	-0.066556	-1.609318	-2.224048
H	1.089228	0.0	0.0
H	-0.348649	0.925905	0.455368
N	-1.803318	0.376106	-1.757024
O	-2.140875	0.382458	-2.935257
O	-2.497593	0.721062	-0.808851
N	0.42304	1.044033	-2.058006
H	0.355047	1.007475	-3.067123
H	1.399014	0.958147	-1.767902
N	-0.562983	-1.10216	0.811368
O	-1.503229	-1.754454	0.361271
O	-0.073487	-1.240577	1.928514
Br	3.433045	0.0	0.0
