15

C	-0.616469	-0.00731	-1.380201
C	0.0	0.0	0.0
Cl	0.133683	1.317854	-2.299809
H	1.085932	0.0	0.0
H	-0.329035	0.910381	0.503841
N	-0.195656	-1.291789	-2.148571
O	0.778624	-1.907139	-1.746738
O	-0.888236	-1.568967	-3.125842
N	-2.021932	0.167771	-1.387351
H	-2.432392	-0.613345	-0.888388
H	-2.351496	0.151662	-2.344964
N	-0.475611	-1.126079	0.848955
O	-1.253696	-1.954726	0.360641
O	-0.070054	-1.14474	2.003001
Br	3.469114	0.0	0.0
