15

C	-0.704071	0.014156	-1.349318
C	0.0	0.0	0.0
Cl	-0.205111	1.538854	-2.13764
H	1.089446	0.0	0.0
H	-0.313972	0.888358	0.550949
N	-0.201368	-1.127449	-2.251235
O	-1.042415	-1.902831	-2.694907
O	1.001543	-1.161407	-2.445539
N	-2.126938	-0.058678	-1.326682
H	-2.491041	0.526614	-0.583036
H	-2.417643	-1.02092	-1.209065
N	-0.461996	-1.150813	0.815271
O	-0.606188	-0.970541	2.022362
O	-0.659319	-2.21841	0.230464
Br	3.452699	0.0	0.0
