12

C	0.0	0.0	0.0
C	-0.252607	-0.034161	-1.525478
Cl	1.776629	0.0	0.0
H	0.11927	-0.993066	-1.901011
H	-1.3115	0.053829	-1.737664
H	0.313071	0.774932	-1.99206
N	-0.47786	1.257945	0.647453
O	-0.578868	1.246547	1.877932
O	-0.444529	2.280198	-0.049245
C	-0.572146	-1.148616	0.686366
N	-0.624097	-2.214682	1.203363
H	-2.080762	0.0	0.0
