14

C	-0.28492	0.252036	-1.474214
C	0.0	0.0	0.0
F	-1.619993	0.68025	-1.659286
H	1.104738	0.0	0.0
H	-0.22742	-0.683985	-2.045301
N	0.593053	1.286198	-1.919832
H	1.51489	1.120102	-1.50028
H	0.685303	1.261464	-2.92726
C	-0.559227	-1.270743	0.443129
N	-0.996057	-2.302935	0.797446
N	-0.409671	1.095441	0.874117
H	0.387249	1.718752	0.947948
H	-1.162704	1.605818	0.42886
H	2.745092	0.0	0.0
