14

C	-0.291406	-0.063523	-1.508357
C	0.0	0.0	0.0
F	-0.14375	1.262793	-2.01228
H	1.097825	0.0	0.0
H	-1.329925	-0.317213	-1.756379
N	0.612386	-0.974752	-2.079247
H	1.555837	-0.79032	-1.726648
H	0.586558	-0.95695	-3.089393
C	-0.513782	-1.209886	0.635745
N	-0.955111	-2.170114	1.150044
N	-0.460505	1.190491	0.700321
H	0.262786	1.888356	0.572809
H	-1.302525	1.547128	0.26734
H	2.812606	0.0	0.0
