14

C	-0.552371	-0.013316	-1.409305
C	0.0	0.0	0.0
F	-1.977627	-0.190694	-1.328038
H	1.093299	0.0	0.0
H	-0.20201	-0.887078	-1.963598
N	-0.231295	1.185871	-2.077152
H	-0.37881	1.949113	-1.427246
H	-0.80533	1.294729	-2.899581
C	-0.447091	-1.190015	0.725694
N	-0.784493	-2.135813	1.337082
N	-0.365806	1.247386	0.677762
H	0.409793	1.491405	1.285889
H	-1.208449	1.140676	1.227904
H	2.751999	0.0	0.0
