15

C	-0.289909	-0.092148	-1.48959
C	0.0	0.0	0.0
Cl	-2.042104	-0.886044	-1.724884
H	1.094247	0.0	0.0
H	-0.331861	-0.913964	0.497191
N	-0.257724	1.170011	-2.107793
H	-0.44493	1.103074	-3.098881
H	-0.894091	1.827688	-1.674084
C	0.702728	-1.041757	-2.126547
H	0.6222	-1.028042	-3.216592
H	1.687238	-0.709166	-1.772644
H	0.531472	-2.059646	-1.773031
C	-0.604634	1.151304	0.631463
N	-1.08504	2.097129	1.138934
F	2.615895	0.0	0.0
