15

C	-0.074151	0.009255	-1.524396
C	0.0	0.0	0.0
Cl	-1.769153	0.337345	-2.150245
H	1.096005	0.0	0.0
H	-0.373105	0.944562	0.398783
N	0.785132	1.102726	-1.921226
H	0.971216	1.032706	-2.916332
H	1.666338	0.936469	-1.405396
C	0.373198	-1.336032	-2.076355
H	-0.288855	-2.151196	-1.777001
H	1.375364	-1.492939	-1.665249
H	0.419755	-1.298443	-3.16857
C	-0.614282	-1.136839	0.642727
N	-1.115304	-2.05977	1.1716
F	2.64805	0.0	0.0
