12

C	0.0	0.0	0.0
C	-0.468619	0.150095	-1.447674
Cl	1.787215	0.0	0.0
H	-0.006066	-0.650241	-2.036847
H	-0.376671	0.843855	0.579214
H	-1.554654	0.006183	-1.392498
C	-0.428324	-1.263823	0.607163
N	-0.628801	-2.304513	1.115255
N	-0.124231	1.487634	-1.932474
H	0.514488	1.44793	-2.715271
H	-0.970899	1.967365	-2.216198
H	-2.87812	0.0	0.0
