12

C	0.0	0.0	0.0
C	-0.455713	-0.053238	-1.451107
Cl	1.791408	0.0	0.0
H	-0.110701	-1.000732	-1.890815
H	-0.359649	0.923235	0.451664
H	-1.551719	-0.048245	-1.358668
C	-0.434298	-1.148905	0.79792
N	-0.580108	-2.077925	1.503744
N	0.017671	1.138483	-2.152004
H	0.939202	0.982153	-2.539825
H	-0.616184	1.34253	-2.912806
H	-2.890599	0.0	0.0
