12

C	0.0	0.0	0.0
C	-0.197381	0.063327	-1.571527
Cl	1.786177	0.0	0.0
H	0.554347	0.788805	-1.890455
H	-0.358901	0.902494	0.486225
H	0.168165	-0.918494	-1.909707
C	-0.519794	-1.177729	0.677979
N	-0.609614	-2.184498	1.287857
N	-1.470367	0.460176	-2.157936
H	-1.560953	-0.03565	-3.041445
H	-2.194654	0.166314	-1.473767
H	-2.50775	0.0	0.0
