12

C	0.0	0.0	0.0
C	-0.50189	0.001617	-1.433594
Cl	1.791391	0.0	0.0
H	-1.59712	0.002066	-1.294057
H	-0.349955	0.905412	0.493986
H	-0.182242	-0.929926	-1.923556
C	-0.428195	-1.180873	0.756834
N	-0.551407	-2.175067	1.372059
N	-0.057026	1.218824	-2.105136
H	-0.744976	1.479089	-2.799307
H	0.826993	1.067945	-2.574547
H	-2.976735	0.0	0.0
