12

C	0.0	0.0	0.0
C	-0.530976	-0.092085	-1.42949
Cl	1.782743	0.0	0.0
H	0.157027	0.455542	-2.083725
H	-0.334851	0.937926	0.44477
H	-1.516613	0.383867	-1.38228
C	-0.431625	-1.086807	0.880832
N	-0.549997	-1.944755	1.675306
N	-0.617658	-1.491483	-1.840648
H	-1.491817	-1.818109	-1.428883
H	-0.745282	-1.523673	-2.845403
H	-2.875801	0.0	0.0
