15

C	0.0	0.0	0.0
C	-0.301719	-0.051251	-1.523231
Cl	1.78442	0.0	0.0
H	0.202057	0.813689	-1.960615
H	-0.342571	0.974534	0.349047
C	-0.526717	-1.110624	0.877992
H	-0.119411	-2.073989	0.577096
H	-0.236462	-0.90614	1.911691
H	-1.616465	-1.109237	0.802732
C	-1.640804	-0.095827	-2.12809
N	-2.377412	-0.119096	-3.049025
N	0.419087	-1.226321	-2.17055
O	1.236653	-0.957498	-3.046158
O	0.110401	-2.351839	-1.79605
Cl	-3.57536	0.0	0.0
