15

C	0.0	0.0	0.0
C	-0.592943	-0.150186	-1.38635
Cl	1.78204	0.0	0.0
H	-1.697374	-0.094526	-1.222623
H	-0.319416	0.971216	0.374473
C	-0.475002	-1.11812	0.913174
H	-1.565892	-1.118807	0.930451
H	-0.100355	-2.0823	0.562369
H	-0.093881	-0.947124	1.921655
C	-0.226425	-1.397512	-2.040061
N	0.050859	-2.434192	-2.517181
N	-0.240716	1.014891	-2.274582
O	-0.076319	0.79467	-3.471438
O	-0.197438	2.115992	-1.737927
Cl	-3.581003	0.0	0.0
