15

C	0.0	0.0	0.0
C	-0.584127	-0.164384	-1.390381
Cl	1.781865	0.0	0.0
H	-1.688154	-0.096932	-1.239507
H	-0.318366	0.977677	0.358687
C	-0.484669	-1.101812	0.925676
H	-1.575521	-1.083326	0.947678
H	-0.094526	-0.929305	1.930161
H	-0.129332	-2.075122	0.580541
C	-0.223742	-1.42468	-2.023403
N	0.034384	-2.469064	-2.494229
N	-0.206138	0.986176	-2.287127
O	0.029655	0.745545	-3.467546
O	-0.207833	2.097404	-1.771491
Cl	-3.598484	0.0	0.0
