15

C	0.0	0.0	0.0
C	-0.649657	0.315358	-1.327284
Cl	1.778157	0.0	0.0
H	-1.749023	0.289737	-1.099168
H	-0.306798	0.786132	0.688515
C	-0.469098	-1.356684	0.506478
H	-1.559025	-1.368541	0.55043
H	-0.110468	-2.153967	-0.149021
H	-0.062679	-1.525481	1.505189
C	-0.33313	-0.631842	-2.38535
N	-0.114329	-1.408077	-3.239507
N	-0.380529	1.713384	-1.816988
O	0.073573	2.522754	-1.014523
O	-0.701926	1.957635	-2.975513
Cl	-3.608611	0.0	0.0
