15

C	0.0	0.0	0.0
C	-0.326118	0.013255	-1.519148
Cl	1.784348	0.0	0.0
H	0.422597	0.650643	-1.989978
H	-0.338696	0.956758	0.398227
C	-0.54126	-1.148825	0.815497
H	-0.11461	-2.098504	0.492345
H	-1.628461	-1.157753	0.704114
H	-0.285371	-0.986471	1.865084
C	-1.604862	0.489912	-2.058748
N	-2.295528	0.995308	-2.867058
N	-0.048917	-1.344366	-2.128249
O	-0.856393	-2.239737	-1.910318
O	0.977155	-1.444755	-2.801077
Cl	-3.599258	0.0	0.0
