15

C	0.0	0.0	0.0
C	-0.298684	0.018162	-1.524267
Cl	1.784531	0.0	0.0
H	0.202469	0.903949	-1.920332
H	-0.339136	0.960751	0.388775
C	-0.545705	-1.140565	0.824745
H	-1.634837	-1.119582	0.736342
H	-0.148776	-2.096198	0.488225
H	-0.267967	-0.982032	1.869752
C	-1.636953	-0.004579	-2.129111
N	-2.389763	-0.006392	-3.035921
N	0.427114	-1.122119	-2.225268
O	1.231952	-0.808995	-3.097139
O	0.134779	-2.264563	-1.8932
Cl	-3.622308	0.0	0.0
