16
Coordinates from ORCA-job run
  C   -0.71441772006651      0.29469734726913      0.36808455769000
  C   0.74972234067191     -0.13997543385074      0.41947380147247
  F   -1.02585269460927      0.86373239758219      1.56635440058027
  H   0.98327378509927     -0.59523621939385      1.37756483037647
  N   -1.56866544975294     -1.01305778875254      0.38913046024539
  O   -2.68009637846653     -0.93499597855228     -0.11460454820847
  O   -1.07889105888428     -1.97851263094833      0.96561518214770
  N   -1.01385447799202      1.17435857609423     -0.65852936160188
  H   -0.74744802431988      0.80383014565193     -1.56112631492699
  H   -1.99341813242205      1.42975989798682     -0.64706627815222
  N   1.61870987209324      1.07696309411019      0.25043117516751
  O   1.78942663248864      1.72888280381161      1.27076846157080
  O   2.03654763564010      1.31232800398031     -0.87515032039611
  N   1.11409929235687     -1.11026841817291     -0.65365742218379
  O   0.39549282488516     -1.15590900172473     -1.64874110165117
  O   2.13337155327830     -1.75659679509103     -0.44954752212999
