16
Coordinates from ORCA-job run
  C   -0.48207816888475     -0.11443692300638     -0.30254322044006
  C   0.84243415314049      0.31430277289805      0.33941522002018
  F   -0.53026892227399      0.36954972852870     -1.56722180492776
  H   0.75177529466035      0.23416571622204      1.42601160325054
  N   -1.62375484558641      0.52177506016773      0.49001146409886
  O   -1.58418777510786      0.31742020326515      1.69781229172141
  O   -2.49006099599370      1.10150357043736     -0.14067513200716
  C   -0.71340685165819     -1.60425528085828     -0.29995856164637
  H   0.02780585066036     -2.08925346864332     -0.93524162947402
  H   -1.70806302945152     -1.79810358783016     -0.70595292179244
  H   -0.65254395923504     -2.00538073908253      0.71174350396388
  N   1.08202307891416      1.78871497583967      0.04982023019069
  O   0.15301152479546      2.52378344968850      0.35677256565246
  O   2.15776146383301      2.11137095996573     -0.43078577315551
  C   1.95438873562348     -0.48391411126124     -0.15360166026121
  N   2.81516444656415     -1.18624232633102     -0.53460617519349
