16
Coordinates from ORCA-job run
  C   -0.47924988206809     -0.08473790691465     -0.31767789214894
  C   0.84265311273294      0.27309698951530      0.37110480946560
  F   -0.49391521740668      0.47463576308267     -1.55169512499832
  H   0.72950588684185      0.13122719698133      1.44928604765456
  N   -1.62039749421828      0.53119168978433      0.49285089961851
  O   -1.60669332886346      0.25542206229655      1.68689829228970
  O   -2.46132987709592      1.16815546416455     -0.11635688143463
  C   -0.74489922358812     -1.56595336521155     -0.40769946442342
  H   -0.00370707020007     -2.02997564936119     -1.05865354622853
  H   -1.73632616151672     -1.71123343420082     -0.84112233540370
  H   -0.71137371870653     -2.02751179232958      0.57925493496995
  N   1.12302681404690      1.75577276654374      0.17496206190826
  O   2.21705111669299      2.07906765866495     -0.26208182469881
  O   0.20470868427945      2.49446582578472      0.50446671030437
  C   1.94474358123808     -0.52191641639347     -0.14836955167796
  N   2.79620277783165     -1.22170685240688     -0.55416713519665
