16
Coordinates from ORCA-job run
  C   -0.44197667345790     -0.40170898615314     -0.33637078268088
  C   0.80013928728092      0.49561215869157     -0.44465937274089
  F   -0.24838099929532     -1.46522939250132     -1.17293199329871
  H   0.96279300537309      0.75138829117177     -1.49077883863122
  N   -1.60613790246062      0.38389216789797     -0.96437761440973
  O   -2.73484762814431      0.06756070124699     -0.61134136251990
  O   -1.31432261345198      1.21108461765453     -1.82379558782108
  C   -0.80375552440133     -0.87040837455054      1.03987945333097
  H   0.01803681588057     -1.45636221499091      1.45024955647733
  H   -1.00107934837373     -0.02404951629818      1.69873765107301
  H   -1.69654447752866     -1.48926126686808      0.97526389167947
  N   2.00755898358070     -0.30974149058905     -0.01350147069639
  O   2.23329309643564     -0.38166066693532      1.18936736292983
  O   2.63862325601433     -0.83819480148483     -0.92070414223375
  C   0.66524337056915      1.68441483592857      0.38101680479638
  N   0.52235735197945      2.64166393777997      1.04594644474555
