16
Coordinates from ORCA-job run
  C   -0.53158691307450     -0.12083733975084     -0.20086698464802
  C   0.88960469113135      0.32304013029625      0.16453415361500
  F   -0.83478455258525      0.35648239695889     -1.43206836919471
  H   1.01596529702913      0.24879989080709      1.24793560376562
  N   -1.49925830710724      0.51007503777877      0.80106053762445
  O   -1.21890095836282      0.31196146355670      1.97759196710454
  O   -2.47832532540576      1.08011139178550      0.35308796073536
  C   -0.74364418112641     -1.61242425216190     -0.14750615089101
  H   -1.79664895077885     -1.81696477262365     -0.35004001442686
  H   -0.48124031864923     -2.00762260721237      0.83375956708589
  H   -0.13703186848434     -2.09402778501340     -0.91456675312812
  N   1.05319322745071      1.79803350575767     -0.17176411868232
  O   2.00874503040083      2.12683067512801     -0.85825863944411
  O   0.19760217555509      2.52732352914322      0.31161288757566
  C   1.88952800506297     -0.46772311263230     -0.53636186888190
  N   2.66478294894432     -1.16405815181765     -1.07814977820948
