12
Coordinates from ORCA-job run
  C   -0.70883829686440     -0.10702591162116     -0.31473438253095
  C   0.67346111511565      0.23932638255479      0.20179844659658
  F   -0.86501147638578      0.43688956643029     -1.57855854838097
  H   0.78149195023006      1.31747873870593      0.06258723847251
  H   -0.79716883852875     -1.19371731794280     -0.45614790076293
  H   0.71055404949855      0.04764260014432      1.28332526486880
  N   -1.72139548453747      0.48848253074547      0.51962895780596
  H   -2.63880460452919      0.26561292539233      0.15392869692698
  H   -1.66025603176724      0.12577552107582      1.46224332032122
  N   1.69669272541364     -0.48424720519323     -0.54603179552495
  H   2.05993954467166     -1.25919273108992     -0.01010182227919
  H   2.46933534768328      0.12097490079816     -0.77893747551305
