12
Coordinates from ORCA-job run
  C   -0.69784648902512     -0.35174895384685     -0.15723010640824
  C   0.62602269510468      0.27072458571249      0.22994369846451
  F   -0.57120572437593     -0.70951523681670     -1.51507760606506
  H   0.58797199893717      0.51584237187785      1.29495279069314
  H   -0.84616034493069     -1.29357358893325      0.37552004366222
  H   0.71674743121326      1.21556539008458     -0.33261354827620
  N   -1.80846887943927      0.51011053274498      0.01215330928047
  H   -2.48202663412647      0.19428107721498      0.68787165492848
  H   -1.57027823383433      1.48016275745238      0.14347097611657
  N   1.70817108182839     -0.67554500687962     -0.00218093844620
  H   1.74129200552595     -0.89018720847630     -0.99035589869172
  H   2.59578109312236     -0.26411672013453      0.25554562474204
