12
Coordinates from ORCA-job run
  C   -0.66986532826870     -0.23322244956415      0.49216195130354
  C   0.71047396566796     -0.55971059956853     -0.04664141558396
  F   -1.34606782503041     -1.47384781238483      0.58999002723431
  H   0.56626575106888     -1.20736996889035     -0.91812091560566
  H   -0.62846916970956      0.13806052516427      1.52070120044741
  H   1.21987026168329     -1.16126264449535      0.71799548223376
  N   -1.34894782840098      0.70779588402433     -0.30839026410734
  H   -2.30918289206824      0.82206691394616     -0.01486024694224
  H   -1.30632862083744      0.46929564357809     -1.28965190292323
  N   1.42436723675330      0.64585852469455     -0.45723986363779
  H   1.26819944517354      1.39075805875889      0.20951428550454
  H   2.41868500396836      0.46357792473692     -0.49545833792334
