12
Coordinates from ORCA-job run
  C   -0.74953383059972     -0.57968561746395      0.04237428567094
  C   0.66686365195346     -0.27670453596641      0.49953695075496
  F   -0.60748745154914     -1.39920465319368     -1.10262400216246
  H   1.20893725618759     -1.22528662965151      0.61021364926668
  H   -1.27509418171756     -1.19880537657642      0.77440759831948
  H   0.61575311922411      0.20821528959516      1.47844715710608
  N   -1.49137951052565      0.57567169862376     -0.27836738522240
  H   -0.90388669112932      1.38850178845763     -0.38835039432943
  H   -2.30068449950657      0.73342260567368      0.29541359834669
  N   1.27129877299722      0.65533988949053     -0.44905210352033
  H   1.36995524271672      0.19041690422667     -1.34327332863130
  H   2.19425812194887      0.92811863678453     -0.13872602559890
