12
Coordinates from ORCA-job run
  C   -0.67914832856519     -0.41162611516366      0.06998461238506
  C   0.62404336507882      0.35711728617881      0.03451907802337
  F   -0.69056339176324     -1.20224698520653     -1.09727184842378
  H   0.69687461642463      0.94657126716569      0.95266732443996
  H   -0.67838265369351     -1.12280585131020      0.89885556284122
  H   0.56355642446408      1.05838641028185     -0.81515620805612
  N   -1.83035244506659      0.41247344268746      0.10385392262127
  H   -2.38649464284808      0.31758234997394      0.93567469284083
  H   -1.65976400731031      1.37858631848485     -0.12576068618998
  N   1.74635083717072     -0.56900465726300     -0.02577973224292
  H   1.67529122900904     -1.10468757087731     -0.88119378123953
  H   2.62058899709962     -0.06034589495190     -0.05039293699938
