12
Coordinates from ORCA-job run
  C   -0.76232258514110     -0.47369931212037      0.34486892811105
  C   0.74992822756923     -0.34303230757027      0.39115614311629
  F   -1.07182345917676     -1.39480690422744     -0.68838276783477
  H   1.01795039882039      0.11259339942326      1.34925881521993
  H   -1.15169349142447     -0.93026025739268      1.25900470969898
  H   1.17082624650054     -1.35147012025454      0.36858933465234
  N   -1.35848337027205      0.78734297560068      0.13014469716468
  H   -2.36348304162733      0.70965131268653      0.05403206239763
  H   -0.97751543413130      1.16736487532033     -0.72867850603180
  N   1.21389151968558      0.46095008183028     -0.74084849384659
  H   1.86575653062508     -0.04889988890479     -1.31693915907925
  H   1.66696845857218      1.30426614560900     -0.42220576356847
