12
Coordinates from ORCA-job run
  C   -0.71285133650670     -0.54110150416638      0.17449774079347
  C   0.76490070080504     -0.32309996927549      0.48309539761152
  F   -0.74234553807063     -1.41421530027305     -0.92382212764721
  H   1.21265806167789     -1.29609683600985      0.70450623132859
  H   -1.20650371957516     -1.06551587238813      0.99835195000470
  H   0.85074079937651      0.29140567784807      1.38425442098256
  N   -1.46931835625069      0.62114904691357     -0.15013339926883
  H   -1.98868651165806      0.98208704972321      0.63401468102126
  H   -0.90633579609948      1.34605985015183     -0.56973654290815
  N   1.53671842211157      0.29796736674834     -0.58393904695338
  H   1.34911808779243     -0.17609265421697     -1.45807169096643
  H   1.31090518639728      1.27745314494486     -0.69301761399811
