18

C	0.0	0.0	0.0
C	-0.533514	-0.024731	-1.445952
Cl	1.815815	0.0	0.0
H	-1.609144	0.16785	-1.29536
N	-0.319694	1.407226	0.638326
O	-0.451381	2.389364	-0.080299
O	-0.380078	1.417104	1.861299
N	-0.575876	-1.024547	0.726141
H	-1.626476	-0.81058	0.571044
H	-0.327924	-0.925935	1.704019
N	-0.448641	-1.4518	-1.916985
O	0.669309	-1.905901	-2.16475
O	-1.501294	-2.06159	-2.088478
C	0.152109	0.821556	-2.499872
H	-0.353358	0.657594	-3.45618
H	1.199332	0.541524	-2.608551
H	0.076402	1.873583	-2.241109
F	-2.782881	0.0	0.0
