18

C	0.076498	0.003225	-0.025736
C	-0.463176	-0.001798	-1.478592
F	1.401362	-0.50009	-0.051077
H	0.362175	0.415255	-2.076566
C	0.209061	1.406965	0.41901
N	0.336693	2.524497	0.758114
C	-0.745695	-0.802575	0.954594
H	-1.824018	-0.685174	0.732621
H	-0.4903	-0.540549	1.98473
H	-0.504732	-1.855748	0.792691
N	-1.662451	0.786954	-1.671787
H	-1.539107	1.725369	-1.308697
H	-2.436442	0.301266	-1.162138
C	-0.767308	-1.428609	-1.921143
H	0.045548	-2.116849	-1.673177
H	-1.702879	-1.719947	-1.434878
H	-0.919794	-1.433677	-3.003351
F	-3.301927	-0.795241	-0.292085
