18

C	-0.535738	0.00028	-1.435008
C	0.0	0.0	0.0
Br	0.241106	1.50295	-2.440263
H	1.095124	0.0	0.0
N	-0.004234	-1.248988	-2.13368
O	1.191189	-1.475152	-2.058238
O	-0.82566	-1.943527	-2.73652
C	-2.036035	0.05464	-1.566028
H	-2.391733	0.948777	-1.057418
H	-2.341263	0.064078	-2.611851
H	-2.451401	-0.832237	-1.085672
N	-0.459336	-1.239101	0.608281
H	0.310345	-1.610457	1.149858
H	-1.251216	-1.055635	1.213817
N	-0.550863	1.165012	0.723
H	-0.040811	1.166073	1.603504
H	-0.209847	1.993545	0.240692
F	2.657609	0.0	0.0
