18

C	-0.365274	-0.101077	-1.474483
C	0.0	0.0	0.0
Br	-2.257254	-0.639391	-1.742187
H	1.094028	0.0	0.0
N	-0.199252	1.284143	-2.08818
O	-1.170678	2.011827	-2.249196
O	0.961261	1.587949	-2.343166
C	0.566253	-1.07463	-2.162858
H	0.32545	-2.075396	-1.80529
H	1.575829	-0.809956	-1.821082
H	0.473111	-1.030373	-3.251221
N	-0.340082	-1.267167	0.642648
H	-1.25255	-1.221194	1.082016
H	0.364928	-1.439423	1.348669
N	-0.495152	1.226667	0.585496
H	-1.448964	1.1268	0.916222
H	0.105198	1.471833	1.361388
F	2.645042	0.0	0.0
