18

C	-0.235068	-0.0706	-1.504431
C	0.0	0.0	0.0
Br	-2.174285	-0.254533	-1.93755
H	1.101618	0.0	0.0
N	0.189891	1.209395	-2.232687
O	0.629024	2.147445	-1.573858
O	0.098344	1.206191	-3.457869
C	0.579828	-1.19286	-2.104808
H	1.600065	-1.008915	-1.73675
H	0.222296	-2.132515	-1.691168
H	0.524453	-1.19287	-3.192673
N	-0.411817	-1.288652	0.555671
H	0.278258	-1.506041	1.266633
H	-1.298277	-1.156793	1.032108
N	-0.570096	1.119563	0.721476
H	-1.478368	1.362464	0.333609
H	0.041375	1.913514	0.591286
F	2.657418	0.0	0.0
