18

C	-0.32084	0.100496	-1.498131
C	0.0	0.0	0.0
Br	0.254852	-1.52764	-2.430778
H	1.099684	0.0	0.0
N	-1.814309	0.226554	-1.713876
O	-2.510007	-0.784065	-1.615976
O	-2.25463	1.366012	-1.876407
C	0.451022	1.261813	-2.077927
H	0.350852	1.313439	-3.163915
H	1.489889	1.093805	-1.773177
H	0.080993	2.178779	-1.62399
N	-0.633888	-1.145647	0.659975
H	-0.64315	-1.938416	0.027746
H	-0.006941	-1.397892	1.420672
N	-0.427708	1.238784	0.640335
H	0.343046	1.57106	1.204249
H	-1.221911	1.034162	1.233735
F	2.674236	0.0	0.0
