18

C	-0.273745	-0.04834	-1.502735
C	0.0	0.0	0.0
Br	-2.212824	-0.200782	-1.923851
H	1.104478	0.0	0.0
N	0.160173	1.263793	-2.153678
O	-0.423922	2.295293	-1.826687
O	1.087979	1.219157	-2.95778
C	0.489812	-1.191882	-2.120301
H	0.089418	-2.113176	-1.703842
H	1.524381	-1.059366	-1.787217
H	0.420361	-1.19506	-3.207777
N	-0.425756	-1.284987	0.566366
H	-1.155026	-1.07824	1.241277
H	0.374082	-1.624156	1.089432
N	-0.530542	1.133187	0.731468
H	-1.316614	1.548005	0.244924
H	0.194191	1.835776	0.79038
F	2.644266	0.0	0.0
