18

C	-0.269575	-0.124138	-1.512926
C	0.0	0.0	0.0
Br	-0.07924	-1.981462	-2.127579
H	1.109907	0.0	0.0
N	-1.711499	0.239809	-1.824143
O	-2.58151	-0.328156	-1.162763
O	-1.937032	1.094093	-2.675549
C	0.713497	0.736152	-2.268161
H	0.493828	1.778182	-2.030379
H	1.698917	0.483683	-1.855296
H	0.655781	0.58498	-3.346363
N	-0.516458	-1.024493	0.879592
H	-1.357437	-1.440904	0.504869
H	0.189005	-1.740393	0.989605
N	-0.469626	1.347658	0.351224
H	-1.271526	1.241868	0.962845
H	0.273102	1.768772	0.89783
F	2.691036	0.0	0.0
