19

C	-0.352402	2e-05	-1.481275
C	-0.0183	-0.110236	0.01226
Cl	0.20691	-1.492552	-2.294034
H	1.06258	-0.325523	0.026755
N	-1.875066	0.06524	-1.633004
O	-2.368418	1.163215	-1.377177
O	-2.510626	-0.933191	-1.940191
C	0.289434	1.187232	-2.161535
H	-0.159589	2.108422	-1.795113
H	1.3541	1.186488	-1.911071
H	0.150445	1.122114	-3.242876
N	-0.857036	-1.157704	0.605907
H	-0.60065	-2.055168	0.208624
H	-0.634855	-1.201338	1.593883
C	-0.209998	1.186323	0.782121
H	0.480438	1.945795	0.419951
H	0.064152	0.999727	1.824909
H	-1.243972	1.531998	0.742576
Cl	3.302132	1.073969	-0.133076
