19

C	-0.459357	-0.083443	-1.451689
C	-0.013816	-0.154084	0.00915
Cl	0.146051	-1.523684	-2.318929
H	1.076088	-0.206449	-0.07411
N	-1.982393	-0.131308	-1.607006
O	-2.674115	-0.194433	-0.590863
O	-2.429945	-0.05819	-2.746761
C	0.027215	1.16441	-2.15893
H	-0.529331	2.032939	-1.797687
H	1.085182	1.306112	-1.919111
H	-0.124123	1.070331	-3.233333
N	-0.488478	-1.377597	0.649991
H	-1.373026	-1.197763	1.106809
H	0.18614	-1.646121	1.354629
C	-0.300086	1.133074	0.785089
H	0.273888	1.965458	0.379773
H	-1.367239	1.367128	0.816591
H	0.05683	0.985745	1.807348
Cl	3.120368	1.397956	-0.227361
