19

C	-0.342844	-0.037669	-1.478002
C	-0.016763	-0.105778	0.019937
Cl	0.202229	-1.561344	-2.241745
H	1.052424	-0.335755	0.047605
N	-1.864063	0.040005	-1.638738
O	-2.345713	1.152631	-1.427843
O	-2.509769	-0.961574	-1.912926
C	0.316048	1.120163	-2.19146
H	1.379705	1.113896	-1.93662
H	0.179984	1.02364	-3.270839
H	-0.123156	2.057558	-1.855416
N	-0.874793	-1.120421	0.642634
H	-0.638915	-2.032712	0.26683
H	-0.649517	-1.144315	1.630583
C	-0.19278	1.218616	0.745597
H	-1.217455	1.58642	0.676567
H	0.057639	1.059694	1.79895
H	0.522042	1.949386	0.371546
Cl	3.323351	1.025957	-0.167618
