19

C	-0.363668	0.024309	-1.505663
C	-0.014001	-0.070111	0.007204
Cl	0.089279	-1.478994	-2.354484
H	1.068204	0.098616	0.034084
N	-1.880401	0.131598	-1.614519
O	-2.354112	1.213706	-1.955693
O	-2.548712	-0.838444	-1.258124
C	0.312381	1.181543	-2.199265
H	1.389611	1.059357	-2.059895
H	0.056226	1.196515	-3.259812
H	0.011486	2.12726	-1.752505
N	-0.292726	-1.3363	0.659846
H	-1.213498	-1.668132	0.396024
H	0.385087	-2.02212	0.353299
C	-0.709028	1.045168	0.782697
H	-0.296548	1.044304	1.791596
H	-0.54735	2.030805	0.34493
H	-1.786795	0.862812	0.857554
Cl	3.404836	0.740071	-0.418183
