19

C	-0.51807	-0.027234	-1.544554
C	0.163775	0.019397	-0.164925
Cl	-2.259836	-0.355885	-1.37435
H	1.232684	0.16616	-0.367355
N	-0.343171	1.347694	-2.181563
O	-1.294602	2.110932	-2.29562
O	0.814983	1.607717	-2.503235
C	0.091517	-1.065642	-2.460385
H	1.151709	-0.850182	-2.591956
H	-0.018342	-2.030551	-1.969951
H	-0.409419	-1.069568	-3.431293
N	0.035393	-1.293926	0.443964
H	-0.806674	-1.310956	1.009976
H	0.831095	-1.372788	1.084498
C	-0.306688	1.17468	0.710692
H	-0.138839	2.151726	0.248002
H	0.279192	1.125542	1.629992
H	-1.370993	1.079916	0.946136
Cl	2.648537	-0.569193	2.230025
