15

C	-0.520566	0.036382	-1.433736
C	0.0	0.0	0.0
F	-0.147804	-1.165175	-2.030653
H	1.091913	0.0	0.0
H	-1.615694	0.053375	-1.425269
C	0.075916	1.194824	-2.198768
H	-0.282708	2.14694	-1.798574
H	1.165493	1.157575	-2.120089
H	-0.220469	1.123743	-3.247242
N	-0.531631	-1.252286	0.653209
O	-1.758707	-1.36411	0.684129
O	0.276048	-2.062457	1.087785
C	-0.512642	1.145454	0.74179
N	-0.924677	2.088562	1.307641
Cl	3.271194	0.0	0.0
