15

C	-0.491241	0.07794	-1.447959
C	0.0	0.0	0.0
F	-0.20107	-1.146507	-2.040642
H	1.091864	0.0	0.0
H	-1.580388	0.182323	-1.466674
C	0.22462	1.17725	-2.194227
H	-0.059174	1.145144	-3.248347
H	1.302508	1.034183	-2.095717
H	-0.041752	2.155825	-1.789134
N	-0.55451	-1.259118	0.606704
O	0.231572	-2.140814	0.92227
O	-1.781592	-1.313559	0.705195
C	-0.510177	1.138332	0.752586
N	-0.922582	2.080341	1.319981
Cl	3.270978	0.0	0.0
