15

C	-0.529598	0.032037	-1.430362
C	0.0	0.0	0.0
F	-0.14501	-1.162111	-2.031843
H	1.091895	0.0	0.0
H	-1.623745	0.033484	-1.413927
C	0.042697	1.199593	-2.198034
H	1.132337	1.181477	-2.127995
H	-0.329124	2.14368	-1.792822
H	-0.261034	1.125659	-3.244204
N	-0.524866	-1.251285	0.660324
O	0.287873	-2.056612	1.09233
O	-1.751089	-1.368594	0.699139
C	-0.51249	1.143852	0.743546
N	-0.925232	2.085836	1.31083
Cl	3.267895	0.0	0.0
