12

C	-0.398843	0.152612	-1.483167
C	0.0	0.0	0.0
Cl	-0.478112	1.917708	-1.854766
H	1.092571	0.0	0.0
H	-1.405358	-0.223729	-1.669973
H	-0.382533	0.797572	0.638064
N	0.509546	-0.485176	-2.389999
H	0.358143	-1.485331	-2.369319
H	1.466258	-0.306363	-2.087534
C	-0.479169	-1.290707	0.482949
N	-0.923699	-2.321434	0.830136
Br	3.520909	0.0	0.0
