12

C	-0.401862	-0.130052	-1.466377
C	0.0	0.0	0.0
Cl	-0.200746	1.5126	-2.297826
H	1.093881	0.0	0.0
H	-1.465618	-0.33404	-1.59826
H	-0.308274	-0.922784	0.502218
N	0.386727	-1.15909	-2.029944
H	1.372534	-1.0019	-1.826304
H	0.25034	-1.23777	-3.028232
C	-0.581603	1.133586	0.698747
N	-1.089142	2.012073	1.288877
Br	3.514675	0.0	0.0
