12

C	-0.539227	0.03509	-1.436348
C	0.0	0.0	0.0
Cl	-0.137444	-1.532501	-2.20245
H	1.092948	0.0	0.0
H	0.004456	0.796238	-1.998687
H	-0.345527	-0.906261	0.507413
N	-1.957322	0.271377	-1.594837
H	-2.472213	-0.377314	-1.008699
H	-2.164519	1.210946	-1.272982
C	-0.49318	1.170079	0.720196
N	-0.91744	2.135481	1.237568
Br	3.523481	0.0	0.0
