12

C	-0.308712	0.013193	-1.496823
C	0.0	0.0	0.0
Cl	-2.091439	-0.057952	-1.782833
H	1.098469	0.0	0.0
H	0.097192	-0.904622	-1.924076
H	-0.368948	-0.904719	0.488173
N	0.251177	1.12776	-2.213095
H	-0.04506	1.992552	-1.771454
H	1.262747	1.063535	-2.106963
C	-0.510886	1.185158	0.67305
N	-0.940127	2.154438	1.177929
Br	3.483349	0.0	0.0
