16

C	-0.514328	0.018815	-1.450429
C	0.0	0.0	0.0
F	-0.072119	-1.181554	-1.997262
H	1.094137	0.0	0.0
C	-2.027653	0.041136	-1.576749
H	-2.43544	0.978116	-1.198984
H	-2.442308	-0.801316	-1.019138
H	-2.293592	-0.067203	-2.629692
C	0.084523	1.106544	-2.241949
N	0.465868	1.93432	-2.982393
C	-0.492224	-1.185788	0.684958
N	-0.915528	-2.150333	1.20533
N	-0.414096	1.212437	0.77393
O	-0.707614	2.219777	0.132033
O	-0.3767	1.131925	1.994715
Cl	3.106667	0.0	0.0
