16

C	-0.428694	-0.027352	-1.479431
C	0.0	0.0	0.0
F	-0.083805	1.193344	-2.033852
H	1.092206	0.0	0.0
C	0.322156	-1.126765	-2.204378
H	1.390228	-0.977377	-2.026064
H	0.099874	-1.063279	-3.271235
H	0.024514	-2.108377	-1.832012
C	-1.891056	-0.171043	-1.632255
N	-3.043076	-0.316795	-1.809289
C	-0.50558	-1.174593	0.692634
N	-0.886404	-2.15302	1.219412
N	-0.53672	1.244442	0.645493
O	-1.676227	1.183788	1.110352
O	0.182029	2.234506	0.615839
Cl	3.202277	0.0	0.0
