16

C	-0.429246	-0.063689	-1.477789
C	0.0	0.0	0.0
F	-0.091739	1.147719	-2.058152
H	1.092187	0.0	0.0
C	0.328691	-1.173654	-2.17877
H	0.104599	-1.136216	-3.246429
H	1.395729	-1.012762	-2.005514
H	0.038762	-2.148729	-1.78358
C	-1.890531	-0.220098	-1.628575
N	-3.040689	-0.376464	-1.807864
C	-0.505859	-1.156045	0.722925
N	-0.886873	-2.121535	1.273016
N	-0.537976	1.260376	0.613186
O	-1.687181	1.215907	1.056216
O	0.188918	2.244269	0.581713
Cl	3.205728	0.0	0.0
