16

C	-0.432256	-0.023484	-1.476853
C	0.0	0.0	0.0
F	-0.064889	1.193802	-2.026985
H	1.092201	0.0	0.0
C	0.298571	-1.13558	-2.202994
H	1.369207	-1.008886	-2.023979
H	0.078685	-1.065856	-3.26979
H	-0.021809	-2.111404	-1.833263
C	-1.896157	-0.142856	-1.634682
N	-3.047414	-0.279331	-1.822525
C	-0.514972	-1.165757	0.699569
N	-0.907641	-2.134781	1.235253
N	-0.529403	1.250763	0.642475
O	0.227817	2.211249	0.695843
O	-1.700943	1.222416	1.025036
Cl	3.212304	0.0	0.0
