18

C	-0.560891	0.009503	-1.430985
C	0.0	0.0	0.0
F	-0.264661	1.264684	-1.924107
H	1.09711	0.0	0.0
N	0.204224	-0.936808	-2.354993
O	1.393587	-0.689426	-2.49344
O	-0.432108	-1.817458	-2.930371
C	-2.038676	-0.220337	-1.55373
H	-2.291781	-1.24983	-1.312117
H	-2.339361	-0.023768	-2.583382
H	-2.539475	0.470145	-0.876688
N	-0.391554	-1.26591	0.683704
O	-0.675743	-1.218117	1.878715
O	-0.333567	-2.292933	0.010183
N	-0.571478	1.127743	0.711808
H	-0.038297	1.939206	0.419537
H	-0.372917	0.982628	1.695634
Br	3.468234	0.0	0.0
