18

C	-0.430852	0.025405	-1.460144
C	0.0	0.0	0.0
F	0.256065	-0.890026	-2.187991
H	1.09413	0.0	0.0
N	-1.905164	-0.341784	-1.595908
O	-2.260254	-0.921308	-2.611628
O	-2.645412	0.04	-0.689912
C	-0.232253	1.385857	-2.080984
H	-0.85745	2.130531	-1.594799
H	0.816994	1.654199	-1.94455
H	-0.461285	1.313377	-3.146513
N	-0.425085	-1.308827	0.651477
O	-0.669582	-2.271152	-0.072799
O	-0.470903	-1.31712	1.879055
N	-0.411458	1.143481	0.73948
H	-1.369142	1.055155	1.048712
H	0.202066	1.257626	1.533494
Br	3.397165	0.0	0.0
