18

C	-0.395044	0.026145	-1.478365
C	0.0	0.0	0.0
F	-0.002307	-1.151735	-2.037773
H	1.091167	0.0	0.0
N	-1.907486	0.098442	-1.685442
O	-2.46303	-0.813248	-2.278761
O	-2.454603	1.118428	-1.264148
C	0.242141	1.182441	-2.205395
H	0.013004	1.10743	-3.270813
H	-0.13489	2.127877	-1.818125
H	1.322275	1.119862	-2.048503
N	-0.513806	-1.297794	0.573637
O	0.285283	-2.103758	1.031255
O	-1.740424	-1.427912	0.561678
N	-0.44744	1.066467	0.830083
H	0.296714	1.732281	0.975935
H	-1.300499	1.499776	0.511141
Br	3.466489	0.0	0.0
