15

C	0.0	0.0	0.0
C	-0.639971	0.182751	-1.379738
Br	1.950293	0.0	0.0
H	-1.671044	0.47024	-1.13459
H	-0.316726	-0.952393	0.425813
C	-0.370338	1.089146	0.905977
N	-0.60177	1.977158	1.639183
N	-0.613527	-1.112542	-2.063076
H	-0.73119	-0.952809	-3.057376
H	-1.44703	-1.611271	-1.758392
C	0.002754	1.270938	-2.215726
H	-0.632789	1.475828	-3.08249
H	0.992107	0.967929	-2.567091
H	0.098961	2.198287	-1.6463
Br	-3.813246	0.0	0.0
