15

C	0.0	0.0	0.0
C	-0.576542	0.402858	-1.356001
Br	1.960638	0.0	0.0
H	-1.655994	0.261796	-1.206355
H	-0.295807	-1.027368	0.213474
C	-0.393674	0.884289	1.093392
N	-0.609886	1.619401	1.984099
N	-0.123479	-0.568501	-2.347999
H	0.741181	-0.252892	-2.773943
H	-0.825151	-0.637758	-3.074843
C	-0.315732	1.860075	-1.713053
H	-0.794726	2.081191	-2.671193
H	0.756153	2.063841	-1.805821
H	-0.740994	2.53135	-0.963505
Br	-3.800308	0.0	0.0
