15

C	0.0	0.0	0.0
C	-0.494319	-0.197896	-1.500126
Br	1.939343	0.0	0.0
H	0.393914	-0.021315	-2.115528
H	-0.338654	-0.805088	0.654469
C	-0.406123	1.289802	0.543747
N	-0.667627	2.36242	0.945881
N	-1.527915	0.684774	-1.969004
H	-2.403304	0.519067	-1.464124
H	-1.274326	1.656376	-1.833449
C	-0.945222	-1.643252	-1.65665
H	-1.85354	-1.801361	-1.069084
H	-0.165244	-2.338429	-1.329982
H	-1.177684	-1.835955	-2.705427
Br	-4.18093	0.0	0.0
