15

C	0.0	0.0	0.0
C	-0.577245	-0.00805	-1.447883
Br	1.947238	0.0	0.0
H	0.272677	0.094691	-2.129066
H	-0.286086	-0.907038	0.535754
C	-0.408791	1.154344	0.793905
N	-0.644697	2.076459	1.481916
N	-1.416404	1.164134	-1.642807
H	-2.304944	1.027638	-1.150982
H	-1.640272	1.231067	-2.629673
C	-1.256084	-1.356452	-1.697728
H	-2.084711	-1.488454	-0.999775
H	-1.676116	-1.375781	-2.707582
H	-0.541174	-2.182214	-1.606237
Br	-4.261094	0.0	0.0
