15

C	0.0	0.0	0.0
C	-0.588371	0.297466	-1.439628
Br	1.955901	0.0	0.0
H	0.277332	0.539778	-2.066664
H	-0.296663	-0.984998	0.365597
C	-0.39012	1.004211	0.980509
N	-0.697171	1.785585	1.806999
N	-1.517444	1.393947	-1.533822
H	-2.388078	1.195352	-1.03236
H	-1.107471	2.249489	-1.172357
C	-1.248036	-0.98281	-1.922532
H	-0.591212	-1.849816	-1.769634
H	-2.187796	-1.125009	-1.373217
H	-1.480298	-0.91426	-2.991891
Br	-4.335788	0.0	0.0
