15

C	0.0	0.0	0.0
C	-0.59093	0.432203	-1.338977
Br	1.960532	0.0	0.0
H	-1.670109	0.309127	-1.166329
H	-0.300918	-1.029293	0.19219
C	-0.390474	0.862242	1.111583
N	-0.627104	1.570377	2.018475
N	-0.18102	-0.534939	-2.352114
H	-0.911937	-0.597716	-3.049726
H	0.669148	-0.2223	-2.809899
C	-0.307717	1.887392	-1.684225
H	0.764185	2.062911	-1.821725
H	-0.677734	2.557395	-0.905403
H	-0.823139	2.138737	-2.614804
Br	-3.833155	0.0	0.0
