15

C	0.0	0.0	0.0
C	-0.57431	0.291741	-1.39825
Br	1.962701	0.0	0.0
H	-1.650572	0.367177	-1.19606
H	-0.321341	-0.986322	0.333465
C	-0.370223	1.009196	0.9927
N	-0.548033	1.855138	1.788818
N	-0.386505	-0.810068	-2.329427
H	0.567625	-1.152325	-2.289463
H	-1.012922	-1.564105	-2.069313
C	-0.076814	1.595776	-1.994659
H	-0.656161	1.797191	-2.895566
H	0.977844	1.536366	-2.272811
H	-0.210094	2.426696	-1.299805
Br	-3.731198	0.0	0.0
