16

C	0.0	0.0	0.0
C	-0.581267	-0.215698	-1.373478
F	1.359747	0.0	0.0
H	-0.502802	0.699338	-1.959044
H	-1.644762	-0.476917	-1.27225
C	-0.528935	1.259611	0.630553
H	-0.20389	2.116729	0.036314
H	-1.622086	1.214265	0.655506
H	-0.123119	1.341488	1.638853
N	-0.35863	-1.17557	0.92404
O	-1.11256	-2.046978	0.516118
O	0.169232	-1.131527	2.032956
N	0.112089	-1.262529	-2.176002
O	-0.000842	-1.159589	-3.39707
O	0.726908	-2.152957	-1.59657
Br	-3.909457	0.0	0.0
