16

C	0.0	0.0	0.0
C	-0.240283	0.304332	-1.485388
F	1.364759	0.0	0.0
H	0.084301	1.331293	-1.642258
H	0.396262	-0.384608	-2.036086
C	-0.619328	0.928432	0.986869
H	-0.297339	0.680778	1.997823
H	-1.710996	0.832453	0.913277
H	-0.323161	1.950648	0.742024
N	-0.335586	-1.460842	0.311644
O	-0.86092	-1.712855	1.388659
O	0.050374	-2.280952	-0.51679
N	-1.584555	0.188269	-2.113608
O	-2.115597	1.238777	-2.463042
O	-1.989483	-0.947114	-2.33005
Br	-4.122268	0.0	0.0
