16

C	0.0	0.0	0.0
C	-0.525736	-0.056691	-1.423705
F	1.359745	0.0	0.0
H	-1.464308	-0.612021	-1.45841
H	-0.668291	0.948949	-1.810147
C	-0.537218	1.163189	0.781498
H	-1.631241	1.124753	0.766668
H	-0.165564	1.104097	1.804352
H	-0.187781	2.085629	0.313321
N	-0.338721	-1.29754	0.764891
O	-1.084182	-2.127423	0.263578
O	0.213446	-1.388047	1.860418
N	0.502037	-0.699942	-2.29215
O	1.114142	0.031555	-3.068568
O	0.69868	-1.903059	-2.146066
Br	-3.882214	0.0	0.0
