16

C	0.0	0.0	0.0
C	-0.55622	-0.245635	-1.382512
F	1.359789	0.0	0.0
H	-1.595121	-0.5906	-1.300542
H	-0.54042	0.678773	-1.957125
C	-0.529081	1.273688	0.596349
H	-1.62198	1.228027	0.621975
H	-0.20454	2.11326	-0.02253
H	-0.123862	1.384621	1.601942
N	-0.359446	-1.157418	0.943599
O	-1.056084	-2.073315	0.530916
O	0.119346	-1.062034	2.071679
N	0.240296	-1.221728	-2.178401
O	0.786627	-2.155798	-1.600287
O	0.278493	-1.023401	-3.393151
Br	-3.870502	0.0	0.0
