17

C	-0.341319	-0.118407	-1.494524
C	0.0	0.0	0.0
Cl	-1.991053	-0.727652	-1.764211
H	1.090531	0.0	0.0
N	-0.257972	1.312852	-2.059279
O	0.785958	1.895184	-1.790898
O	-1.162621	1.737682	-2.766271
C	0.699229	-0.915626	-2.263423
H	0.60314	-0.716262	-3.334682
H	0.54835	-1.973229	-2.070531
H	1.673304	-0.613551	-1.859959
N	-0.370206	-1.232531	0.741257
O	-0.086284	-2.306492	0.212672
O	-0.87415	-1.111028	1.857551
C	-0.603523	1.154924	0.628193
N	-1.05799	2.12167	1.11982
F	2.480979	0.0	0.0
