17

C	-0.578627	0.008428	-1.41175
C	0.0	0.0	0.0
Cl	0.162993	1.394685	-2.259447
H	1.092054	0.0	0.0
N	-0.103238	-1.220006	-2.197385
O	0.978518	-1.696156	-1.904433
O	-0.834744	-1.589534	-3.11328
C	-2.083623	0.124783	-1.498574
H	-2.398364	0.210188	-2.536059
H	-2.395714	1.014255	-0.949679
H	-2.541291	-0.761951	-1.059535
N	-0.441122	-1.181219	0.775842
O	-0.265586	-1.147939	1.991886
O	-0.90247	-2.146844	0.156989
C	-0.415699	1.191195	0.713384
N	-0.767018	2.161076	1.278695
F	2.420713	0.0	0.0
