17

C	-0.249849	0.025766	-1.50002
C	0.0	0.0	0.0
Cl	0.359003	-1.484436	-2.18699
H	1.092444	0.0	0.0
N	-1.724307	0.191663	-1.884221
O	-2.248348	-0.574641	-2.681603
O	-2.260979	1.169905	-1.371363
C	0.543717	1.181874	-2.082223
H	0.13338	2.129329	-1.728024
H	1.564257	1.051443	-1.710266
H	0.510721	1.147278	-3.172566
N	-0.585799	-1.195731	0.664116
O	-1.612787	-1.671185	0.172274
O	-0.02393	-1.604712	1.676781
C	-0.428806	1.175072	0.729459
N	-0.693038	2.119521	1.377995
F	2.493671	0.0	0.0
