17

C	-0.532186	-0.01043	-1.433784
C	0.0	0.0	0.0
Cl	0.229189	1.376728	-2.265011
H	1.091911	0.0	0.0
N	-0.020838	-1.256461	-2.178913
O	-0.737592	-1.673832	-3.086012
O	1.055881	-1.719182	-1.845859
C	-2.032488	0.086522	-1.589485
H	-2.383269	0.979882	-1.071268
H	-2.293772	0.151257	-2.643682
H	-2.498621	-0.801123	-1.162047
N	-0.41159	-1.209895	0.758227
O	-0.167932	-1.215213	1.961241
O	-0.915134	-2.152551	0.138139
C	-0.489912	1.157942	0.712155
N	-0.90594	2.100162	1.279893
F	2.42627	0.0	0.0
