17

C	-0.565689	0.001899	-1.418663
C	0.0	0.0	0.0
Cl	0.180409	1.388121	-2.263562
H	1.091823	0.0	0.0
N	-0.082947	-1.231121	-2.196922
O	-0.788751	-1.577686	-3.143195
O	0.977201	-1.735383	-1.868145
C	-2.070763	0.113329	-1.522811
H	-2.392995	1.004361	-0.981037
H	-2.371899	0.193742	-2.565728
H	-2.53065	-0.773049	-1.085545
N	-0.449441	-1.173426	0.784454
O	-0.25194	-1.140546	1.994409
O	-0.941288	-2.130535	0.180758
C	-0.425787	1.192883	0.703689
N	-0.788154	2.163447	1.260537
F	2.422775	0.0	0.0
