17

C	-0.571604	0.012398	-1.415071
C	0.0	0.0	0.0
Cl	0.177039	1.400093	-2.254334
H	1.092015	0.0	0.0
N	-0.105734	-1.224499	-2.19542
O	-0.834765	-1.585633	-3.116307
O	0.968947	-1.7147	-1.893832
C	-2.075218	0.140555	-1.507791
H	-2.383382	1.033147	-0.96064
H	-2.382664	0.228397	-2.547782
H	-2.54082	-0.742685	-1.071064
N	-0.438228	-1.182848	0.774864
O	-0.241028	-1.154887	1.986525
O	-0.923582	-2.139845	0.161868
C	-0.420089	1.1881	0.715441
N	-0.775075	2.154923	1.281612
F	2.424068	0.0	0.0
