17

C	-0.329813	-0.120805	-1.496915
C	0.0	0.0	0.0
Cl	-1.996174	-0.684881	-1.78827
H	1.091206	0.0	0.0
N	-0.228128	1.325458	-2.0285
O	-1.250806	1.985018	-2.166684
O	0.914451	1.714159	-2.239076
C	0.687879	-0.955849	-2.249125
H	1.669142	-0.685021	-1.847977
H	0.497259	-2.008069	-2.053181
H	0.614914	-0.758167	-3.320628
N	-0.371472	-1.226274	0.753794
O	-0.144901	-2.307006	0.215483
O	-0.809651	-1.088572	1.89527
C	-0.581386	1.159832	0.637539
N	-1.001951	2.135083	1.141919
F	2.475995	0.0	0.0
