17

C	-0.626303	-0.076032	-1.392813
C	0.0	0.0	0.0
Cl	-0.054753	1.347134	-2.30708
H	1.091265	0.0	0.0
N	-0.08521	-1.285955	-2.169021
O	1.122583	-1.445788	-2.172054
O	-0.911776	-1.969863	-2.767963
C	-2.137857	-0.094962	-1.399843
H	-2.49357	-0.999462	-0.906034
H	-2.516834	-0.083478	-2.420286
H	-2.499016	0.787123	-0.869102
N	-0.371302	-1.172681	0.822627
O	-0.588474	-2.233172	0.228803
O	-0.350855	-1.045068	2.044044
C	-0.439109	1.20455	0.674209
N	-0.786441	2.202624	1.19002
F	2.416331	0.0	0.0
