17

C	-0.358274	0.053397	-1.467499
C	0.0	0.0	0.0
Cl	0.570103	-1.130801	-2.400068
H	1.107081	0.0	0.0
N	-1.857506	-0.201314	-1.704041
O	-2.217165	-0.6734	-2.772635
O	-2.60004	0.186006	-0.806897
C	-0.044654	1.436575	-2.013557
H	-0.191396	1.447051	-3.094612
H	-0.682219	2.18637	-1.540668
H	1.001827	1.63536	-1.773181
N	-0.459964	-1.219699	0.692254
O	-0.845534	-2.167848	0.007681
O	-0.373485	-1.225719	1.917559
C	-0.416884	1.167115	0.745628
N	-0.698827	2.159855	1.308737
F	2.438391	0.0	0.0
