18

C	-0.305204	-0.117802	-1.499122
C	0.0	0.0	0.0
Cl	-1.992176	-0.622963	-1.857126
H	1.093146	0.0	0.0
N	-0.192	1.298205	-2.186761
O	0.800663	1.468168	-2.884584
O	-1.082973	2.110021	-1.980099
N	0.601037	-1.040454	-2.030336
H	0.567999	-1.065205	-3.040195
H	1.549179	-0.836009	-1.70432
C	-0.493756	-1.188959	0.793023
H	-1.579873	-1.216697	0.851514
H	-0.120197	-2.095484	0.317025
H	-0.080244	-1.130889	1.801696
N	-0.486215	1.279939	0.58702
O	-1.54744	1.26255	1.213604
O	0.21595	2.27293	0.415139
Cl	3.27888	0.0	0.0
