18

C	-0.346475	-0.030794	-1.484164
C	0.0	0.0	0.0
Cl	-2.013894	-0.547266	-1.83324
H	1.091056	0.0	0.0
N	-0.175621	1.390552	-2.104986
O	-0.839367	1.683509	-3.092494
O	0.741834	2.044505	-1.628966
N	0.569636	-0.919952	-2.09421
H	0.488029	-0.910921	-3.102925
H	1.523563	-0.712296	-1.785745
C	-0.454006	-1.245629	0.744422
H	-1.53536	-1.251948	0.89715
H	0.056315	-1.271791	1.707202
H	-0.164377	-2.12222	0.16578
N	-0.54153	1.185066	0.711242
O	-0.124877	1.372344	1.851113
O	-1.413907	1.858549	0.158713
Cl	3.276378	0.0	0.0
