18

C	-0.367549	-0.000694	-1.477467
C	0.0	0.0	0.0
Cl	0.130545	-1.612852	-2.195518
H	1.092734	0.0	0.0
N	-1.877159	0.029609	-1.760675
O	-2.276438	0.848665	-2.580426
O	-2.564794	-0.797138	-1.179824
N	0.23936	1.105678	-2.068908
H	0.07345	1.163507	-3.063487
H	1.232949	1.11328	-1.844853
C	-0.501798	-1.106424	0.90536
H	-1.580138	-1.065991	1.043846
H	-0.223239	-2.073274	0.48889
H	0.007217	-0.997556	1.866171
N	-0.463526	1.314297	0.556585
O	0.368112	2.060631	1.058729
O	-1.675876	1.536269	0.500041
Cl	3.299127	0.0	0.0
