18

C	-0.449787	-0.13318	-1.459093
C	0.0	0.0	0.0
Cl	-2.213688	-0.342789	-1.566546
H	1.093072	0.0	0.0
N	-0.067421	1.138217	-2.255091
O	-0.919171	1.988559	-2.467194
O	1.103493	1.168112	-2.601614
N	0.193826	-1.21089	-2.148456
H	1.195744	-1.139902	-1.971999
H	-0.151085	-2.08956	-1.785487
C	-0.425613	-1.171603	0.862769
H	-1.506622	-1.274347	0.938668
H	-0.012355	-1.028939	1.86117
H	0.015161	-2.08593	0.462335
N	-0.462013	1.288272	0.600199
O	0.025547	2.317792	0.13798
O	-1.285106	1.24921	1.517188
Cl	3.250979	0.0	0.0
