18

C	-0.270227	-0.072986	-1.502196
C	0.0	0.0	0.0
Cl	-1.976167	-0.38214	-1.969596
H	1.094104	0.0	0.0
N	0.02948	1.296937	-2.20643
O	-0.13666	2.330818	-1.574483
O	0.384246	1.217108	-3.377106
N	0.5536	-1.089498	-2.016231
H	1.509811	-0.955009	-1.673946
H	0.539929	-1.07144	-3.027999
C	-0.50457	-1.231372	0.731532
H	-0.150581	-1.188669	1.764127
H	-1.594205	-1.273044	0.719962
H	-0.093618	-2.121868	0.259101
N	-0.551427	1.193932	0.69795
O	-1.775196	1.329335	0.677623
O	0.231231	1.908987	1.312753
Cl	3.293764	0.0	0.0
