18

C	-0.399188	-0.007065	-1.47203
C	0.0	0.0	0.0
Cl	-2.207565	0.285444	-1.745122
H	1.090716	0.0	0.0
N	0.232121	1.171926	-2.219074
O	0.564238	0.978588	-3.38229
O	0.290579	2.228546	-1.611789
N	0.04848	-1.1832	-2.083535
H	0.058568	-1.080653	-3.089842
H	-0.500597	-1.980861	-1.799234
C	-0.487195	-1.247305	0.719407
H	-1.565886	-1.380801	0.620385
H	-0.239605	-1.156346	1.77824
H	0.055364	-2.112511	0.338793
N	-0.481351	1.184888	0.781271
O	-1.691558	1.251013	1.010696
O	0.359143	1.965644	1.21105
Cl	3.330856	0.0	0.0
