18

C	-0.477071	0.095595	-1.450985
C	0.0	0.0	0.0
Cl	0.460217	-1.060415	-2.411245
H	1.088324	0.0	0.0
N	-1.973602	-0.396992	-1.616864
O	-2.76942	0.412911	-2.081761
O	-2.240768	-1.547929	-1.293497
N	-0.31279	1.387237	-1.982622
H	-0.986402	2.013725	-1.560645
H	-0.439811	1.380161	-2.98556
C	-0.412972	-1.224454	0.808664
H	0.149641	-1.190476	1.743758
H	-0.128742	-2.129981	0.274449
H	-1.483682	-1.24889	1.014712
N	-0.48577	1.188501	0.758042
O	0.229575	1.640832	1.639764
O	-1.628978	1.591554	0.497778
Cl	3.318421	0.0	0.0
