18

C	-0.554081	0.023202	-1.42732
C	0.0	0.0	0.0
Cl	0.414618	1.029621	-2.512532
H	1.088487	0.0	0.0
N	-0.367041	-1.43813	-1.967991
O	0.765241	-1.891249	-1.992525
O	-1.394837	-2.021672	-2.313752
N	-1.897733	0.435501	-1.478607
H	-2.290726	0.273751	-2.396374
H	-2.452668	-0.038917	-0.779761
C	-0.480502	-1.192599	0.811174
H	-0.167222	-1.055566	1.846422
H	-1.563084	-1.336121	0.799587
H	0.019985	-2.085586	0.437311
N	-0.449206	1.273892	0.64967
O	-1.47987	1.236055	1.332133
O	0.227945	2.276663	0.454044
Cl	3.339573	0.0	0.0
