18

C	-0.340676	0.040163	-1.503001
C	0.0	0.0	0.0
Cl	-1.997525	-0.527516	-1.835188
H	1.104448	0.0	0.0
N	-0.255281	1.504414	-1.993174
O	-1.238094	2.215843	-1.828108
O	0.819777	1.840693	-2.46598
N	0.575554	-0.711952	-2.296761
H	1.526004	-0.486683	-1.993152
H	0.414972	-1.699204	-2.1434
C	-0.44582	-1.274253	0.684505
H	-0.061064	-2.132728	0.130865
H	-0.000495	-1.302097	1.680471
H	-1.527813	-1.342893	0.772348
N	-0.501708	1.193582	0.739006
O	-1.511381	1.066701	1.435661
O	0.133481	2.236914	0.603763
Cl	3.274491	0.0	0.0
