11

C	0.0	0.0	0.0
C	-0.510231	0.456863	-1.337795
Cl	1.769092	0.0	0.0
H	-0.161911	-0.243848	-2.099969
H	-0.361579	-0.976995	0.305918
H	-1.601002	0.462501	-1.299236
H	-0.122871	1.450982	-1.558832
N	-0.398618	0.935752	1.117326
O	-0.522849	0.426978	2.225494
O	-0.49109	2.127695	0.853284
Cl	-3.549309	0.0	0.0
