19
Coordinates from ORCA-job run
  C   0.74223013365985      0.53579532105673     -0.16464409727943
  C   -0.67798282762454      0.29211899503839      0.34643762006893
  F   0.84334577295639      1.85833943859148     -0.51073728606728
  H   -0.80298101594072      1.07716461336848      1.10362946688100
  N   0.93511290845229     -0.24819824368163     -1.45713900567730
  O   1.07958339622887     -1.46206777647223     -1.32402596086816
  O   0.89254404850048      0.36199688375181     -2.51681974215423
  C   1.87050893033048      0.19984953878185      0.77741030733600
  H   2.81122235408924      0.53973974097863      0.33979670344150
  H   1.71265229409810      0.72764514260312      1.71991267556216
  H   1.92739900965231     -0.87008029750215      0.96110332164610
  C   -0.87805380172407     -1.06341520859954      1.01802293491270
  H   -1.90525764108792     -1.13280492418894      1.38395171587960
  H   -0.21398710863701     -1.20230131536322      1.87311400477219
  H   -0.71139059778357     -1.88168673546513      0.31632909574377
  C   -1.70581359810587      0.52675650259229     -0.76015299947369
  H   -1.68958015117745     -0.28788539057591     -1.48942914944762
  H   -2.70856371296666      0.56557442496801     -0.32912085178404
  H   -1.52198839292019      1.46345929011796     -1.28763875349219
