19
Coordinates from ORCA-job run
  C   0.71218296407972      0.36970782203713     -0.48873836673799
  C   -0.75436279002690     -0.02578445273976     -0.35584207377008
  F   0.79304693728820      1.45266159861668     -1.33338755115697
  H   -1.11476834686014     -0.07428096717520     -1.39011599616847
  N   1.40046911906844     -0.76921123074046     -1.23371977187759
  O   2.10174154721050     -1.53400811015572     -0.57545538116430
  O   1.14287727283770     -0.87084101010199     -2.42765730672830
  C   1.46478996936890      0.69241699621043      0.77431928082396
  H   1.40614871107228     -0.11739785957470      1.49819623694958
  H   1.04406656880621      1.60109111673781      1.20532474017516
  H   2.51433314305729      0.87150768476623      0.53945358917967
  C   -1.53382939137449      1.05713357604174      0.38678561154919
  H   -1.33317046446479      2.04753278935114     -0.02567280396582
  H   -1.28997289514337      1.06342328023485      1.45225277690098
  H   -2.60534780452187      0.86541909150780      0.29513703601190
  C   -0.93981866666596     -1.39514191519637      0.29317227360400
  H   -0.51879766762613     -1.42282410003093      1.30126082618181
  H   -2.00683435204242     -1.61415185416141      0.37465473457254
  H   -0.48275385406315     -2.19725245562727     -0.28896785437929
