19
Coordinates from ORCA-job run
  C   0.71974608004939      0.36634819404964     -0.48010702660031
  C   -0.75502000077783     -0.00113919017261     -0.35614453643562
  F   0.82346213490609      1.46730840313206     -1.29863332124052
  H   -1.11582531481225     -0.01604595541408     -1.39130934313741
  N   1.38390924775526     -0.76861456620206     -1.25217527831105
  O   1.12424992050860     -0.83637868177432     -2.44810120787396
  O   2.06830965405501     -1.56377720703789     -0.61240021379452
  C   1.47895594276176      0.64309195023365      0.78994553239705
  H   2.53169713431308      0.80696613391804      0.55819099610521
  H   1.07676815231189      1.54933556773878      1.24316468897612
  H   1.40460531231854     -0.18273415386778      1.49400495411043
  C   -1.51111749227974      1.07929281784020      0.41356111002164
  H   -1.26694359801172      1.05448878112623      1.47867549932085
  H   -1.28971880975183      2.07504422477207      0.02525004479374
  H   -2.58651753954094      0.91274570277628      0.31814341575249
  C   -0.96907130459027     -1.38190785187627      0.25882059783110
  H   -0.53102055597210     -2.17899624754314     -0.34448329821203
  H   -0.54611559826832     -1.44412330714409      1.26457663080407
  H   -2.04035336497461     -1.57990461455473      0.33802075549270
