19
Coordinates from ORCA-job run
  C   0.73981122765474      0.53855251668383     -0.16728413531518
  C   -0.67811601265157      0.29028374570365      0.34831012830213
  F   0.83549429948889      1.86138479306310     -0.51351833840504
  H   -0.80361249450733      1.07644263340757      1.10430510648817
  N   0.93096226338020     -0.24466140652794     -1.46033486750652
  O   1.07772077876917     -1.45831113711162     -1.32762137420854
  O   0.88481154755199      0.36559002924073     -2.51981913938118
  C   1.87219604511691      0.20574647873724      0.77096792854998
  H   1.71709079583093      0.73424583058424      1.71354031443524
  H   1.93154197311635     -0.86391531510635      0.95551549440436
  H   2.81074672057666      0.54662587370104      0.32945454600911
  C   -0.87090449750445     -1.06444079036856      1.02366746535439
  H   -0.69991666546084     -1.88397522489713      0.32446839562315
  H   -0.20591966745615     -1.19694199204200      1.87907515881409
  H   -1.89764387428422     -1.13824960896082      1.39004585386126
  C   -1.70972318378674      0.51872379733836     -0.75587462983882
  H   -1.69097393044988     -0.29666376202401     -1.48431409524567
  H   -1.53181485277802      1.45579331287273     -1.28480584150559
  H   -2.71175047260664      0.55277022570596     -0.32277797043536
