12

C	0.0	0.0	0.0
C	-0.528277	0.05387	-1.413544
Cl	1.78247	0.0	0.0
H	-1.657625	0.13347	-1.183205
H	-0.363715	-0.931758	0.433019
H	-0.286662	-0.85372	-1.963159
C	-0.459149	1.098883	0.86318
N	-0.648084	1.973719	1.625599
N	-0.012165	1.172855	-2.191578
O	0.174052	0.985963	-3.402874
O	0.150607	2.25803	-1.624621
H	-2.703827	0.0	0.0
