13

C	-0.505124	-0.144647	-1.402119
C	0.0	0.0	0.0
F	-1.878531	-0.15461	-1.440324
H	1.089649	0.0	0.0
H	-0.123737	-1.023023	-1.913553
H	-0.395297	0.894154	0.47452
N	-0.080519	1.052951	-2.209464
O	0.503987	0.83509	-3.267187
O	-0.405478	2.152871	-1.767774
N	-0.449719	-1.166616	0.799229
O	-0.745625	-0.960789	1.973231
O	-0.462875	-2.266058	0.24695
Br	3.407459	0.0	0.0
