13

C	-0.50558	-0.107979	-1.406139
C	0.0	0.0	0.0
F	-1.877791	-0.144398	-1.444876
H	1.089626	0.0	0.0
H	-0.104198	-0.959375	-1.948268
H	-0.400628	0.87846	0.49877
N	-0.098272	1.129648	-2.163743
O	0.611426	0.978982	-3.15084
O	-0.544936	2.192494	-1.741298
N	-0.444806	-1.189932	0.765855
O	-0.756879	-1.01656	1.940792
O	-0.439364	-2.274581	0.186261
Br	3.409965	0.0	0.0
