13

C	-0.603784	-0.044303	-1.3738
C	0.0	0.0	0.0
F	-1.963373	-0.157032	-1.301434
H	1.089522	0.0	0.0
H	-0.201928	-0.897337	-1.923622
H	-0.337969	-0.882095	0.544074
N	-0.278704	1.157458	-2.238428
O	-1.207183	1.839494	-2.648471
O	0.909873	1.291482	-2.486647
N	-0.483452	1.167514	0.780115
O	-0.759915	0.977357	1.961878
O	-0.542974	2.24966	0.200389
Br	3.458239	0.0	0.0
