13

C	-0.576301	0.074852	-1.393825
C	0.0	0.0	0.0
F	-0.402111	1.321538	-1.900042
H	1.088443	0.0	0.0
H	-1.635553	-0.182359	-1.422153
H	-0.362045	0.877064	0.541378
N	0.098406	-0.921474	-2.306941
O	0.502849	-0.540853	-3.3939
O	0.108408	-2.066929	-1.869296
N	-0.559424	-1.174817	0.728732
O	0.206383	-1.88719	1.361898
O	-1.784876	-1.316379	0.676971
Br	3.488516	0.0	0.0
