13

C	-0.465869	0.161215	-1.417675
C	0.0	0.0	0.0
F	-0.227801	-1.001193	-2.095804
H	1.089718	0.0	0.0
H	-0.013	0.995268	-1.945598
H	-0.393305	-0.908526	0.447455
N	-1.962347	0.370938	-1.500311
O	-2.659156	-0.246412	-0.698994
O	-2.372005	1.095835	-2.402954
N	-0.454727	1.142082	0.820731
O	-0.701534	2.197485	0.231173
O	-0.526818	0.975565	2.03308
Br	3.418822	0.0	0.0
