13

C	-0.583064	-0.181827	-1.37122
C	0.0	0.0	0.0
F	-1.932675	-0.389116	-1.304389
H	1.08952	0.0	0.0
H	-0.112084	-1.04148	-1.853183
H	-0.329718	-0.837557	0.615452
N	-0.333569	0.974264	-2.319249
O	0.844943	1.192973	-2.55422
O	-1.305547	1.541414	-2.802102
N	-0.497706	1.220761	0.679318
O	-0.612991	2.244016	0.005568
O	-0.730734	1.133427	1.883311
Br	3.443981	0.0	0.0
