13

C	-0.55876	0.049347	-1.400841
C	0.0	0.0	0.0
F	-0.426223	1.302662	-1.907186
H	1.087644	0.0	0.0
H	-1.604409	-0.252954	-1.452529
H	-0.357938	0.885748	0.530295
N	0.177831	-0.918518	-2.299324
O	0.296361	-2.04573	-1.832475
O	0.518761	-0.537021	-3.40858
N	-0.541192	-1.164942	0.757486
O	0.181041	-1.67566	1.601852
O	-1.709415	-1.492545	0.532101
Br	3.483516	0.0	0.0
