13

C	-0.586572	-0.13131	-1.376686
C	0.0	0.0	0.0
F	-1.939074	-0.325773	-1.316874
H	1.089534	0.0	0.0
H	-0.12472	-0.978738	-1.886884
H	-0.332393	-0.858501	0.584578
N	-0.328623	1.054915	-2.286016
O	0.85015	1.250177	-2.541779
O	-1.295386	1.666358	-2.718462
N	-0.493394	1.198509	0.722445
O	-0.583551	2.247743	0.088473
O	-0.744591	1.066533	1.917963
Br	3.43978	0.0	0.0
