13

C	-0.484943	0.002264	-1.421217
C	0.0	0.0	0.0
F	-0.24835	-1.172418	-2.043828
H	1.088475	0.0	0.0
H	0.008676	0.809508	-1.967929
H	-0.355457	0.893995	0.512807
N	-1.969856	0.310068	-1.536955
O	-2.665727	-0.409108	-2.235964
O	-2.33056	1.324276	-0.947146
N	-0.539413	-1.164341	0.750013
O	0.138308	-1.613472	1.665455
O	-1.660544	-1.56589	0.425101
Br	3.482077	0.0	0.0
