17

C	0.0	0.0	0.0
C	-0.545964	0.334957	-1.382637
F	1.363258	0.0	0.0
H	-1.633549	0.448816	-1.245155
N	-0.361728	1.162543	0.932755
O	0.318264	1.2389	1.955138
O	-1.28583	1.896304	0.619421
C	-0.539896	-1.268532	0.598266
H	-1.633235	-1.21264	0.615547
H	-0.222751	-2.1157	-0.012287
H	-0.14237	-1.380349	1.607387
C	-0.303611	-0.800981	-2.285985
N	-0.064509	-1.659682	-3.052426
N	0.050821	1.572497	-1.869607
H	-0.61288	2.059334	-2.457143
H	0.886647	1.380322	-2.404872
Br	-3.976844	0.0	0.0
