17

C	0.0	0.0	0.0
C	-0.412718	0.055093	-1.501211
F	1.368782	0.0	0.0
H	-0.230784	-0.972131	-1.847355
N	-0.341047	1.310196	0.704512
O	-0.307887	1.297727	1.931787
O	-0.526758	2.302038	0.002929
C	-0.590813	-1.153266	0.748601
H	-0.29873	-2.081895	0.253451
H	-0.237856	-1.157552	1.778312
H	-1.682318	-1.057992	0.737011
C	0.549281	0.894105	-2.243604
N	1.30872	1.528601	-2.874223
N	-1.748465	0.422357	-1.882209
H	-2.471137	-0.137148	-1.427572
H	-1.93632	1.374792	-1.599037
Br	-4.406697	0.0	0.0
