17

C	0.0	0.0	0.0
C	-0.374912	0.387587	-1.456382
F	1.368143	0.0	0.0
H	0.015681	-0.464343	-2.030998
N	-0.359732	1.107727	0.984163
O	-0.029003	0.905429	2.148801
O	-0.900959	2.121246	0.552307
C	-0.599295	-1.287642	0.473935
H	-0.334136	-2.086946	-0.221822
H	-1.689233	-1.179723	0.513475
H	-0.218553	-1.525216	1.4666
C	0.440641	1.544485	-1.87318
N	1.094103	2.442809	-2.251897
N	-1.742787	0.592314	-1.841988
H	-2.318923	-0.223157	-1.653898
H	-2.170237	1.320822	-1.282709
Br	-4.375587	0.0	0.0
