17

C	0.0	0.0	0.0
C	-0.403675	-0.460371	-1.433674
F	1.364065	0.0	0.0
H	-0.173788	-1.535777	-1.418193
N	-0.33142	1.481541	0.212476
O	-0.140313	1.916246	1.343492
O	-0.673922	2.146246	-0.759935
C	-0.603689	-0.805353	1.104891
H	-0.297351	-1.847742	1.003421
H	-0.264469	-0.421537	2.066058
H	-1.695648	-0.724843	1.047206
C	0.533544	0.131907	-2.4088
N	1.261863	0.573339	-3.216451
N	-1.7466	-0.29727	-1.919119
H	-2.452633	-0.673763	-1.284607
H	-1.968159	0.687479	-1.986636
Br	-4.375499	0.0	0.0
