17

C	0.0	0.0	0.0
C	-0.60186	-0.092259	-1.397652
F	1.367883	0.0	0.0
H	-1.695472	-0.112307	-1.229709
N	-0.317385	1.392284	0.574841
O	0.435354	2.298346	0.231513
O	-1.257336	1.488037	1.352678
C	-0.51773	-1.060453	0.930096
H	-0.095327	-0.906037	1.924401
H	-0.205117	-2.039182	0.559328
H	-1.607859	-1.003388	0.975274
C	-0.179506	-1.382532	-1.982504
N	0.195568	-2.36418	-2.509499
N	-0.273952	1.049666	-2.22831
H	-0.821629	1.014296	-3.078401
H	0.710984	1.05173	-2.464036
Br	-3.975739	0.0	0.0
