13

C	-0.552251	-0.465741	-1.317908
C	0.0	0.0	0.0
Br	0.377846	0.456829	-2.868502
H	1.086953	0.0	0.0
H	-0.202938	-1.488885	-1.454231
H	-0.312413	-0.711672	0.769454
N	-1.970392	-0.412781	-1.436334
H	-2.261863	0.554779	-1.368284
H	-2.260339	-0.77167	-2.337035
N	-0.513767	1.297333	0.447957
O	-1.024201	2.071921	-0.373906
O	-0.378563	1.569932	1.640761
F	2.532126	0.0	0.0
