13

C	-0.230389	0.165178	-1.511849
C	0.0	0.0	0.0
Br	-0.429852	-1.639282	-2.381923
H	1.088865	0.0	0.0
H	-1.175363	0.643293	-1.772193
H	-0.389943	0.905148	0.474331
N	0.894141	0.841214	-2.063165
H	0.726818	1.835531	-2.117288
H	1.72926	0.63145	-1.482262
N	-0.716736	-1.120584	0.6263
O	-0.081499	-2.090289	1.031045
O	-1.946508	-1.014305	0.702162
F	2.664621	0.0	0.0
