13

C	-0.424778	0.015372	-1.417895
C	0.0	0.0	0.0
Br	-2.659008	0.389225	-1.425125
H	1.093739	0.0	0.0
H	-0.188329	0.968543	-1.879543
H	-0.346041	0.889087	0.519563
N	-0.122892	-1.052075	-2.204133
H	-0.435231	-0.988632	-3.158223
H	-0.274282	-1.942659	-1.757244
N	-0.468419	-1.140709	0.778293
O	-0.542057	-2.251269	0.23264
O	-0.706361	-0.960987	1.972549
F	2.492371	0.0	0.0
