13

C	-0.532558	0.002403	-1.424047
C	0.0	0.0	0.0
Br	-0.072836	1.719732	-2.276173
H	1.087995	0.0	0.0
H	0.069361	-0.729579	-1.965779
H	-0.387339	-0.904996	0.484534
N	-1.935973	-0.257275	-1.660943
H	-2.100431	-1.244134	-1.490565
H	-2.459574	0.265127	-0.96707
N	-0.571066	1.125945	0.783971
O	-1.808466	1.187899	0.88497
O	0.188352	1.940126	1.296583
F	2.596936	0.0	0.0
