13

C	-0.302092	-0.047551	-1.472135
C	0.0	0.0	0.0
Br	-2.027264	-1.506911	-1.708485
H	1.088863	0.0	0.0
H	-0.895453	0.755032	-1.893942
H	-0.363127	-0.864588	0.545722
N	0.809185	-0.442794	-2.129329
H	1.675997	-0.486991	-1.567782
H	0.850039	-0.37867	-3.129622
N	-0.51744	1.193364	0.671327
O	-0.740451	1.106909	1.87996
O	-0.648852	2.231928	0.018007
F	2.605984	0.0	0.0
