16

C	0.0	0.0	0.0
C	-0.41605	0.081777	-1.467138
Cl	1.794647	0.0	0.0
H	0.253493	0.818194	-1.920228
H	-1.437269	0.455182	-1.41355
N	-0.363415	1.299706	0.721866
O	-0.671984	2.249056	0.016919
O	-0.174658	1.344049	1.929926
N	-0.442069	-1.227353	0.791451
O	-0.171109	-2.286079	0.231366
O	-0.920101	-1.11921	1.902003
C	-0.388995	-1.210114	-2.267071
H	-1.190023	-1.863131	-1.926227
H	-0.572417	-0.955978	-3.316695
H	0.55846	-1.748274	-2.20241
F	-2.419592	0.0	0.0
