16

C	0.0	0.0	0.0
C	-0.47584	0.173378	-1.434055
Cl	1.76222	0.0	0.0
H	-1.530082	0.447969	-1.290332
H	0.115597	1.000431	-1.837084
N	-0.380986	1.227715	0.835366
O	-0.762807	2.215998	0.228304
O	-0.14071	1.174731	2.035228
N	-0.447715	-1.285345	0.707756
O	-0.99738	-1.247335	1.789547
O	-0.116993	-2.303856	0.105106
C	-0.370394	-1.044752	-2.336882
H	-1.105186	-1.788986	-2.034566
H	0.619246	-1.50806	-2.338227
H	-0.606436	-0.728265	-3.35861
F	-2.528846	0.0	0.0
