16

C	0.0	0.0	0.0
C	-0.464122	0.020416	-1.449873
Cl	1.754369	0.0	0.0
H	-1.53199	-0.219966	-1.351609
H	0.090678	-0.787636	-1.93433
N	-0.452259	1.188989	0.857431
O	-0.113236	2.272703	0.38728
O	-1.018197	1.018484	1.916793
N	-0.395027	-1.320889	0.662189
O	-0.753814	-2.223377	-0.077431
O	-0.190053	-1.422104	1.864496
C	-0.258658	1.32085	-2.211476
H	-0.463896	1.127891	-3.269591
H	0.755057	1.720405	-2.127823
H	-0.95866	2.077222	-1.861869
F	-2.530526	0.0	0.0
