16

C	0.0	0.0	0.0
C	-0.372325	-0.13189	-1.48566
Cl	1.787213	0.0	0.0
H	-1.464049	-0.096751	-1.466322
H	0.013567	0.783789	-1.935419
N	-0.453383	1.358442	0.545162
O	-0.603343	2.237206	-0.294249
O	-0.49887	1.521892	1.753154
N	-0.448736	-1.158082	0.874145
O	-0.39123	-1.029638	2.087402
O	-0.697348	-2.201886	0.287972
C	0.166403	-1.32698	-2.267074
H	-0.024525	-1.141084	-3.329574
H	-0.340225	-2.246674	-1.987229
H	1.243385	-1.473179	-2.152015
F	-2.403086	0.0	0.0
