16

C	0.0	0.0	0.0
C	-0.447707	0.203426	-1.443757
Cl	1.764874	0.0	0.0
H	-1.516791	0.422398	-1.321168
H	0.106312	1.081494	-1.786427
N	-0.387642	1.218665	0.848406
O	-0.758668	2.216397	0.25014
O	-0.161982	1.151543	2.05063
N	-0.460241	-1.297237	0.668545
O	-0.189079	-2.296986	0.009403
O	-0.953114	-1.292594	1.776562
C	-0.225951	-0.953815	-2.405309
H	-0.412598	-0.585402	-3.420204
H	-0.930916	-1.757759	-2.200267
H	0.787814	-1.362246	-2.371596
F	-2.498701	0.0	0.0
