16

C	0.0	0.0	0.0
C	-0.46271	-0.242062	-1.431273
Cl	1.753795	0.0	0.0
H	0.168209	-1.052539	-1.806747
H	-1.500404	-0.558183	-1.296028
N	-0.448586	1.317379	0.647302
O	-0.10821	2.306089	0.001638
O	-1.013505	1.330417	1.721256
N	-0.379669	-1.191588	0.883697
O	-0.156725	-1.08442	2.082486
O	-0.720991	-2.21707	0.313349
C	-0.404091	0.948856	-2.373822
H	0.564124	1.452709	-2.386119
H	-0.619489	0.587328	-3.384833
H	-1.172848	1.668251	-2.09672
F	-2.49789	0.0	0.0
