18

C	-0.379193	-0.027411	-1.506684
C	0.0	0.0	0.0
Cl	0.121618	1.511729	-2.310112
H	1.096913	0.0	0.0
C	0.333173	-1.169443	-2.227969
H	1.404823	-1.082052	-2.021273
H	0.153531	-1.113503	-3.302853
H	-0.034965	-2.130998	-1.86218
C	-1.835649	-0.13336	-1.656227
N	-3.003234	-0.261951	-1.727856
N	-0.423235	-1.215732	0.682843
H	0.163743	-1.998361	0.42412
H	-1.396924	-1.438376	0.498587
C	-0.555567	1.203261	0.739279
H	-1.652408	1.192805	0.739309
H	-0.210431	2.142383	0.308481
H	-0.211376	1.143244	1.772306
Br	3.642519	0.0	0.0
