18

C	-0.518463	0.035558	-1.448484
C	0.0	0.0	0.0
Cl	0.160545	-1.380181	-2.343676
H	1.1008	0.0	0.0
C	-2.039121	-0.0414	-1.544308
H	-2.34851	-0.116696	-2.587962
H	-2.484015	0.857568	-1.111403
H	-2.3725	-0.914671	-0.985987
C	-0.054235	1.241393	-2.138279
N	0.215436	2.239312	-2.697407
N	-0.515268	-1.219691	0.644945
H	-0.340724	-1.11643	1.639559
H	0.080799	-1.986998	0.348482
C	-0.472021	1.215813	0.784947
H	-1.545828	1.170016	0.989864
H	-0.237076	2.146553	0.265099
H	0.063973	1.238691	1.737577
Br	3.597383	0.0	0.0
