18

C	-0.319681	0.023647	-1.512833
C	0.0	0.0	0.0
Cl	-2.120301	0.190761	-1.784992
H	1.098218	0.0	0.0
C	0.391989	1.150762	-2.24778
H	0.243138	1.062755	-3.32566
H	1.458288	1.087924	-2.006846
H	0.000886	2.112963	-1.917064
C	0.039304	-1.26863	-2.105741
N	0.313895	-2.306054	-2.583719
N	-0.467964	-1.187087	0.692554
H	0.10969	-1.977985	0.442081
H	-1.427332	-1.393762	0.443867
C	-0.470917	1.247298	0.730773
H	-1.562827	1.318755	0.747328
H	-0.058721	2.159545	0.295278
H	-0.112055	1.17086	1.758012
Br	3.592091	0.0	0.0
