14

C	-0.541578	0.081476	-1.414194
C	0.0	0.0	0.0
Br	-0.191509	-1.590783	-2.372864
H	1.088676	0.0	0.0
H	-1.629181	0.163321	-1.403028
H	-0.357865	0.881153	0.542975
C	0.124427	1.235279	-2.143276
H	-0.126792	2.175377	-1.639883
H	1.209781	1.112079	-2.118731
H	-0.21675	1.29375	-3.178607
N	-0.578097	-1.159204	0.728429
O	0.175705	-2.000248	1.20668
O	-1.811389	-1.186277	0.803418
Br	3.579636	0.0	0.0
