14

C	-0.540661	0.047595	-1.422999
C	0.0	0.0	0.0
Br	-0.20325	-1.697794	-2.246952
H	1.088644	0.0	0.0
H	-1.62868	0.135671	-1.408496
H	-0.408301	-0.845578	0.552092
C	0.116196	1.144337	-2.237607
H	-0.138927	2.118412	-1.809698
H	1.201549	1.029846	-2.199136
H	-0.224284	1.121606	-3.274415
N	-0.512321	1.221628	0.6892
O	0.252717	2.162039	0.881179
O	-1.711574	1.21739	0.988295
Br	3.581774	0.0	0.0
