14

C	-0.400614	-0.020681	-1.461244
C	0.0	0.0	0.0
Br	-2.371213	-0.053481	-1.656839
H	1.092557	0.0	0.0
H	-0.10771	0.955674	-1.851716
H	-0.389215	0.875983	0.515094
C	0.227254	-1.113963	-2.302313
H	0.033224	-0.935962	-3.360307
H	-0.15066	-2.095713	-2.030206
H	1.305141	-1.095638	-2.116191
N	-0.490388	-1.170612	0.76569
O	-0.170077	-2.292593	0.374061
O	-1.190311	-0.948169	1.75593
Br	3.491515	0.0	0.0
