13

C	-0.388069	-0.002999	-1.466718
C	0.0	0.0	0.0
Cl	-2.16094	0.094955	-1.719843
H	1.089129	0.0	0.0
H	0.061589	0.819641	-2.017982
H	-0.382943	-0.90563	0.471665
N	0.071499	-1.255684	-2.15946
O	-0.16977	-2.322698	-1.604969
O	0.635344	-1.111471	-3.240977
N	-0.427629	1.187637	0.720957
H	0.209912	1.947694	0.524667
H	-1.367862	1.464431	0.471435
Br	3.556902	0.0	0.0
