13

C	-0.572882	-0.119925	-1.397434
C	0.0	0.0	0.0
Cl	-0.010927	-1.559486	-2.238132
H	1.098365	0.0	0.0
H	-1.660563	-0.158097	-1.350803
H	-0.358911	0.951621	0.398889
N	-0.264136	1.133625	-2.1947
O	-0.844803	2.132502	-1.76843
O	0.487826	1.095132	-3.155652
N	-0.563793	-1.093743	0.806344
H	-0.445947	-0.839337	1.780158
H	0.032448	-1.903025	0.66676
Br	3.630246	0.0	0.0
