13

C	-0.605982	-0.077148	-1.377874
C	0.0	0.0	0.0
Cl	0.049892	-1.414882	-2.334106
H	1.095602	0.0	0.0
H	-1.6879	-0.187567	-1.335574
H	-0.322429	-0.911133	0.514513
N	-0.403323	1.197808	-2.161033
O	0.538596	1.920344	-1.859529
O	-1.216092	1.408334	-3.060036
N	-0.590174	1.169868	0.667423
H	0.064822	1.935069	0.555848
H	-0.643126	0.981763	1.660115
Br	3.671218	0.0	0.0
