13

C	-0.478055	-0.020998	-1.434123
C	0.0	0.0	0.0
Cl	0.023242	1.401154	-2.341152
H	1.098659	0.0	0.0
H	-0.109775	-0.904255	-1.953999
H	-0.342977	-0.934337	0.451721
N	-1.991025	-0.152475	-1.44116
O	-2.388006	-1.250344	-1.053818
O	-2.699472	0.782948	-1.779039
N	-0.612463	1.123299	0.712663
H	-0.081098	1.957613	0.489429
H	-0.475161	0.967243	1.703885
Br	3.628764	0.0	0.0
