13

C	-0.627864	0.032902	-1.3737
C	0.0	0.0	0.0
Cl	-0.014185	-1.238677	-2.441524
H	1.092466	0.0	0.0
H	-1.710596	-0.059148	-1.32585
H	-0.31966	-0.93812	0.467173
N	-0.405557	1.367558	-2.03423
O	-1.402963	1.903606	-2.516947
O	0.731043	1.815206	-2.041653
N	-0.511792	1.170979	0.724295
H	0.280942	1.738901	0.993403
H	-0.99031	0.89247	1.569874
Br	3.646654	0.0	0.0
