16
Coordinates from ORCA-job run
  C   -0.40663543738544      0.00059492822354     -0.27061921109742
  C   1.10007387206761     -0.24978127823963     -0.26850408288091
  Cl  -0.79743748194021      1.04648655654092     -1.68358269407980
  H   1.35198350337857     -0.92909613566866      0.54796395183883
  H   1.42163817929043     -0.65246033661084     -1.22764835704586
  C   -1.09729946460981     -1.34094160439169     -0.47916127919522
  H   -0.75008664621767     -1.82547657662851     -1.39384059429217
  H   -0.89712247789573     -1.99965088285276      0.37103943016033
  H   -2.17575439827465     -1.19531014282415     -0.55788296107656
  C   -0.91006730026405      0.68932903565070      0.98684559676885
  H   -1.99737412378651      0.77292617831375      0.94149276752462
  H   -0.49022492318999      1.68750850218030      1.09888914777878
  H   -0.63615704428779      0.10334704310828      1.86835165701694
  N   1.89776422535384      0.98672585572613     -0.03912317996273
  O   1.97639922178355      1.38613484844617      1.12273686989066
  O   2.41130029597785      1.52066400902645     -1.01895706134833
