16
Coordinates from ORCA-job run
  C   -0.42259753664263      0.02898086796626     -0.24318210852302
  C   1.09196670588332     -0.11994427409505     -0.37174315758419
  Cl  -0.95751111250101      1.31051311182256     -1.38983122673895
  H   1.43102453850388     -0.93276161384127      0.27323027229671
  H   1.37125908711108     -0.29988283438710     -1.40862630186890
  C   -1.05499917205055     -1.28452716226586     -0.68498162874393
  H   -0.74147815049822     -1.55328323692064     -1.69565638394476
  H   -2.14233040910695     -1.19448480869662     -0.67721089274881
  H   -0.76809305809253     -2.08606514269355      0.00207479611891
  C   -0.87894641383479      0.41715566438074      1.15329692812863
  H   -0.51708274209843     -0.31424265728384      1.88098550052175
  H   -0.50662076572847      1.39801697761722      1.44399368749154
  H   -1.96981050712237      0.43662034529183      1.18361401169806
  N   1.83748502646148      1.09323857867042      0.06482546940151
  O   2.25807934255292      1.84600631418830     -0.81006320377052
  O   1.96965516716326      1.25365987024659      1.27827423826597
