16
Coordinates from ORCA-job run
  C   -0.42595973793324      0.13605475475123     -0.19646536493368
  C   1.02351604410900      0.54187185898292      0.06226202222985
  Cl  -0.79643276176272      0.46030379850320     -1.92876749293924
  H   1.19290457053136      1.57165005866885     -0.24817690890416
  H   1.25258540335454      0.40796946280578      1.12113927967636
  C   -0.70618191949801     -1.33064874680008      0.08520866110721
  H   -0.43420740523864     -1.57124623564695      1.11649973520874
  H   -0.14212334819749     -1.98598203770929     -0.57630255206014
  H   -1.77047098828178     -1.52771735605642     -0.05527215022682
  C   -1.31615895688563      1.03963604248366      0.64704654225648
  H   -1.12754637539653      2.09298400414596      0.43054905258368
  H   -1.13329307217299      0.85602602195088      1.70990698095016
  H   -2.36568769099724      0.82991454021385      0.43500144941228
  N   2.00602391844253     -0.29365857885051     -0.68257289596139
  O   2.49518215461704      0.18129821687845     -1.70440117557856
  O   2.24885016530981     -1.40745580432152     -0.21765518282076
