16
Coordinates from ORCA-job run
  C   -0.48521057471384      0.08269473808826     -0.41974228175790
  C   0.99234971067584      0.35513311551196     -0.71481422407381
  Cl  -1.31433462125650      0.50220945901878     -1.96904155354514
  H   1.14892574076071      1.40552466334361     -0.95607333047218
  H   1.34880860682036     -0.28867072466371     -1.51763325422374
  C   -0.75350146216431     -1.38339261877359     -0.12653400003956
  H   -0.36893211601343     -2.02075985253060     -0.92441517736186
  H   -1.82822962494877     -1.55015979333241     -0.03605134245850
  H   -0.27506626009082     -1.67739262643579      0.81009786485732
  C   -1.03371342494856      0.99159134196573      0.66664740872505
  H   -0.56642032651150      0.76155221817276      1.62651665823340
  H   -2.11111086362226      0.84476690226307      0.75981308129960
  H   -0.84464808201859      2.04093289825382      0.43455958407710
  N   1.82826468003849      0.05659409942573      0.48324430681707
  O   2.25399619116374     -1.09215211927971      0.59945064114190
  O   2.00882242682946      0.97252829897209      1.28497561878125
