13
Coordinates from ORCA-job run
  C   0.41117635156347      0.42862104721358      0.09687011515526
  C   -0.34848395768980     -0.40777421959696     -0.65564304585949
  C   0.43058647196491      0.56646256323447      1.59221093500801
  H   0.29108230045603     -0.38996856462916      2.09199692537969
  H   -0.37708418695630      1.23147257572351      1.90896751636267
  H   1.38229355050886      0.99936555178976      1.89921770957283
  C   1.26236171427961      1.32062078178891     -0.63451196821353
  N   1.95595196752928      2.08829704013830     -1.19893568860881
  N   -1.28942774678247     -1.37820420901676     -0.06500390013875
  O   -1.72757166637447     -1.13575241810947      1.05428232857650
  O   -1.55702229860112     -2.35452682483305     -0.75985911041364
  C   -0.25925831796750     -0.47350268181822     -2.07758420247010
  N   -0.17360418193050     -0.49511064188491     -3.25200761435065
