13
Coordinates from ORCA-job run
  C   0.48981130036999      0.18942245774815      0.18702704839226
  C   -0.53579066918051     -0.48301410974604     -0.38570815908341
  C   0.27309438470045      1.34256839429005      1.12593608147519
  H   0.69858947869764      1.10195883778751      2.10412911067195
  H   0.80508207077119      2.21927229075753      0.74818361790222
  H   -0.78269542615639      1.58304707349818      1.24074173543083
  C   1.86388291445901     -0.13376980142093     -0.05721937999529
  N   3.03194803587169     -0.25174169587993     -0.14775651974465
  N   -0.35100003468405     -1.60389824877862     -1.34159816293044
  O   -1.36565468933571     -1.96558536414157     -1.92992422060343
  O   0.77532889954563     -2.06188751594636     -1.46896396777942
  C   -1.89953215545386     -0.13703943152451     -0.15243074905808
  N   -3.00306410960508      0.20066711335653      0.07758356532226
