13
Coordinates from ORCA-job run
  C   0.48657465582521      0.20739187445286      0.17949069911408
  C   -0.54920042555610     -0.48490980473201     -0.34823618370101
  C   0.30051209972322      1.39525443314488      1.07891861827510
  H   0.77040011276438      1.18848736894053      2.04412702924751
  H   0.79955478209334      2.26754505328734      0.64943506425875
  H   -0.75219201373906      1.62764862458559      1.23523618946257
  C   1.84432496611347     -0.13776221178779     -0.12129716017041
  N   2.99292253582666     -0.30710048571403     -0.31560725025634
  N   -0.35998478734158     -1.65168005897375     -1.23858718552192
  O   -1.21768246984779     -1.79421907100064     -2.10444745883345
  O   0.61900546021275     -2.35988170530532     -1.04403801547134
  C   -1.91172868675287     -0.13694152842774     -0.11654602788709
  N   -3.02350622932165      0.18516751153009      0.10255168148356
