13
Coordinates from ORCA-job run
  C   0.49111692311439      0.34532837003289      0.09561439238102
  C   -0.43967659173922     -0.29868883810429     -0.65676682941627
  C   0.58737267023387      0.39911005761576      1.59632413946711
  H   -0.28324556923323      0.90577595388521      2.01642260499663
  H   1.49084072191397      0.93531952193238      1.88316602904994
  H   0.60649111909375     -0.60429015425487      2.02251350897926
  C   1.49075040244341      1.06319724462515     -0.63813051811380
  N   2.33381021538083      1.67241666998945     -1.19204263823439
  N   -1.54265521609354     -1.09074742280194     -0.07006112149940
  O   -2.23804196176134     -1.71289967921743     -0.86649121577236
  O   -1.67341748793595     -1.06837816148836      1.14865453898994
  C   -0.42872893731760     -0.28922832184028     -2.08236303094988
  N   -0.39361628809933     -0.25691524037368     -3.25883985987781
