13
Coordinates from ORCA-job run
  C   0.50878647973106      0.30151888945339      0.13840198146898
  C   -0.32319366790442     -0.41681231957836     -0.65987361639395
  C   0.26709809907792      0.75606043689957      1.55120162630054
  H   -0.47584292303142      1.55705350153715      1.56528657671231
  H   -0.12132304539887     -0.05225741464454      2.16856269660278
  H   1.19751279092516      1.13124328494575      1.97657026543554
  C   1.75568679573722      0.68577184938808     -0.45382724392215
  N   2.78771685732704      1.02864583167386     -0.90731975013110
  N   -1.65006569152541     -0.89335061168737     -0.21233518800456
  O   -2.10732597729866     -0.41590647471666      0.81985119139207
  O   -2.18268639038310     -1.73932993937887     -0.92424200469303
  C   0.01812596391327     -0.81391888885368     -1.98572294298581
  N   0.32651070883023     -1.12871814503832     -3.07755359178162
