13
Coordinates from ORCA-job run
  C   0.50186573184697      0.31522465184309      0.12913514686083
  C   -0.33871738318397     -0.40318338010873     -0.66122690398468
  C   0.32450496172593      0.67576749986140      1.57907779107913
  H   0.26614459548781     -0.22160424635683      2.19633634737895
  H   -0.60451440070487      1.22676090044579      1.73063120856727
  H   1.16580079985534      1.28534139978896      1.90567565889557
  C   1.69654305117295      0.78465388673419     -0.50816715188089
  N   2.69151930188625      1.19832857977091     -0.98528898654156
  N   -1.62120551005649     -0.95921141477921     -0.17796810895478
  O   -2.31293232966580     -1.52205875844506     -1.02041433551111
  O   -1.89374901891595     -0.81159738175409      1.00830718070399
  C   -0.06535405619581     -0.68246726819312     -2.03264222177250
  N   0.19009425674764     -0.88795446880733     -3.16345562484020
