13
Coordinates from ORCA-job run
  C   0.48030321745833      0.09449643043983      0.27013112953271
  C   -0.54667882210960     -0.36262328132778     -0.48438583752456
  C   0.37385146474049      1.33128319928313      1.11553389513025
  H   0.55702397381501      1.06666719475843      2.16097986243755
  H   -0.60474826670615      1.80201832595719      1.02991548519993
  H   1.14699940650674      2.04583607469890      0.82096667303649
  C   1.75657729305187     -0.55517617132734      0.31245570211382
  N   2.85809921834909     -0.94233857373657      0.46629214087168
  N   -0.46830990917704     -1.58275908419834     -1.32836337777800
  O   0.53039361938570     -2.28071124875333     -1.23056000833247
  O   -1.43587351817071     -1.77947637517066     -2.05776933819765
  C   -1.81132799548199      0.29236857739288     -0.53233632589797
  N   -2.83730968166173      0.86941493198366     -0.54186000059177
