13
Coordinates from ORCA-job run
  C   0.50941197554553      0.31971063027905      0.09853105648699
  C   -0.32615492064612     -0.41992005361501     -0.66803694935245
  C   0.32483910183533      0.66718996671098      1.54634488878726
  H   1.08412874525234      0.15908904449147      2.14573543475560
  H   0.46587519618829      1.74247833371472      1.67257227657067
  H   -0.65400415283908      0.38060990079460      1.92227876610027
  C   1.69282488446159      0.82718189091942     -0.52861291587618
  N   2.68242783462958      1.26298983380680     -0.99617240528557
  N   -1.57769419681129     -0.97188335171867     -0.11385635377336
  O   -1.49924555682438     -1.59208293988954      0.94141114387008
  O   -2.58890428768661     -0.75484108589593     -0.77323210411588
  C   -0.13349164943951     -0.69152900967758     -2.05158639025720
  N   0.02198702633433     -0.92799315992031     -3.19437644791021
