13
Coordinates from ORCA-job run
  C   0.47172565132501      0.13302288451373      0.26730261587284
  C   -0.51381666351453     -0.28894027472543     -0.55790124671115
  C   0.22875091181819      1.07484768765572      1.41135351740962
  H   0.84782629799044      1.96709649415855      1.28556117108074
  H   -0.81798872949100      1.37035720044475      1.47729082596278
  H   0.52777199336547      0.59775229073957      2.34834596612674
  C   1.82136020777867     -0.31700561110933      0.11122321915301
  N   2.95745188280222     -0.62717231860206      0.10833333528121
  N   -0.27265879820301     -1.25159979780878     -1.65614906953641
  O   0.80114844579996     -1.18374739375785     -2.23973616354374
  O   -1.18901962335367     -2.03803847626112     -1.87381857366796
  C   -1.87499416785244      0.10215521733008     -0.41071701803618
  N   -2.98755740846530      0.46127209742217     -0.27208857939149
