13
Coordinates from ORCA-job run
  C   0.50492765553899      0.32307688690194      0.08778116925047
  C   -0.36516917180364     -0.38372115551249     -0.67109611142978
  C   0.40956638585401      0.57503744879662      1.56363118457553
  H   -0.57198779785624      0.33093703403771      1.96602479166518
  H   1.15403288808412     -0.03206559349574      2.08701411923237
  H   0.63736193164013      1.62388221734100      1.75937786868378
  C   1.64108217141697      0.88536238304466     -0.57824761505340
  N   2.58558058539061      1.38522329930464     -1.07391970672471
  N   -1.57247121807840     -0.99143781282341     -0.08307117877137
  O   -1.43217506591090     -1.62665177627459      0.95728285809081
  O   -2.61605170765625     -0.80322064457681     -0.69990756260640
  C   -0.24752402169967     -0.56074463465533     -2.07811576101446
  N   -0.12817263491975     -0.72567765208821     -3.23775405589801
