13
Coordinates from ORCA-job run
  C   0.40629759609448      0.07015131191413      0.37620274885270
  C   -0.46772451719665     -0.32945434267015     -0.57599231802905
  C   0.16237292264625      1.26141669732478      1.25738496309725
  H   -0.79296668856697      1.73785694510276      1.03914723885140
  H   0.96680314770961      1.98903157950186      1.12187156744197
  H   0.17723856349018      0.94735667130629      2.30442119340428
  C   1.64589655405810     -0.61318818569041      0.58785881296637
  N   2.70146310789491     -1.06711278406609      0.84590817244740
  N   -0.19897518600346     -1.47909703642645     -1.46862069796381
  O   0.41241672030462     -2.42845531954560     -0.99630983224032
  O   -0.62182031602486     -1.36252662650356     -2.61464760186311
  C   -1.68955274735593      0.34962934118270     -0.84694469487799
  N   -2.70144915705028      0.92239174856974     -1.03127955208708
