13
Coordinates from ORCA-job run
  C   0.27390568405344      0.52470253950587      0.13859379368962
  C   -0.29549454078623     -0.39333209669426     -0.68643123424524
  C   0.45850801353427      0.43721892581107      1.62918277059774
  H   1.02102788574036      1.30259279100616      1.97693766110020
  H   -0.50907847000956      0.40939262764224      2.13337916455819
  H   0.98594895747421     -0.47660872031583      1.90404339043898
  C   0.74958485164017      1.71628458942605     -0.49938465621710
  N   1.16087539493906      2.71127771729227     -0.97846691669164
  N   -0.83992647918505     -1.68162196542355     -0.20429762118377
  O   -0.87342660834771     -1.86891929027855      1.00669045946708
  O   -1.21665806265356     -2.46199974112944     -1.07293502568228
  C   -0.41491181377197     -0.20571852440467     -2.09451477401735
  N   -0.50135481262743     -0.01226885243738     -3.25279701181443
