13
Coordinates from ORCA-job run
  C   0.48560005431375      0.16319477942509      0.22199368653462
  C   -0.54417026626692     -0.37401843552082     -0.47171721302737
  C   0.32134725682960      1.33345742213219      1.14828340670622
  H   0.63080224442499      1.04934203477500      2.15743544975546
  H   -0.70897435139881      1.68715794782894      1.17527272887323
  H   0.97355884748236      2.14822861191981      0.82290385845951
  C   1.80924276525966     -0.37379325901832      0.13131872085952
  N   2.93049632055618     -0.73213683302725      0.16671027108930
  N   -0.38020051286199     -1.55381933781242     -1.35086157036483
  O   0.67504832913506     -1.65906616019208     -1.96210369178745
  O   -1.33540463453967     -2.32354620565586     -1.37809084501597
  C   -1.88236540064940      0.10258232097959     -0.37545709471921
  N   -2.97398065228482      0.53441711416616     -0.28668770736304
