13
Coordinates from ORCA-job run
  C   0.42697066401906      0.08780397571958      0.34824485391231
  C   -0.50302863028287     -0.35771900884707     -0.52751160349262
  C   0.24321913261888      1.33116336216843      1.16988407916440
  H   0.31283420305835      1.07873290675514      2.23125821797559
  H   1.04579184303795      2.03931639046872      0.94787451986465
  H   -0.71829027766301      1.80605447260915      0.97637258492085
  C   1.67138502702234     -0.59566480597227      0.52973703373325
  N   2.73673425213475     -1.04477595752117      0.75391638457616
  N   -0.29264082851423     -1.55985382545633     -1.36534628000842
  O   -0.77828190573409     -1.50509080357074     -2.49086486145525
  O   0.33872091801782     -2.48630653515010     -0.87408486373679
  C   -1.73323393566202      0.31679509886878     -0.76935880152385
  N   -2.74918046205293      0.88954472992790     -0.93012126393030
