13
Coordinates from ORCA-job run
  C   0.48371331797127      0.14322218230103      0.23868026693447
  C   -0.54070680296531     -0.32807683802099     -0.50882856896701
  C   0.30831194586341      1.20847147626713      1.28215840507457
  H   0.62303828786514      0.82392282664384      2.25580321494058
  H   0.95079930181568      2.06004303221484      1.04314003530627
  H   -0.72584247090299      1.54572526430918      1.34699988643660
  C   1.81250354517452     -0.36830101996498      0.09299136549209
  N   2.93735384296304     -0.71706180079154      0.09186366064630
  N   -0.36516260678893     -1.40750461452064     -1.50657234518238
  O   -1.31248949497453     -2.17978712619397     -1.61495839507645
  O   0.69076820642318     -1.43727790082351     -2.12489426611303
  C   -1.88335254393383      0.12326822789825     -0.36489322380728
  N   -2.97893452851066      0.53335629068134     -0.23249003568473
