13
Coordinates from ORCA-job run
  C   0.20204114808759      0.45886730542977      0.24520307656781
  C   -0.49045328758211     -0.50672045238552     -0.40165012319471
  C   1.66500493074897      0.34044291909672      0.56106450159784
  H   2.19710796270357      1.20236310622897      0.15076720084907
  H   1.80755826786024      0.35088681203110      1.64501742781247
  H   2.09404768277284     -0.57484483611615      0.15343832137807
  C   -0.43826067147807      1.65461057443985      0.70189219194932
  N   -0.84789620032010      2.66808071587247      1.14031670699862
  N   -1.94321874504061     -0.39917300409273     -0.65975697426625
  O   -2.38412886325438      0.70571687344094     -0.94863097137121
  O   -2.57148258808072     -1.44815049279838     -0.55571135265674
  C   0.09340559733628     -1.73046877678464     -0.83544962192799
  N   0.61427476624651     -2.72261074436240     -1.19650038373630
