13
Coordinates from ORCA-job run
  C   0.47979713223341      0.09288519680148      0.26050186610983
  C   -0.54957522010005     -0.33779131539911     -0.50312561271167
  C   0.37354418153016      1.28821172428755      1.16631439810273
  H   1.24299377482171      1.93206264858500      1.01680069263049
  H   0.38916878592916      0.95543434781376      2.20824682663308
  H   -0.53650089836437      1.85851729293790      0.98343507430831
  C   1.75225026566785     -0.56496389816710      0.28017300756665
  N   2.85430305493125     -0.96157818577258      0.40718829108655
  N   -0.45983368490482     -1.52627254179773     -1.38350868876518
  O   -1.30939900757316     -1.59412575174142     -2.26765021694432
  O   0.42052723963289     -2.34253156892185     -1.14261813514757
  C   -1.81416763650236      0.31538430717320     -0.53133389786048
  N   -2.84410798730168      0.88376774420091     -0.49442360500841
