13
Coordinates from ORCA-job run
  C   0.47745646910901      0.14542688871769      0.24915815591978
  C   -0.54676115273161     -0.41186398897039     -0.43685890147413
  C   0.28663009824184      1.26480212583041      1.23166303827648
  H   0.87303024600340      2.13240600909510      0.91817785099723
  H   -0.76068765002759      1.55199610833630      1.32084664066938
  H   0.65964462096039      0.95413066461095      2.21125289611962
  C   1.82839431367925     -0.28784149724667      0.05962655238779
  N   2.97851940655502     -0.52811724703492     -0.02099577026802
  N   -0.34286129477909     -1.48560432030380     -1.43542661505356
  O   -1.09675897952057     -1.45105182777568     -2.40289384544253
  O   0.54608063775284     -2.29793567044131     -1.21620141256311
  C   -1.89714593674849      0.02149493275860     -0.31059673320196
  N   -3.00554077849439      0.39215782242372     -0.16975185636697
