13
Coordinates from ORCA-job run
  C   0.48239899429916      0.14298015063337      0.24055274905598
  C   -0.54433197652261     -0.37173120646195     -0.47444199630217
  C   0.36774828521125      1.41283855769544      1.03348508569938
  H   1.11285090307600      2.13035641462209      0.67973151356303
  H   0.58327675148375      1.20912437455565      2.08555572494630
  H   -0.62458946049712      1.85501451032838      0.94909764432855
  C   1.75229820315226     -0.51423480155595      0.30493445816340
  N   2.82976485667981     -0.96321744239149      0.46109181060581
  N   -0.43390773419325     -1.64863752849500     -1.21526973822629
  O   -1.45330398101576     -2.33142444086089     -1.23584293019515
  O   0.64508175875840     -1.91077635042196     -1.73041818349644
  C   -1.83421354319564      0.22825586086496     -0.53004012504666
  N   -2.88307305723624      0.76145190148733     -0.56943601309574
