13
Coordinates from ORCA-job run
  C   0.35278171240693      0.03042168402017      0.43122128670434
  C   -0.42598390214529     -0.28799605555264     -0.62820934869502
  C   0.17382608345566      1.29295643148333      1.22405611106079
  H   -0.01429496720534      1.04071711764905      2.27101189563798
  H   1.09425680265641      1.88153598794202      1.18920889058573
  H   -0.65197543696621      1.89505320709683      0.84601060329534
  C   1.42594806266229     -0.81805724010400      0.85202820054581
  N   2.34900149700090     -1.40944873105417      1.28229900742172
  N   -0.21190799960571     -1.51334186733435     -1.43083553665271
  O   0.16913083774242     -2.51529416146107     -0.83995641638730
  O   -0.43878705353679     -1.39897144451910     -2.63128164953757
  C   -1.47493649588035      0.54847531764782     -1.10462540041170
  N   -2.34705914058492      1.25494975418610     -1.45992764356741
