13
Coordinates from ORCA-job run
  C   0.47666451387842      0.36152102490737      0.07946823579777
  C   -0.49162136120539     -0.24445835699055     -0.64910026590546
  C   0.69884511041037      0.26650545598302      1.55951069939963
  H   0.08472197445329     -0.49955262249710      2.02444965366006
  H   0.46583260830887      1.23015382992766      2.02438370158155
  H   1.75640323715327      0.06213822695805      1.74487980771566
  C   1.39102372419095      1.19276666120097     -0.64384726082120
  N   2.15966519117437      1.89045164659632     -1.20253672454012
  N   -1.49533298925246     -1.13097415042220     -0.02698902926165
  O   -1.76311870318783     -2.15273031375400     -0.65131029806749
  O   -1.97892091433438     -0.77504359478635      1.04327435042731
  C   -0.60259513169242     -0.14838634502186     -2.06514159395110
  N   -0.70156725989706     -0.05139146210131     -3.23504127603495
