13
Coordinates from ORCA-job run
  C   -0.62035988600607     -0.43853149124386     -0.09467358693641
  C   0.87309854018271     -0.21118096986908      0.22410237999783
  F   -1.02472261901098     -1.48848947105345      0.71450432674115
  H   0.94781004850241      0.03301331529954      1.29096277752750
  H   -0.71964475734261     -0.76760252726919     -1.13302708353274
  C   -1.47021703813142      0.77408140371302      0.19511153393284
  H   -1.34992097365046      1.08085272480681      1.23649035311870
  H   -1.20498833496274      1.60757466566715     -0.45716481112776
  H   -2.51874759705386      0.52330633515557      0.02942014538961
  C   1.40157055858538      0.90998467851526     -0.55695433259422
  N   1.77974882092130      1.82017541867308     -1.19424174300503
  C   1.65035605199755     -1.42934595641792     -0.02652093040039
  N   2.25601718596879     -2.41383812597692     -0.22900902911107
