13
Coordinates from ORCA-job run
  C   -0.59791958688349     -0.18304320634691     -0.46384056023559
  C   0.85600812379616      0.28298780995480     -0.24614281813759
  F   -0.58394366554271     -1.56416114151941     -0.53383606645821
  H   0.86568303146322      1.38018094060258     -0.23473893116113
  H   -0.92446735021172      0.19001674462276     -1.43983794001089
  C   -1.52767554571751      0.25510114642804      0.64134216051983
  H   -1.21250183591272     -0.17062360151476      1.59534237179533
  H   -1.55003553579790      1.34420293187697      0.72445973481171
  H   -2.53701533220501     -0.09593880748494      0.42311074095017
  C   1.71297485913432     -0.17072937113832     -1.34684345192675
  N   2.37338408138845     -0.51641241832763     -2.25300704314980
  C   1.37241862803461     -0.19314375528959      1.04172971997640
  N   1.75309012845432     -0.55743727186359      2.09026208302651
