13
Coordinates from ORCA-job run
  C   -0.60674439105093      0.19764351240659     -0.42690421286909
  C   0.81585640888854     -0.36807020329440     -0.22973696631289
  F   -1.16487719831136     -0.53713672361749     -1.46131975253838
  H   0.71318736397891     -1.43233904325752      0.01548579933681
  H   -0.53790937397712      1.23631153998210     -0.76271630974504
  C   -1.46527197269784      0.06031666344392      0.80622575392262
  H   -1.07703403657117      0.66560275409017      1.62696459925235
  H   -1.51151669711719     -0.98445621590121      1.12160294766081
  H   -2.47756849106636      0.39520858419700      0.57604282190731
  C   1.49527140270593      0.30850231391538      0.87792922276078
  N   2.00461165292676      0.86318204202178      1.77834612645913
  C   1.59898977153087     -0.25214050715118     -1.46446660965927
  N   2.21300556076098     -0.15262471683513     -2.45945342017515
