13
Coordinates from ORCA-job run
  C   -0.56894515831183     -0.45003666883241     -0.24745090286520
  C   0.87061719755198     -0.19177309535432      0.24644980641437
  F   -0.92694053670044     -1.68884943853956      0.26026497990345
  H   0.84832943302077     -0.20080853388639      1.34311234769076
  H   -0.56506488756467     -0.53115605549119     -1.33824429915764
  C   -1.54741020161251      0.59208975760435      0.23582305012752
  H   -1.31709899043500      1.57376116041890     -0.18130898718182
  H   -2.55369620554552      0.30948004881363     -0.07617601297467
  H   -1.52886742595773      0.65215546012122      1.32635056385948
  C   1.34471224557387      1.11882801451357     -0.20576420370341
  N   1.68383960026329      2.17948801455415     -0.57678638376309
  C   1.77522405083275     -1.25355431587973     -0.20690866775802
  N   2.48630087888504     -2.10962434804221     -0.57936129059172
