13
Coordinates from ORCA-job run
  C   -0.68760238233116     -0.42025369258795     -0.41500634369465
  C   0.85721613844841     -0.43320429669922     -0.44636429484206
  F   -1.07448441951184     -1.70857028701595     -0.08054173082574
  H   1.16551720021009     -1.23932494796910     -1.12225266236170
  H   -1.03825559254579     -0.22675738747778     -1.43355968775329
  C   -1.27152451874674      0.55851734189667      0.57155403726622
  H   -0.93879627935376      0.32203867571913      1.58359981785848
  H   -2.35989878225482      0.49420393192232      0.54062378280568
  H   -0.97673954585837      1.58073880899988      0.32593232190694
  C   1.41055919236997     -0.70870738020209      0.88357733381515
  N   1.83349148916159     -0.92909074078308      1.95583268625300
  C   1.36194437547534      0.84016857787775     -0.96666575799436
  N   1.71957312493707      1.87124139631942     -1.39872950243365
