13
Coordinates from ORCA-job run
  C   -0.63479804291600     -0.14955493851371     -0.42430847130738
  C   0.86315433273013      0.19515238814399     -0.29867245703573
  F   -0.74261145979978     -1.52829969132975     -0.42973887997669
  H   0.96807197371511      1.28699857970650     -0.33274427194440
  H   -0.97885223963864      0.20864350539457     -1.39982387188233
  C   -1.46468615498015      0.41602151572860      0.70229802922999
  H   -2.50892094248853      0.13870018081330      0.55454428398446
  H   -1.13276099667643      0.01335153681372      1.66030285713433
  H   -1.39650730285477      1.50588629933947      0.72815895820584
  C   1.61895689399660     -0.37193884107987     -1.42087414113116
  N   2.19968265602005     -0.80464330814560     -2.34403554418328
  C   1.40348582302936     -0.27714603823639      0.98100692948992
  N   1.80578545986304     -0.63417118863481      2.02388657941640
