13
Coordinates from ORCA-job run
  C   -0.70606629944940     -0.38923792661218     -0.41331904805418
  C   0.83646915722442     -0.47800609932901     -0.43898463875109
  F   -1.15625887198306     -1.65372444815237     -0.06779886685672
  H   1.10649706495907     -1.30434641502193     -1.10684216632222
  H   -1.04362291368766     -0.18887450424682     -1.43496915397707
  C   -1.24407977565906      0.62641129263473      0.56205503108530
  H   -0.92509407754705      0.38386999983052      1.57718675128489
  H   -2.33429085752552      0.61471808952741      0.52935205207210
  H   -0.89944043784157      1.63065684298390      0.30722807314864
  C   1.37048348956488     -0.77028113033049      0.89517421689414
  N   1.77479461180224     -1.00553456743087      1.97142921488716
  C   1.40490921108431      0.76372464714582     -0.96948291407846
  N   1.81369969905840      1.77062421900129     -1.41302855133250
