13
Coordinates from ORCA-job run
  C   -0.60586607197701     -0.17265111805027     -0.45742829710108
  C   0.86435470105380      0.24611032725998     -0.25420974837929
  F   -0.64114807649905     -1.55472287665100     -0.49361648865933
  H   0.91333069721465      1.34225733900440     -0.26616808899004
  H   -0.92202658488625      0.18777440274072     -1.44154317048942
  C   -1.51615386038728      0.32544080843105      0.63851673493586
  H   -1.50236227290432      1.41651119404749      0.69178870786044
  H   -2.53729845060094      0.00211604262836      0.43288725542361
  H   -1.21180671703274     -0.08438209798258      1.60290750258418
  C   1.70133716030950     -0.26117749328394     -1.34690223203543
  N   2.34842754099270     -0.64804374091423     -2.24604888801272
  C   1.36816715296037     -0.22086630024935      1.04207645431578
  N   1.73904478175658     -0.57736648698064      2.09674025854744
