13
Coordinates from ORCA-job run
  C   -0.57937642664556     -0.44803918311562     -0.22642102659103
  C   0.86599888677941     -0.19982531213118      0.25543544675846
  F   -0.96466153284281     -1.65377433840749      0.33805562541589
  H   0.84424255800532     -0.15864061872876      1.35139913595483
  H   -0.57810895781580     -0.57956687156322     -1.31226645310481
  C   -1.53385723052246      0.63683448778039      0.20786356632523
  H   -1.28344652889369      1.59219720320848     -0.25599599428603
  H   -1.51176196267200      0.74855685932608      1.29420282666818
  H   -2.54666821851048      0.36144915224415     -0.08907608338757
  C   1.36902318116388      1.07746872113567     -0.25661735061453
  N   1.73230934037651      2.11089757594675     -0.67822360588173
  C   1.74675589644885     -1.30094527346452     -0.14853562491010
  N   2.43955099512882     -2.18861240223072     -0.47882046234679
