13
Coordinates from ORCA-job run
  C   -0.63874901513476     -0.02494465205629     -0.44376994263534
  C   0.87985784379517      0.17425082062729     -0.26223154283159
  F   -0.85383923079163     -1.36984751202632     -0.68426364580204
  H   1.06933667699665      1.24488240317594     -0.11429353770074
  H   -0.94082917273826      0.51989908738708     -1.34393199359509
  C   -1.43635430390587      0.40383586820657      0.76367232173097
  H   -1.15875377675103     -0.19284787398211      1.63408062636619
  H   -1.27151265739630      1.46074406927001      0.98580408319228
  H   -2.49848769956901      0.25349540101885      0.56659335757651
  C   1.60239953248752     -0.25573541006218     -1.46416480579928
  N   2.15611733733139     -0.57253171586754     -2.44904539688209
  C   1.36551513980880     -0.54456636277413      0.92058705708909
  N   1.72529932586731     -1.09763412291716      1.89096341929114
