13
Coordinates from ORCA-job run
  C   -0.63408630914148     -0.42287436320570     -0.07294937042510
  C   0.87435817263816     -0.23056740596114      0.19308450045994
  F   -1.03379542159875     -1.46514127935582      0.74836270729621
  H   0.99241198718211      0.01215554495869      1.25629514801530
  H   -0.77762109775997     -0.74691606628821     -1.10773379168447
  C   -1.44481159485516      0.80836662759880      0.24875884372495
  H   -2.50404793207596      0.58251588788440      0.11975163107574
  H   -1.28074771710186      1.10962616850879      1.28569576645370
  H   -1.18332470829450      1.63701021535747     -0.41113247417336
  C   1.40282791658134      0.87624581001547     -0.60841943008982
  N   1.78700510899242      1.77267691941542     -1.26146328361782
  C   1.61349081906012     -1.46694936013441     -0.08362039124874
  N   2.18834077637354     -2.46514869879376     -0.30762985578653
