13
Coordinates from ORCA-job run
  C   -0.68348202017811     -0.42118341954024     -0.41970571837125
  C   0.86005737186468     -0.48288586669915     -0.38426563863414
  F   -1.12566036541858     -1.67633459457842     -0.03200347493168
  H   1.16912837414806     -1.33556270882294     -0.99996985160927
  H   -0.98557383522106     -0.27440218429247     -1.46141323717158
  C   -1.27477193433407      0.62848550686373      0.48643010883012
  H   -0.98993458717394      0.43946966848118      1.52289511257846
  H   -0.93837861274006      1.62627865189544      0.19730481814981
  H   -2.36263230544118      0.59439169483960      0.41439604084887
  C   1.34870341462887     -0.69911147204103      0.98139131655917
  N   1.71718245815011     -0.87319158469284      2.08186235280072
  C   1.42749509729814      0.74172410668796     -0.95426292669248
  N   1.83686694441715      1.73232220189918     -1.43265890235675
