13
Coordinates from ORCA-job run
  C   -0.69334350477924     -0.38935853423894     -0.43284329849832
  C   0.84988710076855     -0.46519194337503     -0.42606348362465
  F   -1.14004503036770     -1.66165637640271     -0.11093174620077
  H   1.14231844529106     -1.27934417145443     -1.09933736711220
  H   -1.01116993084073     -0.18047374962116     -1.45921863719262
  C   -1.26081339307397      0.61049831096731      0.54225173920430
  H   -2.34990990097031      0.59058223465675      0.48527981081939
  H   -0.96234630364742      0.35821868517498      1.56127571634714
  H   -0.91893367066813      1.62050807750626      0.30699394430715
  C   1.35626161444193     -0.77224145203894      0.91541750132935
  N   1.73741256247192     -1.02227535660006      1.99681108463048
  C   1.41970656138958      0.78804167595419     -0.92707978045613
  N   1.83097544998447      1.80169259947178     -1.35255548355311
