16

C	-0.04485	0.00517	0.017928
C	-0.529766	-0.197552	-1.430396
F	1.357955	0.212531	-0.08801
H	0.378521	-0.402652	-2.018474
C	-0.572071	1.18179	0.721331
N	-0.668592	2.0977	1.454379
C	-0.240713	-1.236018	0.867004
H	-1.31244	-1.369668	0.987698
H	0.212781	-2.102389	0.378922
H	0.2475	-1.07324	1.829919
N	-1.075011	1.047	-2.074767
O	-0.506008	2.091884	-1.778142
O	-1.934264	0.916652	-2.934307
C	-1.452465	-1.311339	-1.61683
N	-1.958484	-2.334403	-1.898253
F	-2.432385	0.170349	-0.119063
