15
Coordinates from ORCA-job run
  C   -0.67228453751629      0.03499577188551     -0.20884301562037
  C   0.70993037154376     -0.55872250197321     -0.05280652294394
  Cl  -0.98719518018410      0.67298745596822     -1.79500148071256
  H   0.81075979203981     -0.84487772967735      0.99601768859996
  H   0.71068032207391     -1.47561552803924     -0.65187306570721
  N   -1.69078191489531     -1.06455251529345      0.14783180397195
  O   -1.73019236944400     -1.31993662971566      1.34529017056753
  O   -2.29765935529564     -1.61606642360770     -0.75303335758751
  N   -0.97972997713675      1.12582756909403      0.82441855949701
  O   -0.09723595833034      1.40345153446677      1.62592760952873
  O   -2.10419549755591      1.60125007901627      0.76762964426176
  C   1.85688681141783      0.34796657071572     -0.48412126383102
  H   1.82003276997322      0.56009583815234     -1.55241200053405
  H   1.84707425209962      1.28785545876456      0.06542081089364
  H   2.80291047121020     -0.15465894975681     -0.27444558038393
