15
Coordinates from ORCA-job run
  C   -0.81323210098924      0.15519623381004     -0.35419331915437
  C   0.61543119676716      0.15879607930002     -0.85256573600336
  Cl  -1.95683296932516      0.36412161448151     -1.65937351635253
  H   0.63408583059657     -0.51897021138730     -1.71040686809310
  H   0.81550644864014      1.16546824084327     -1.22502974539886
  N   -1.05971236965936     -1.16980362830166      0.36941861697209
  O   -0.85542498514348     -1.16066546389817      1.57639887383368
  O   -1.31745056049896     -2.13298175243182     -0.33498110667533
  N   -1.10468240189057      1.24597771053769      0.67739508706156
  O   -2.21562395782858      1.21476616574370      1.18394858822542
  O   -0.21513446872485      2.06158219489955      0.88775801000534
  C   1.65962781205434     -0.26579580610422      0.17556842169809
  H   2.65142189068564     -0.14288663385690     -0.26343385183601
  H   1.55046966320016     -1.31598842113602      0.45092848789454
  H   1.61155097211622      0.34018367750030      1.07856805782286
