15
Coordinates from ORCA-job run
  C   -0.81608614418278      0.16949314624495     -0.34156729211448
  C   0.60539231456159      0.15481643031513     -0.86031189318355
  Cl  -1.97471410525672      0.40240767074568     -1.62915936272735
  H   0.81502656607810      1.16094504036431     -1.22899892217994
  H   0.60166049910674     -0.51719718436565     -1.72282811317513
  N   -1.07172187631409     -1.15565560486869      0.37815138036486
  O   -1.35336285904460     -2.11125325595928     -0.32728363410366
  O   -0.84942823258197     -1.15609015860947      1.58199809653804
  N   -1.07652618416370      1.25851295933329      0.70019494216844
  O   -2.18078186586426      1.24162263213829      1.22156489547290
  O   -0.17158803860835      2.05895042310944      0.90277855386918
  C   1.65752946324436     -0.29201113382615      0.15001330124133
  H   2.64479750450746     -0.18045901059312     -0.30202009341952
  H   1.53684098637845     -1.34239735835591      0.41980943033930
  H   1.63096197213979      0.30831540432718      1.05765871090957
