15
Coordinates from ORCA-job run
  C   -0.82468924975030      0.00024349973455     -0.36230694803825
  C   0.59615862635349      0.07758814894102     -0.87720380612056
  Cl  -1.99218125535696      0.25596223294316     -1.63750969285861
  H   0.64290214182864      0.98180047400788     -1.49020152170961
  H   0.73572376165660     -0.77724981943755     -1.54199324522530
  N   -1.16496859642836     -1.33692991232431      0.29742007185312
  O   -2.26716535034213     -1.40674370911114      0.81874949073684
  O   -0.31941060041739     -2.22048853598869      0.22664420938994
  N   -0.98893976483506      1.05242574555313      0.73555398685747
  O   -0.77153842325432      0.66580709052537      1.87657417144513
  O   -1.20000405223141      2.19605311931900      0.36448271595155
  C   1.67349339043810      0.11768151313646      0.20221655551719
  H   1.62613471684071      1.03900669537438      0.78495504179629
  H   1.60140325151392     -0.73038935545274      0.88081624765912
  H   2.65208140398448      0.08423281277950     -0.28019727725430
