15
Coordinates from ORCA-job run
  C   -0.68908715436957      0.12472615318269     -0.21710498469850
  C   0.77601760299014      0.48113786759687     -0.28044834993157
  Cl  -1.30507958359271     -0.53923065391108     -1.70613368861664
  H   1.00875536346477      1.04800629481977      0.62329739316842
  H   0.91122783627275      1.14918203705700     -1.13254226906229
  N   -0.89714611618800     -0.84188049957628      0.95169063504981
  O   -0.65594724642359     -0.33220249759834      2.03973009790610
  O   -1.20478711147530     -1.99839701938457      0.72204720248426
  N   -1.56462443114726      1.32863050363498      0.13886249801562
  O   -1.07022687129779      2.43554793776547     -0.02410279516797
  O   -2.69506360344166      1.06619829443500      0.52274841797218
  C   1.66799053999485     -0.75145379563398     -0.39022594096728
  H   2.70610668019465     -0.43596056033126     -0.50469257293460
  H   1.40495621131108     -1.36787000317481     -1.25062186776166
  H   1.60890788370761     -1.36843405888146      0.50849622454412
