15
Coordinates from ORCA-job run
  C   -0.69211436610778     -0.03918847663859     -0.12749364188975
  C   0.73102774849436      0.44451256452367     -0.29527342568163
  Cl  -1.21629360960339     -1.12447698751471     -1.38006953929757
  H   0.96360151781761      1.04489008309344      0.58647920824671
  H   0.71847610942413      1.11363935804329     -1.16232605697002
  N   -0.94635170593784     -0.70436154269075      1.23119395526212
  O   0.00206031820205     -0.78778193764648      2.00045369874811
  O   -2.09593485302158     -1.06771861561852      1.43132206024862
  N   -1.60004327992259      1.20420778838212     -0.06870975891955
  O   -2.27580505561191      1.48410230827801     -1.04285432097833
  O   -1.48685565632422      1.83830768685825      0.97334524554080
  C   1.76910019993063     -0.65321188684935     -0.49782151707070
  H   2.75974225008277     -0.19766750937234     -0.54953813399894
  H   1.76681860640186     -1.35849333982482      0.33168114047350
  H   1.60157177617585     -1.19675949302322     -1.42738891371346
