15
Coordinates from ORCA-job run
  C   -0.70465630112744     -0.05507822243469     -0.19556525333144
  C   0.69799584780753     -0.61137589888843     -0.22676686674443
  Cl  -1.26195481648716      0.50613264869680     -1.74841666899763
  H   0.87395713925539     -1.09334057169053      0.73708550523396
  H   0.72254867836572     -1.38775028044633     -0.99308982568555
  N   -1.72426160153608     -1.07926216620815      0.30930978690069
  O   -1.38405107516704     -2.25392202338547      0.28134903870224
  O   -2.80134747012230     -0.62325763055925      0.66428195041614
  N   -0.75436960786535      1.06127249767390      0.85075861318031
  O   -0.55907033122176      0.65548868940857      1.99048214803361
  O   -0.90954241015361      2.21377858660999      0.48633161861114
  C   1.74327651582274      0.46767633876237     -0.49117713307121
  H   2.72705515942010      0.00355296648593     -0.57532254244173
  H   1.54374421925082      1.00803789517107     -1.41726017764181
  H   1.78867605375844      1.18904717080421      0.32699980683570
