15
Coordinates from ORCA-job run
  C   -0.85127959346208      0.08741489258000     -0.28076256581192
  C   0.52139266730009      0.15385562017112     -0.91425617920856
  Cl  -2.12285658749525      0.15902993798201     -1.47780585021253
  H   0.50424801530866     -0.56280557882170     -1.73986426839527
  H   0.61915359314251      1.15134043368780     -1.34740029325736
  N   -0.94094451667950     -1.21206560311442      0.52113386567013
  O   -1.19849462608935     -2.22377224251004     -0.11155449755618
  O   -0.62614358036325     -1.12911942710745      1.70127594874492
  N   -1.11636250170661      1.20865020860467      0.72489674801659
  O   -0.26554587407548      2.08553240907177      0.81379819052949
  O   -2.17149305484467      1.13597157970154      1.33568782302270
  C   1.68235218440737     -0.15497610790664      0.02612987743029
  H   2.61899386768879      0.01131645879992     -0.50912844289113
  H   1.67632899300716      0.48704550011472      0.90515644494453
  H   1.67065101386163     -1.19641808125327      0.35169319897428
