18

C	-0.562003	0.026066	-1.404325
C	0.0	0.0	0.0
Br	0.392834	1.394592	-2.438247
H	1.08794	0.0	0.0
N	-0.171522	-1.282481	-2.165681
O	-0.894023	-1.574675	-3.118024
O	0.812727	-1.897112	-1.796718
N	-1.950146	0.287862	-1.505165
H	-2.422018	-0.445974	-0.986576
H	-2.231906	0.228023	-2.476736
N	-0.477517	-1.201454	0.713827
O	-0.047036	-1.388596	1.849004
O	-1.292576	-1.959615	0.159827
C	-0.396007	1.217547	0.822224
H	-1.474742	1.288669	0.987717
H	0.132742	1.159615	1.772857
H	-0.058327	2.113968	0.304101
F	2.508309	0.0	0.0
