18

C	-0.126791	-0.050258	-1.544027
C	0.0	0.0	0.0
Br	-1.803408	-0.852396	-2.177383
H	1.093399	0.0	0.0
N	-0.150181	1.435387	-1.974764
O	-1.222829	2.025551	-2.053321
O	0.955183	1.943016	-2.122647
N	0.986182	-0.655909	-2.193681
H	1.804136	-0.406686	-1.594902
H	0.869733	-1.657245	-2.087287
N	-0.407548	-1.309117	0.556476
O	0.038999	-2.326289	0.023599
O	-1.14718	-1.327006	1.543887
C	-0.64221	1.147686	0.73124
H	-0.459965	1.034834	1.799307
H	-0.172908	2.078898	0.411986
H	-1.720201	1.20582	0.563135
F	2.589071	0.0	0.0
