18

C	-0.104068	0.04771	-1.540409
C	0.0	0.0	0.0
Br	0.050372	-1.764831	-2.265093
H	1.09193	0.0	0.0
N	-1.433091	0.643648	-2.011474
O	-1.466649	1.876643	-2.016793
O	-2.38152	-0.086921	-2.267453
N	0.965576	0.825049	-2.075334
H	1.801581	0.575492	-1.499665
H	0.744052	1.802701	-1.915604
N	-0.65331	-1.176742	0.611182
O	-1.87822	-1.257884	0.47843
O	0.033784	-1.973139	1.242658
C	-0.516741	1.242971	0.696401
H	-0.007551	2.120328	0.300368
H	-1.595966	1.368915	0.591969
H	-0.263124	1.167481	1.75658
F	2.635652	0.0	0.0
