14
Coordinates from ORCA-job run
  C   -0.10784440017987      0.35622581098888      0.25963823208137
  C   0.93618685684632      0.01768653897456     -0.80979468264332
  Cl  0.82464949848058      0.60000256720291      1.83304312652620
  H   1.66225833600223      0.83243861230297     -0.88382943388505
  H   0.41415239634438     -0.05779631974943     -1.76825808335594
  N   -0.79058798619774      1.53491254730868     -0.15235674945036
  H   -0.15689544350852      2.32198472933187     -0.22793827629089
  H   -1.52145351448570      1.77732275507275      0.50543428993977
  C   -1.09114585105680     -0.77257660706283      0.49318661334338
  H   -0.57793137143167     -1.67802037856242      0.81532462264656
  H   -1.80667505252432     -0.49133405376427      1.26862605551971
  H   -1.63447305442095     -0.96897809771345     -0.43427862329455
  C   1.64672153759932     -1.22910214606636     -0.54630471916751
  N   2.20203804853274     -2.24376595826386     -0.35049237196938
