14
Coordinates from ORCA-job run
  C   -0.13566171858390      0.30543750550063      0.52204176942689
  C   1.23741476169042     -0.19698592698534      0.02055611033797
  Cl  0.14045601738547      0.76380829729892      2.24423806730189
  H   1.56816310298976     -1.06214023939205      0.60141297606894
  H   1.98198991419239      0.59335208509241      0.15154061489792
  N   -0.62876951779656      1.47203326553158     -0.16011978523011
  H   -0.89656543570847      1.23611492784984     -1.10892964649114
  H   0.06541976610466      2.20965225214534     -0.18350539079165
  C   -1.18390623779934     -0.78947020248583      0.47145350202284
  H   -0.86381180128828     -1.66051934368829      1.04454488296415
  H   -1.35626975328273     -1.09493365512490     -0.56472754555842
  H   -2.11649972604138     -0.40927505965743      0.88756394576756
  C   1.15497432694667     -0.55137363291060     -1.39440184096808
  N   1.03206630119128     -0.81470027317428     -2.53166765974878
