14
Coordinates from ORCA-job run
  C   -0.04492266776414      0.28087242948602      0.44014148300305
  C   1.23103012250269     -0.26466407115122     -0.21025895730119
  Cl  0.45590876229792      0.63784361988880      2.19236042962862
  H   1.60195962746899     -1.11665005628471      0.36376010850904
  H   2.01124687918170      0.50202110781970     -0.18851138663380
  N   -0.47463812307771      1.43886428994163     -0.24878929295323
  H   0.22452674350483      2.17087673483597     -0.24501933586795
  H   -1.33975593491027      1.80342480549543      0.12850726440933
  C   -1.15483692744676     -0.74910640617184      0.50207898719917
  H   -1.45943908235147     -1.01169941879104     -0.51317647491303
  H   -0.82297293345731     -1.64466389311382      1.02806521581667
  H   -2.01498667590168     -0.34122618605871      1.03708000891839
  C   0.99017406059697     -0.67674916440692     -1.59196977401456
  N   0.79770614935622     -1.02914379148929     -2.69426827580050
