14
Coordinates from ORCA-job run
  C   -0.14107872933362      0.07656730951860      0.32599960228432
  C   0.77920476550874     -0.63927231372233     -0.66767325292504
  Cl  0.66626132336615     -0.09281267920135      1.98376585508285
  H   0.97917992196080     -1.65568503075931     -0.32311979636863
  H   0.26124826391812     -0.68896965473421     -1.63032937733583
  N   -0.31323775665418      1.42792089854184     -0.06450891133188
  H   -0.95212068556535      1.91016870292219      0.55510572439771
  H   0.56577940843471      1.93226110974550     -0.08393145192642
  C   -1.48159649782091     -0.62692367372595      0.42156128659497
  H   -1.35252056900214     -1.67246807401371      0.70238047043537
  H   -1.98822701802633     -0.56298342023470     -0.54405692781832
  H   -2.10520017545047     -0.14806743214353      1.17902448488105
  C   2.04310250505361      0.06835086937137     -0.85356186484979
  N   3.03920524361091      0.67091338843557     -1.00065584112035
