14
Coordinates from ORCA-job run
  C   -0.14923841520672      0.07029314377455      0.43015354008543
  C   0.81286209647996     -0.58373610514071     -0.58630320131832
  Cl  0.63834525878641     -0.07265528094913      2.04323763940093
  H   0.30393350634744     -0.63882479949135     -1.55519904120445
  H   1.06208546387780     -1.60202361962572     -0.27754735761938
  N   -0.40791031399061      1.46873609651155      0.20715273264532
  H   -0.91311279927400      1.59683860580633     -0.66222151294587
  H   0.45384626349501      2.00180923854722      0.17326885679854
  C   -1.46283837740849     -0.68875576536170      0.46195183813360
  H   -2.10887176163268     -0.25492465810048      1.22448699108705
  H   -1.96131664098884     -0.60921472351014     -0.50958870528549
  H   -1.29943272117248     -1.74365445381955      0.68629727852293
  C   2.03745311166347      0.19315886716401     -0.75128480687186
  N   2.99319532902373      0.86095345419510     -0.88440425142843
