14
Coordinates from ORCA-job run
  C   -0.13519023685602      0.10114324991481      0.32203258140669
  C   0.79616470206626     -0.65862817901156     -0.62764596850527
  Cl  0.73107601679362      0.14873583529335      1.95798057953386
  H   0.25302286696540     -0.83566539386354     -1.56095780627325
  H   1.06734271065477     -1.62139536093925     -0.19020253304297
  N   -0.40062678550572      1.39347545600852     -0.19541909689999
  H   -1.04968933226790      1.89875497790724      0.39454242763240
  H   0.44507659704739      1.94309554567838     -0.29589414883853
  C   -1.42701786028917     -0.66440911329226      0.53634079543206
  H   -2.05519451782948     -0.14703730078388      1.26411660346756
  H   -1.96574174967753     -0.72878523129015     -0.41171971816958
  H   -1.22631533320269     -1.66662546798009      0.91576104967812
  C   2.00860244372003      0.09742071129261     -0.93000448230281
  N   2.95749047838103      0.74092027106582     -1.17993028311831
