14
Coordinates from ORCA-job run
  C   -0.15669021698374      0.04094578196601      0.43105529959461
  C   0.79839582685425     -0.57114507871728     -0.61786146266074
  Cl  0.58111604225910     -0.28018902889720      2.04193654219154
  H   0.99068012525574     -1.62332472783886     -0.39358241211567
  H   0.31223445757688     -0.51778764129767     -1.59847755297309
  N   -0.34143452940761      1.46466342420744      0.32550443402718
  H   0.54586797515459      1.95430316889597      0.35647672762053
  H   -0.81709600248092      1.69227084719215     -0.54020722972994
  C   -1.50604770022433     -0.65060559378739      0.36811779475309
  H   -2.14938832255174     -0.25300780759217      1.15238000231965
  H   -1.39974764162598     -1.72798656842516      0.50154371595683
  H   -1.97538170074732     -0.46135200908807     -0.60275364920260
  C   2.06243815873194      0.15480537646959     -0.68794765410403
  N   3.05405352818918      0.78040985691263     -0.73718455567737
