14
Coordinates from ORCA-job run
  C   0.02111408636094      0.24842569413201      0.54327135232577
  C   1.26335698953722     -0.35129120705467     -0.13047362899227
  Cl  0.43033546059452      0.41701933864675      2.28828200299605
  H   2.10668549214528      0.32166481011589      0.03891525696660
  H   1.49796830148647     -1.32283699339046      0.31069058647797
  N   -0.17487412352460      1.58433258190490      0.02341574583192
  H   -0.40986694330537      1.53101433991157     -0.96321579429305
  H   -0.94505532632571      2.03295657844073      0.50653845562804
  C   -1.18559075511095     -0.67408035810674      0.43865316420051
  H   -2.03214455088527     -0.23759403169624      0.97212078625505
  H   -0.97878073428724     -1.65682126887493      0.86753738026291
  H   -1.46150040864450     -0.79679539394208     -0.61246062204116
  C   1.04487132637481     -0.50281925692355     -1.56753202589470
  N   0.82248118558440     -0.59117483316316     -2.71674265972364
