14
Coordinates from ORCA-job run
  C   -0.10681446831778      0.34535902814484      0.39355624006698
  C   0.95431008854040      0.07974908013201     -0.69472744686357
  Cl  0.77964498902145      0.46259913249623      1.95584506217571
  H   1.69475426154176      0.88437471226089     -0.67667818137291
  H   0.45471620544045      0.10621686924269     -1.66944963624667
  N   -0.79916305346692      1.59657029963404      0.20401408631654
  H   -0.14779215152838      2.36553697285908      0.09717955105145
  H   -1.39427177459109      1.54600209475863     -0.61497682049100
  C   -1.11740467160195     -0.78084681273541      0.48573403509903
  H   -1.63964088843454     -0.88812280723787     -0.47098466480750
  H   -1.84533533132730     -0.54298605323652      1.26096031717880
  H   -0.63168823515113     -1.72683313198729      0.72394408046972
  C   1.63684911198132     -1.20343616029668     -0.55230109550961
  N   2.16383591789370     -2.24618322403463     -0.44211552706695
