14
Coordinates from ORCA-job run
  C   -0.02076957110325      0.39126803006635      0.32016863088996
  C   1.01064144624412      0.03754039952413     -0.75784448378087
  Cl  0.85581438915583      0.60334812985395      1.87289232465069
  H   0.51079792127636      0.04073273439928     -1.73325718682846
  H   1.77253812459121      0.81918520270285     -0.77232767907619
  N   -0.56253938922023      1.69095105553898     -0.03739845119394
  H   -1.12338980985109      2.04837983966095      0.72806078893141
  H   -1.17203496357728      1.58346119558563     -0.84264441481470
  C   -1.05657248229469     -0.70648285662478      0.51356412201444
  H   -0.59837464126799     -1.64685193586430      0.82306618191608
  H   -1.59097091361003     -0.86948546531095     -0.42822593278170
  H   -1.77793224180501     -0.40317552010291      1.27457589068730
  C   1.63251704190038     -1.26731954836611     -0.55628075343284
  N   2.12027508956168     -2.32355126106313     -0.40434903718117
