16

C	-0.28976	-0.049689	-1.517136
C	0.0	0.0	0.0
Br	0.015637	1.844244	-2.292032
H	1.097349	0.0	0.0
N	0.558353	-1.003948	-2.087825
H	1.518292	-0.873091	-1.763221
H	0.50476	-1.042315	-3.095096
C	-1.699807	-0.285191	-1.835624
N	-2.84203	-0.461737	-2.054725
C	-0.461921	-1.268746	0.56451
N	-0.857995	-2.251539	1.073032
C	-0.581935	1.168036	0.783093
H	-0.090155	2.095136	0.495177
H	-1.659714	1.259575	0.620694
H	-0.402681	1.00056	1.846598
Cl	3.281109	0.0	0.0
