16

C	-0.251025	0.059828	-1.524905
C	0.0	0.0	0.0
Br	-2.141928	0.545805	-1.913356
H	1.099779	0.0	0.0
N	0.599531	1.003594	-2.212546
H	1.563935	0.771987	-1.951786
H	0.410114	1.934664	-1.857806
C	-0.056551	-1.263768	-2.128632
N	0.095855	-2.319731	-2.62209
C	-0.553535	-1.197101	0.612284
N	-1.035056	-2.133972	1.134009
C	-0.432405	1.249023	0.7656
H	3.5e-05	1.204902	1.767042
H	-0.037375	2.144559	0.282141
H	-1.517954	1.328132	0.842698
Cl	3.258866	0.0	0.0
