16

C	-0.299284	0.028105	-1.515026
C	0.0	0.0	0.0
Br	0.002142	1.956534	-2.196675
H	1.093478	0.0	0.0
N	0.537452	-0.901001	-2.139834
H	1.503368	-0.794187	-1.820632
H	0.47088	-0.896913	-3.148782
C	-1.710428	-0.193386	-1.836727
N	-2.847082	-0.38031	-2.071961
C	-0.464989	-1.292345	0.505607
N	-0.880669	-2.292306	0.961088
C	-0.573571	1.131483	0.842856
H	-0.082669	2.068962	0.594824
H	-0.384689	0.914073	1.894407
H	-1.651731	1.233751	0.696581
Cl	3.283168	0.0	0.0
