16

C	-0.254456	0.071014	-1.514188
C	0.0	0.0	0.0
Br	-2.158773	0.540665	-1.922011
H	1.099912	0.0	0.0
N	0.593264	1.095321	-2.047413
H	1.536156	0.956362	-1.671779
H	0.623438	1.046676	-3.057076
C	-0.08025	-1.243135	-2.153408
N	0.093678	-2.262819	-2.714101
C	-0.537851	-1.211473	0.596746
N	-0.981331	-2.163585	1.123456
C	-0.450017	1.250186	0.754418
H	0.023763	1.250527	1.738017
H	-1.534159	1.281081	0.874926
H	-0.118501	2.13313	0.208065
Cl	3.258166	0.0	0.0
