16

C	-0.408083	0.163081	-1.462045
C	0.0	0.0	0.0
Br	-2.533434	0.058737	-1.545682
H	1.107419	0.0	0.0
N	0.059709	1.344607	-2.019553
H	-0.16182	1.458619	-2.997401
H	-0.156212	2.166993	-1.477853
C	-0.036591	-0.982606	-2.289485
N	0.25435	-1.877659	-2.994023
C	-0.488467	-1.261374	0.540726
N	-0.886032	-2.254667	1.026194
C	-0.416742	1.172919	0.890658
H	-1.490741	1.365292	0.842302
H	0.147159	2.067259	0.615847
H	-0.140549	0.939987	1.920067
Cl	3.245705	0.0	0.0
