16

C	-0.53995	-0.026857	-1.438947
C	0.0	0.0	0.0
Br	0.375106	-1.529524	-2.424132
H	1.107702	0.0	0.0
N	-1.961476	-0.156719	-1.460852
H	-2.23268	-1.009293	-0.981593
H	-2.304837	-0.192005	-2.413245
C	-0.172412	1.187233	-2.171093
N	0.031663	2.171255	-2.780322
C	-0.485262	-1.194939	0.684997
N	-0.951291	-2.124042	1.234461
C	-0.457814	1.25996	0.745016
H	-0.063661	1.224598	1.762167
H	-0.034491	2.140007	0.257471
H	-1.545444	1.343962	0.773398
Cl	3.277813	0.0	0.0
