16

C	-0.322776	0.006287	-1.517148
C	0.0	0.0	0.0
Br	0.137652	1.779478	-2.257595
H	1.1078	0.0	0.0
N	0.437162	-0.971091	-2.25995
H	0.133436	-1.899315	-1.976481
H	1.416502	-0.864534	-1.985258
C	-1.759223	-0.170841	-1.761946
N	-2.914176	-0.323528	-1.918506
C	-0.443451	-1.299483	0.503551
N	-0.83645	-2.33667	0.893839
C	-0.577687	1.130031	0.842016
H	-0.334389	0.954302	1.892328
H	-0.130158	2.077568	0.545099
H	-1.666008	1.191586	0.739967
Cl	3.279736	0.0	0.0
