15

C	0.0	0.0	0.0
C	-0.511089	-0.155667	-1.418292
Cl	1.784503	0.0	0.0
H	0.174355	-0.777488	-1.997588
H	-0.351909	0.937471	0.414877
C	-0.393518	-1.186141	0.877884
H	-1.477702	-1.177959	0.956381
H	0.07271	-1.078699	1.860389
H	-0.03562	-2.119731	0.434329
N	-0.470542	1.170567	-2.145911
O	-0.591218	2.207584	-1.500927
O	-0.324393	1.109939	-3.365567
C	-1.872976	-0.742736	-1.585075
N	-2.499213	-1.45645	-2.294978
F	-2.617577	0.0	0.0
