15

C	0.0	0.0	0.0
C	-0.544198	0.012725	-1.420837
Cl	1.788647	0.0	0.0
H	0.233931	-0.301198	-2.12672
H	-0.339803	0.889787	0.514966
C	-0.394557	-1.256628	0.772076
H	-1.481024	-1.23407	0.845005
H	0.07561	-1.232131	1.758156
H	-0.047757	-2.154456	0.251586
N	-0.861293	1.428128	-1.879684
O	-0.586644	2.371263	-1.148934
O	-1.32001	1.524435	-3.013522
C	-1.725212	-0.838812	-1.66246
N	-2.273966	-1.701277	-2.256402
F	-2.606469	0.0	0.0
