14
Coordinates from ORCA-job run
  C   -0.48382931770205      0.06977206483678      0.37521193985906
  C   1.03401317317159     -0.13672786077376      0.11034077820907
  Br  -0.59633066962803      1.04474203694465      2.12834580613410
  H   1.45474474000419     -0.77009978907664      0.90097179604095
  N   -1.02216593772117      0.94743983976593     -0.62156195462395
  H   -1.80598362576284      1.48570064582404     -0.28104468099524
  H   -1.29130765468546      0.40810571954984     -1.43763492277524
  N   -1.10528590099797     -1.20368564739336      0.40496097774355
  H   -0.73397937473176     -1.81079337687251      1.12623865702199
  H   -2.10729419037246     -1.11767226034226      0.52318770450784
  C   1.76185049505329      1.13350507480201      0.09339762131198
  N   2.38929139594540      2.12510048946259      0.07616182851466
  C   1.19494822213361     -0.81814438963765     -1.18034154736859
  N   1.31132864529365     -1.35624254708968     -2.21723400358021
