14
Coordinates from ORCA-job run
  C   -0.47903247804092      0.02010849183166      0.38831705739417
  C   0.98638093846796      0.35543033454527     -0.00769635191169
  Br  -0.48959534111359     -0.06731139228676      2.39468086872900
  H   1.25082191822910      1.34225329117732      0.39188850280915
  N   -1.31994727299984      1.03718562436743     -0.12932606140974
  H   -2.29490621211896      0.83312313876246      0.05375210357736
  H   -1.09738853288439      1.95822664365068      0.22977626115383
  N   -0.80685674613569     -1.29199770451012     -0.08441199162932
  H   -1.50193610715219     -1.74789260544482      0.48894137768726
  H   -1.12359422449012     -1.23592824730869     -1.04664233307319
  C   1.07567642039602      0.39677180028484     -1.47273406965771
  N   1.13146118364922      0.41544604985620     -2.64525047102337
  C   1.93424837826434     -0.62871911095955      0.51809506045243
  N   2.73466807592907     -1.38569631396593      0.92261004690182
