14
Coordinates from ORCA-job run
  C   -0.52825181218971     -0.02921135378574      0.27557163221246
  C   1.00939016132371     -0.13443749223463      0.12649748919335
  Br  -0.72809948661876      0.86316954456504      2.19296311547056
  H   1.40127247008897     -0.67598940626236      0.99403907458341
  N   -1.07058020706231      0.78279430228860     -0.72243544418875
  H   -2.08033510162003      0.83583618384018     -0.68200852980326
  H   -0.68306237049169      1.71767358517879     -0.71736700192277
  N   -1.09281375190215     -1.31389019995323      0.28449523851395
  H   -2.10114614507120     -1.29699920208835      0.20147346336531
  H   -0.83499455559388     -1.83533873188270      1.11155869134452
  C   1.63111048601955      1.19129501897805      0.08267508548177
  N   2.10967214907937      2.26080689694545      0.00628941147013
  C   1.33633137214423     -0.88124709133584     -1.09555057034459
  N   1.63150679189389     -1.48446205425327     -2.05820165537609
