14
Coordinates from ORCA-job run
  C   -0.40686101542381      0.07246135455215      0.40290516011885
  C   0.81310851631959     -0.07344934521040     -0.54380138308326
  Br  0.22756012905373      0.59816466334400      2.16950950765692
  H   0.41019432944134     -0.36899469258525     -1.52510966170853
  N   -1.20324200679525      1.16700272778095     -0.10279974129027
  H   -1.90948416894264      1.44192753624563      0.56950334706443
  H   -1.66460156477062      0.88753903236026     -0.96373145605110
  N   -0.99377017368811     -1.24118758279010      0.53918795404350
  H   -1.66458889025911     -1.26170074898607      1.29776376817283
  H   -1.46806746008697     -1.49694814953136     -0.32195636783358
  C   1.72630404275319     -1.13155218468707     -0.10595072042499
  N   2.48295216109444     -1.97324695702176      0.20473512320415
  C   1.52611195443686      1.19338465283220     -0.72284402359255
  N   2.12538414686736      2.18759969369681     -0.89541150627641
