14
Coordinates from ORCA-job run
  C   -0.40422697346532      0.04441518716198      0.40961905477324
  C   0.80917835747998     -0.03371693729870     -0.55348256792987
  Br  0.23756085018853      0.49354693744630      2.19451555859726
  H   0.40224113707589     -0.29005450882722     -1.54409185760669
  N   -1.22396910520410      1.14889276367309     -0.03421702247758
  H   -1.91913750156869      1.38727222027399      0.66260958088436
  H   -1.69951359633112      0.89927705627590     -0.89641139889809
  N   -0.96734287143916     -1.28428902039068      0.48508367252211
  H   -1.43384123843743     -1.51000840122636     -0.38885366162433
  H   -1.64123129563942     -1.34994609475076      1.23912271849214
  C   1.74657148772658     -1.09310101304430     -0.17376399610608
  N   2.52250087571710     -1.93188109251592      0.09406950584884
  C   1.49589799159791      1.25380403478967     -0.67909898334127
  N   2.07331188229923      2.26678886843300     -0.81310060313403
