14
Coordinates from ORCA-job run
  C   -0.49880212714860     -0.01112316251407      0.32690173816997
  C   1.01951345647193     -0.11040666416884      0.03987413417949
  Br  -0.53437317580582      1.03928293088951      2.17168612312299
  H   1.50352031701036     -0.56975807926988      0.90840730926815
  N   -1.14910548226747      0.70507620239975     -0.67990550984411
  H   -2.15185920000550      0.74601688269699     -0.55088655054614
  H   -0.78381879206332      1.64254275080644     -0.78960433337266
  N   -1.03382423013430     -1.29758977559682      0.49806611012778
  H   -0.68627681898524     -1.74263346632004      1.33693244741691
  H   -2.04564664703711     -1.29844761189045      0.51611972152736
  C   1.60601786016225      1.21418654917233     -0.17746013305240
  N   2.04801728713791      2.28075182490683     -0.39128632363596
  C   1.24477285373889     -0.95746162825515     -1.13913613105157
  N   1.46186469892602     -1.64043675285661     -2.06870860230981
