14
Coordinates from ORCA-job run
  C   -0.47816560867566      0.06422270253796      0.38255555726182
  C   1.03676754304395     -0.12863175903848      0.09051264656607
  Br  -0.56573348385687      1.03499524735767      2.14065513183860
  H   1.47853164135172     -0.75766885176215      0.87315036618570
  N   -1.04316428200327      0.93746891658241     -0.60317283546012
  H   -1.80494028695245      1.49281573238960     -0.24169449606589
  H   -1.34684568124483      0.39461098156540     -1.40426209111168
  N   -1.08819085193751     -1.21384166274621      0.41978963670440
  H   -0.69355805529323     -1.82337383286880      1.12639704022301
  H   -2.08769521755369     -1.13728672760272      0.56300643148200
  C   1.75185691964917      1.14846724412583      0.06049920774415
  N   2.37032087822641      2.14550983157949      0.03616586184160
  C   1.18093896968492     -0.80851963685813     -1.20278187103242
  N   1.28987751556134     -1.34976818526186     -2.23882058617730
