14
Coordinates from ORCA-job run
  C   -0.47162147932959      0.12951110631406      0.43073854029246
  C   0.75413988522773     -0.00226200160560     -0.53042583332447
  Br  0.22188085272062      0.62344002583893      2.19645176456122
  H   0.33826658270560     -0.22896667416914     -1.52389667887365
  N   -1.26536285268547      1.21285449759180     -0.06402120076300
  H   -1.58444347024409      1.01828276646128     -1.00838929601834
  H   -2.07461160310501      1.33370094230263      0.53473267546608
  N   -1.20885352662013     -1.09206048433171      0.61070372233646
  H   -1.59036089155999     -1.41323765054300     -0.27305954274169
  H   -0.65370032067162     -1.82653998586387      1.03445583225439
  C   1.59986863382592     -1.13265116621087     -0.14412330438038
  N   2.23857164607977     -2.06768126689985      0.16609334621691
  C   1.52973717654389      1.23365036549274     -0.64340760903390
  N   2.16548936711239      2.20995952562258     -0.78785241599211
