14
Coordinates from ORCA-job run
  C   -0.55528155829023      0.01948160954579      0.39587135628732
  C   0.93755525284885      0.33937717393748      0.04217923104014
  Br  -0.58456140692206      0.10724873407788      2.42732001743774
  H   1.21886671973827      1.25771947339699      0.56754575057145
  N   -1.50345830515514      0.98691462043923     -0.04552493804481
  H   -1.51335896844825      1.03282370785733     -1.05878095956246
  H   -1.35223325442226      1.89934891721943      0.36154932231857
  N   -0.90627436002299     -1.22252571540616     -0.14721460962352
  H   -0.32558903779784     -1.98922578438798      0.16668435495985
  H   -1.88551695403194     -1.42012650617591      0.01366579727592
  C   1.03920888871699      0.56867588235524     -1.40307653354456
  N   1.07232806713202      0.79334381108128     -2.55509065554530
  C   1.83694024427693     -0.73842518944783      0.45634150296211
  N   2.52437467237762     -1.63463073449275      0.77853036346755
