14
Coordinates from ORCA-job run
  C   -0.51775935339623      0.08542455821048      0.28516026073436
  C   0.95834710812972      0.35270177034837     -0.09870776568716
  Br  -0.48883357247292      0.37139657544337      2.38883638452109
  H   1.23881513073309      1.33952322918440      0.28478220012843
  N   -1.34553352332605      1.04593755981270     -0.31679331665029
  H   -1.20094806063350      1.96818404228628      0.07168077271242
  H   -2.32703252025690      0.80755727722156     -0.25634215656258
  N   -0.88944369677624     -1.21894519837057     -0.04678240787763
  H   -1.86063733124198     -1.41602527718451      0.15786433658747
  H   -0.30359126337954     -1.91538435532039      0.39589094206903
  C   1.09598748051655      0.34847806700567     -1.56134008709249
  N   1.23957284413753      0.36166215371685     -2.72616740485755
  C   1.85120081886818     -0.64871263366252      0.48955937224406
  N   2.55185593909828     -1.47979776869165      0.93335886973086
