14
Coordinates from ORCA-job run
  C   -0.36462994969568      0.05438216037840      0.55232974764971
  C   1.04503161302602      0.23337866530529     -0.07532387336619
  Br  -0.11889806552819     -0.13673877160870      2.48103235084484
  H   1.49070893726040      1.12508669036006      0.37650386408817
  N   -1.07329946192757      1.30145333050309      0.34645183036055
  H   -1.36190900737052      1.37019935290652     -0.62566161473852
  H   -1.90140884899613      1.33714430528269      0.92907677061958
  N   -0.92114035142345     -1.18303068461111      0.06994568582724
  H   -1.77863155355986     -1.41105000939246      0.55828604396701
  H   -1.11595386710419     -1.11496303112439     -0.92496694624297
  C   0.87452595637742      0.47239350143326     -1.51413723471854
  N   0.65086185624656      0.68871679632764     -2.64678659179459
  C   1.91460089605990     -0.92257501406020      0.15026321444694
  N   2.66014184663529     -1.81239729170005      0.32298675305677
