14
Coordinates from ORCA-job run
  C   -0.54257315289433      0.04995996130291      0.31640697632528
  C   0.78728004933058     -0.05705530247819     -0.50242598203740
  Br  0.01082479182783      0.57128882023103      2.18241986621332
  H   0.47346665353842     -0.35493552112163     -1.51199769717703
  N   -1.37738687607821      0.98470900803818     -0.33032277820350
  H   -0.96854226003984      1.90984799975975     -0.38145546337735
  H   -2.27133891665692      1.02810606000473      0.14395226932381
  N   -1.26070596983177     -1.17489649556980      0.44614560352854
  H   -0.74040402438242     -1.88137150767259      0.94927315638475
  H   -1.54845474651275     -1.51136044919514     -0.46590184595846
  C   1.65873233932389     -1.10077289010686      0.03460887521404
  N   2.32393693722672     -1.97679763786394      0.44529063918360
  C   1.47688734570301      1.22878843505742     -0.60875760996666
  N   1.98027782944582      2.28448951961415     -0.71623600945292
