14
Coordinates from ORCA-job run
  C   -0.52621004766401      0.06137428212653      0.43083390139297
  C   0.93197873927835      0.34983354016915     -0.06605194892949
  Br  -0.41039617389803      0.37721892746836      2.43584934294903
  H   1.23784443686380      1.32219661644526      0.33341486698807
  N   -1.51822992342447      0.96617542438610     -0.04570334188912
  H   -1.60333586831849      0.89563319333155     -1.05399720145973
  H   -1.35128161981647      1.92011017196352      0.24292751348978
  N   -0.89666262187607     -1.23657870245544      0.05749115720625
  H   -0.28372740576224     -1.95858551779034      0.41339293725477
  H   -1.85865371295219     -1.42109883336321      0.31141453280331
  C   0.92417774691903      0.41732057792528     -1.53129724894809
  N   0.87666874364689      0.48486525617833     -2.70263550534464
  C   1.87600968801967     -0.66838003969861      0.39620658332684
  N   2.60081801898421     -1.50908489668653      0.78015441116013
