14
Coordinates from ORCA-job run
  C   -0.48607956490054      0.19427889876997      0.32797295509002
  C   0.83390783141256      0.44204924071530     -0.45391330477171
  Br  -0.58612511215353      1.66078987609225      1.69668972352433
  H   0.77081260363100      1.40880533554397     -0.96828031054147
  N   -1.56020471641960      0.22242323084827     -0.59709645563673
  H   -1.64434291026560      1.10867731090561     -1.08111596755474
  H   -2.43860099680503      0.00542834597471     -0.14237173588785
  N   -0.38096990423643     -1.03782865132664      1.05183201711777
  H   -0.95641502462370     -1.04727702831065      1.88208727729790
  H   -0.62941826967972     -1.81011938340488      0.44226023224866
  C   0.99102369907467     -0.62134113681068     -1.45427182703322
  N   1.12049995440746     -1.49338998479358     -2.22955718262757
  C   1.99884200467148      0.46223682320306      0.43269146030800
  N   2.96807040588702      0.50426712259321      1.09307311846662
