14
Coordinates from ORCA-job run
  C   -0.43782047552097      0.04414517355247      0.43048916494205
  C   1.00644605037077      0.28132090410926     -0.09390865969267
  Br  -0.26652664889203     -0.10138278005557      2.42768099767366
  H   1.38400921652306      1.23065180816806      0.30549692288137
  N   -1.24329568347639      1.13443703409178      0.01787055424283
  H   -0.91415119836045      2.02711695974730      0.36626869677544
  H   -2.20794314203274      1.00126701472391      0.29554063780455
  N   -0.90929707097322     -1.22502065208120     -0.03900703461116
  H   -1.33180623197691     -1.11258352805651     -0.95431927325909
  H   -1.55991868351364     -1.65872182574900      0.59994958410616
  C   0.96391425772035      0.36602444794966     -1.55920805583688
  N   0.91888943799323      0.42869006937066     -2.73065221139639
  C   1.91622495555218     -0.79092863046052      0.31354604646835
  N   2.68227521658673     -1.62501599531038      0.62125262990180
