14
Coordinates from ORCA-job run
  C   -0.51181651380922      0.13993573834463      0.49757541559002
  C   0.98649212044384     -0.10038765717604      0.11167153875209
  Br  -0.45924237939425      0.94261433847173      2.30096513898045
  H   1.43194681559089     -0.72680068107054      0.89191072096120
  N   -1.06639243345179      1.07701596872281     -0.41724432327375
  H   -2.06516569409132      1.15362975845390     -0.26790964730539
  H   -0.88077548259617      0.82180493891717     -1.38108176158486
  N   -1.28761361055170     -1.06217366069117      0.62040657177771
  H   -0.93804663163461     -1.69261763526790      1.33152937972372
  H   -1.35632138060931     -1.53703136024326     -0.27361918150920
  C   1.75749064407183      1.13953503060584      0.00400418918060
  N   2.40086361879039      2.11664308542181     -0.09451770794364
  C   1.02187700501308     -0.83868682708665     -1.15663835509195
  N   0.96670392222835     -1.43548103740230     -2.16705197825697
