14
Coordinates from ORCA-job run
  C   -0.49725125352745      0.00831244235323      0.52803421450074
  C   0.94827281987458      0.31948736807563      0.01233679809032
  Br  -0.38390180996126      0.11848332622320      2.49386130302324
  H   1.23533736832963      1.30050661931450      0.40598657353888
  N   -1.48248858269470      0.97482418318490      0.13006999813622
  H   -1.28252855861831      1.90943461189268      0.46481520656037
  H   -1.59619855271634      0.97592199750181     -0.87820788651158
  N   -0.82912043045031     -1.32432647436454      0.15380051257681
  H   -1.79590252536605     -1.51438245951016      0.38913084431553
  H   -0.68257801832138     -1.48235234489029     -0.83766713562240
  C   0.90508559475345      0.39886059567961     -1.45290187318874
  N   0.78576550200137      0.44688420853938     -2.62065429351788
  C   1.93663418381236     -0.67119706044028      0.44209995733716
  N   2.73987426288441     -1.46245701355967      0.76929578076135
