14
Coordinates from ORCA-job run
  C   -0.55277697863354      0.05265205103177      0.39733394518161
  C   0.98388788452418     -0.10196846790100      0.13065993388224
  Br  -0.62571622940629      0.86550010507606      2.25963480475392
  H   1.42421193178204     -0.62195033443729      0.98757581730484
  N   -1.12341597571873      0.83691116472935     -0.61275719726955
  H   -2.12689725215284      0.89560483496575     -0.49687196533723
  H   -0.71452132006744      1.75815682483170     -0.70054092030548
  N   -1.27918488709092     -1.17000680741683      0.48115975423913
  H   -0.96409759533101     -1.76340692033291      1.23599356809509
  H   -1.25021216118004     -1.65797648564822     -0.40762641555626
  C   1.64124717461213      1.19625229335637     -0.02542261010676
  N   2.12581115037556      2.25600615817176     -0.17222210528604
  C   1.17265100656952     -0.92264008636188     -1.07039863217286
  N   1.28801325171739     -1.62213433006464     -2.00651797742262
