14
Coordinates from ORCA-job run
  C   -0.55063109877848      0.03272101206561      0.40176145273934
  C   0.94290654740146      0.32519645204712      0.02738920878134
  Br  -0.55651092015817      0.14483422949471      2.43130537893353
  H   1.24444911806169      1.24540105979098      0.53818843576056
  N   -1.48860718332720      1.00913866884327     -0.04173958379917
  H   -1.50905509219779      1.04225707818387     -1.05533856733357
  H   -1.31865381332577      1.92424332557181      0.35183731875511
  N   -0.92631727190604     -1.21047130338431     -0.12290084395096
  H   -0.35532398680430     -1.98209006403808      0.19687616747205
  H   -1.90694279157730     -1.39008863288683      0.05058974748127
  C   1.03152056998733      0.53617041926927     -1.42143257637184
  N   1.05661227480208      0.74855488982464     -2.57600369239883
  C   1.83032959993073     -0.76115509599865      0.44477761253372
  N   2.50522404789179     -1.66471203878343      0.77268994139747
