14
Coordinates from ORCA-job run
  C   -0.55939026275526      0.07249778782361      0.39672612013731
  C   0.93511017422274      0.35643035889527      0.01780456801792
  Br  -0.55266362785713      0.07815415547297      2.42131110414090
  H   1.24107333400910      1.31500977136257      0.45306275190114
  N   -1.36013164456922      1.07586336022904     -0.17704323707739
  H   -1.11817052662956      2.00855799632640      0.13062093364722
  H   -2.33851685254826      0.88755633804091      0.00296835953422
  N   -1.07440825906616     -1.19247766395698     -0.00119395975402
  H   -1.08843149679001     -1.26054956181424     -1.01318776093132
  H   -0.57100335868526     -1.96694992722629      0.41055103516309
  C   1.05174016913461      0.42831648487193     -1.44353304005572
  N   1.13344269841033      0.48421776580671     -2.61357566140929
  C   1.81131604700727     -0.70012979950720      0.52629579648267
  N   2.49003360611678     -1.58649706632471      0.89019299020326
