14
Coordinates from ORCA-job run
  C   -0.53573172846688      0.04009625856223      0.32784834994039
  C   0.78030070183059     -0.04318175069648     -0.51590461633024
  Br  0.04705844288489      0.54304314802845      2.19018177667082
  H   0.45162469617298     -0.32797011889933     -1.52454423713963
  N   -1.39091269649209      0.97487830580836     -0.29145621414276
  H   -2.27604218112513      1.00460958327745      0.20008009317003
  H   -0.99123987776936      1.90417256117222     -0.33954038959021
  N   -1.23968018977581     -1.19312906167000      0.45469455244882
  H   -0.70335581867930     -1.90130650117998      0.93821957403313
  H   -1.54205677361686     -1.51999695491632     -0.45609527202053
  C   1.66886523571463     -1.08773489861047     -0.00953024352867
  N   2.34593082551236     -1.96354856776978      0.38177046172056
  C   1.45591712453750      1.25062769417496     -0.61613567685947
  N   1.92932223927251      2.31844030271863     -0.73958815837225
