14
Coordinates from ORCA-job run
  C   -0.53776335200514      0.06233397947087      0.32087949017557
  C   0.78454961825627     -0.07336263635344     -0.50593861194385
  Br  0.03776517921070      0.59564728832821      2.17703115746995
  H   0.46003404772001     -0.37904743452709     -1.50976701405568
  N   -1.36324839204964      1.00223295396133     -0.33014186424610
  H   -2.25316673938929      1.06394284513332      0.14964233839646
  H   -0.94124110695055      1.92059216057373     -0.39455444903153
  N   -1.27300134270371     -1.15006111782719      0.46952080957088
  H   -1.57344431403669     -1.49155853377734     -0.43655318779020
  H   -0.75892522462678     -1.85909062147471      0.97547058465036
  C   1.64380784607958     -1.12427319208292      0.03692260042465
  N   2.28453151835164     -2.02170566310983      0.44014759252917
  C   1.49030970942575      1.20193683646037     -0.63259416724381
  N   1.99979255271781      2.25241313522468     -0.76006527890586
