14
Coordinates from ORCA-job run
  C   -0.40606043333752      0.04245454198206      0.40846271042840
  C   0.81090129056091     -0.03386557433702     -0.54998130083602
  Br  0.23285896048700      0.44518641829288      2.20548454195770
  H   0.40545363121697     -0.26319700271637     -1.54782333193665
  N   -1.20695953909172      1.16751909254021     -0.01669895722645
  H   -1.90837182029456      1.39606554653093      0.67736872021725
  H   -1.67390962362457      0.94668035668314     -0.89143620151117
  N   -0.98899683474462     -1.27919606791891      0.45414439829972
  H   -1.66158900979755     -1.35272006981048      1.20801193500827
  H   -1.46092156725689     -1.47720854429893     -0.42342697917228
  C   1.73028561649076     -1.11525223757063     -0.18849760987935
  N   2.49389778736703     -1.97053887304624      0.06217380262259
  C   1.51874957963074      1.24495277048094     -0.64513960105449
  N   2.11466196239400      2.25011964318846     -0.75464212691752
