14
Coordinates from ORCA-job run
  C   -0.53376446775513     -0.00328467640007      0.33328950318268
  C   0.78163058802085     -0.02797611063432     -0.51531744386727
  Br  0.03844659068628      0.48248170511626      2.20366910718263
  H   0.45570955596979     -0.27995841560984     -1.53356128897325
  N   -1.47657302326634      0.99091374304576     -0.06053851266861
  H   -1.78859378286683      0.82237054952007     -1.01028333016181
  H   -1.12005203567111      1.93139343011094      0.04605932870977
  N   -1.14969709603091     -1.26644230059335      0.21808604187424
  H   -0.56987267215704     -2.02160894763992      0.56258867458296
  H   -2.03602491332692     -1.25976155654464      0.70834992163293
  C   1.70677162323659     -1.07050601255118     -0.07103587319953
  N   2.39813429666791     -1.95416228759925      0.27623744432904
  C   1.41563171601514      1.28886298281241     -0.54868768549960
  N   1.87725362047777      2.36667789696709     -0.60885588712417
