18

C	-0.532514	0.034041	-1.443979
C	0.0	0.0	0.0
Cl	-0.011751	-1.625343	-2.129377
H	1.094356	0.0	0.0
N	-1.94122	0.158695	-1.39671
H	-2.305938	-0.555841	-0.77399
H	-2.349854	0.058154	-2.317331
C	0.127662	1.04972	-2.351632
H	1.211596	0.97711	-2.252278
H	-0.156037	0.84773	-3.387866
H	-0.194928	2.052091	-2.076293
N	-0.592688	-1.110472	0.723006
H	0.095826	-1.853963	0.736311
H	-0.761221	-0.814303	1.675835
N	-0.411095	1.286842	0.673581
O	-1.175587	1.233777	1.638332
O	0.056741	2.324372	0.217268
Br	3.490635	0.0	0.0
