18

C	-0.377416	0.028811	-1.482513
C	0.0	0.0	0.0
Cl	-2.230602	0.060916	-1.604281
H	1.093377	0.0	0.0
N	0.150325	1.187466	-2.122165
H	0.956749	1.546965	-1.623025
H	0.402968	0.977198	-3.078413
C	0.075882	-1.27277	-2.120264
H	-0.153855	-1.246987	-3.19009
H	1.158165	-1.349107	-1.978403
H	-0.409417	-2.130918	-1.663139
N	-0.50178	-1.140739	0.677361
H	-1.475999	-1.00315	0.915024
H	0.031457	-1.283705	1.525303
N	-0.42387	1.30653	0.670143
O	0.22294	2.316848	0.409048
O	-1.380767	1.265868	1.445318
Br	3.46448	0.0	0.0
