18

C	-0.3892	-0.04659	-1.484873
C	0.0	0.0	0.0
Cl	-0.026476	1.62933	-2.186003
H	1.096971	0.0	0.0
N	0.461194	-1.047027	-2.035606
H	0.343799	-1.114664	-3.038567
H	1.43961	-0.851024	-1.816192
C	-1.843957	-0.332787	-1.798224
H	-2.482774	0.454259	-1.40723
H	-2.13221	-1.28113	-1.343829
H	-1.971341	-0.39533	-2.882618
N	-0.536553	-1.168233	0.684333
H	0.025755	-1.29583	1.52201
H	-0.306991	-1.954447	0.082491
N	-0.527728	1.213058	0.697089
O	-1.745386	1.394539	0.678041
O	0.284455	1.933898	1.271943
Br	3.533219	0.0	0.0
