18

C	-0.390882	-0.043141	-1.479872
C	0.0	0.0	0.0
Cl	-2.192294	-0.654075	-1.632555
H	1.090923	0.0	0.0
N	-0.223986	1.203315	-2.103286
H	-0.297747	1.132367	-3.108154
H	-0.863636	1.894836	-1.736866
C	0.445748	-1.103367	-2.168466
H	1.4985	-0.829993	-2.055472
H	0.281383	-2.078793	-1.712248
H	0.174335	-1.166141	-3.225207
N	-0.431557	-1.086123	0.820923
H	0.33352	-1.714457	1.005127
H	-1.235145	-1.561988	0.444059
N	-0.448811	1.277453	0.676547
O	0.207705	1.633882	1.646143
O	-1.468998	1.846004	0.270122
Br	3.532884	0.0	0.0
