18

C	-0.523204	0.038804	-1.445947
C	0.0	0.0	0.0
Cl	-0.045512	-1.5125	-2.215296
H	1.090825	0.0	0.0
N	-1.979109	0.058385	-1.43161
H	-2.295606	0.933403	-1.027845
H	-2.316011	0.007746	-2.3859
C	0.142542	1.145984	-2.252402
H	-0.131547	1.040512	-3.30503
H	-0.18808	2.125067	-1.900402
H	1.227811	1.085965	-2.145908
N	-0.526084	-1.076274	0.740457
H	-1.52664	-0.997297	0.848081
H	-0.060033	-1.158	1.632494
N	-0.396874	1.368831	0.6074
O	-1.48751	1.434606	1.189986
O	0.374562	2.313304	0.471012
Br	3.53714	0.0	0.0
