18

C	-0.459004	0.073554	-1.477999
C	0.0	0.0	0.0
Cl	-0.112765	-1.627417	-2.156723
H	1.089623	0.0	0.0
N	-1.837807	0.401643	-1.588002
H	-2.424813	-0.226937	-1.054446
H	-2.132292	0.378001	-2.555596
C	0.395204	1.02239	-2.29228
H	1.451426	0.797715	-2.130562
H	0.198443	2.044131	-1.966551
H	0.148696	0.92403	-3.353788
N	-0.427142	-1.099364	0.805686
H	0.251688	-1.841324	0.703816
H	-1.352245	-1.445073	0.58435
N	-0.505635	1.276427	0.636131
O	0.129368	2.30695	0.430314
O	-1.551416	1.208095	1.279077
Br	3.51786	0.0	0.0
