15
Coordinates from ORCA-job run
  C   0.97257465246911      0.05244480755214      0.01092269525452
  C   -0.35359306167899      0.26960282199923     -0.09693276722953
  N   1.61709090299500     -0.31380935399500      1.28125462442110
  O   2.54927481583866     -1.10940913744327      1.21058649781610
  O   1.17278454084125      0.19094657046633      2.30752057483364
  C   1.86303968853666      0.03272629820949     -1.10714208449787
  N   2.57635523916213      0.03603728368993     -2.04178613440177
  C   -1.30852566518411      0.22658113558368      1.06379822988093
  H   -1.04261155162627     -0.53193396269865      1.79881856983321
  H   -1.29944053420135      1.19146996946284      1.57625890188867
  H   -2.31532653899052      0.03508849166180      0.69212368534953
  C   -0.96892173942065      0.57667748306669     -1.43000936254600
  H   -1.65193010606579     -0.23839397111762     -1.69053422669183
  H   -0.24045381987275      0.69871850642784     -2.23072913070833
  H   -1.57031682280236      1.48725305713459     -1.34415007320235
