15
Coordinates from ORCA-job run
  C   0.90912441078409     -0.18195962444604      0.10403708336859
  C   -0.37145731947520      0.21709089750164     -0.02787245611441
  N   2.04516649504312      0.75231956713889     -0.00918137689372
  O   1.93556773117223      1.85183642412419      0.52569509588452
  O   3.01923418539400      0.34395423111443     -0.63629774221388
  C   1.31267002035092     -1.53694305325259      0.30191349276035
  N   1.61118902081811     -2.65748944613318      0.49785652703321
  C   -0.79638865961128      1.63554970778767     -0.26351155410371
  H   -0.01923705751198      2.26078421496628     -0.69339430553089
  H   -1.08701597558088      2.08632187039588      0.69048738549558
  H   -1.67589233361383      1.64528881891048     -0.91027519241328
  C   -1.48944200724492     -0.77654780447523      0.08747230888552
  H   -2.04805806030745     -0.81262919100288     -0.85283686903897
  H   -1.15179649148006     -1.78335719552073      0.33137208819318
  H   -2.19266395873688     -0.43821941710881      0.85553551468791
