15
Coordinates from ORCA-job run
  C   0.96094277740511      0.00086852856565      0.01012776345617
  C   -0.36327680905125      0.25717702171918     -0.08085847072678
  N   1.62620586084438     -0.50868374622758      1.22597349891637
  O   0.92152809934554     -0.88323839987686      2.15824244799469
  O   2.85354349424633     -0.51550111161325      1.20798877874334
  C   1.87246296260136      0.22374940412022     -1.06950882029952
  N   2.57718713005043      0.43178982962297     -1.98774368938039
  C   -0.92868731093466      0.78541107800375     -1.36636260174539
  H   -1.41607434188941      1.74652904114498     -1.17560412413324
  H   -1.70702070145762      0.10270865812873     -1.72246976536253
  H   -0.18669867906891      0.91509535598208     -2.15223272407939
  C   -1.36088433580069      0.05649165620699      1.02407180260051
  H   -2.33812659785662      0.42640209251155      0.71022467583649
  H   -1.45006178176317     -1.00090287636658      1.27980622004178
  H   -1.06003976667084      0.56810346807817      1.93834500813790
