15
Coordinates from ORCA-job run
  C   0.92452263074697     -0.13211367292042      0.07558598918042
  C   -0.33609756474227      0.30069700906142     -0.12689701919642
  N   1.43704623593152     -0.47980138600007      1.41338893237915
  O   1.08251635086516      0.21894192137449      2.35867434193091
  O   2.18785192117737     -1.44997473723687      1.47017262997998
  C   1.87307649222927     -0.35539503378897     -0.96778076899782
  N   2.63673541241269     -0.51042063438769     -1.84877000193368
  C   -0.80730140752020      0.62725063549460     -1.51232596354509
  H   -0.02686385656753      0.53393970332979     -2.26671714248383
  H   -1.63894241300174     -0.03066799874344     -1.78390109585500
  H   -1.19338175845995      1.65160288977179     -1.52783967235905
  C   -1.33939166525026      0.50461594438479      0.97051468028047
  H   -2.34792254071733      0.42397627362241      0.56128688847812
  H   -1.22728578636709     -0.20410286364745      1.78958456706013
  H   -1.22256205073661      1.50545194968562      1.39602363508168
