15
Coordinates from ORCA-job run
  C   0.95744182628724     -0.01862741783897      0.04249644670104
  C   -0.35435215587709      0.25023828517472     -0.11416305741984
  N   1.58703710175997     -0.15034199246904      1.36872363724956
  O   2.44371597076807     -1.02353475890599      1.47686173074085
  O   1.21542692120808      0.61463214513450      2.25435329512467
  C   1.85835621139796     -0.26429887749664     -1.03778383630974
  N   2.57629099113063     -0.44168938728350     -1.95223913116429
  C   -0.94330251940979      0.35504006953625     -1.48908870004594
  H   -1.46921292753880      1.31017258976088     -1.58411026073294
  H   -0.20214599296456      0.27950452666831     -2.28407762378497
  H   -1.68913068431660     -0.43398451042120     -1.62857587636324
  C   -1.30775799647086      0.47449566879418      1.02243553618619
  H   -1.05243182253980     -0.09229532625913      1.91610773679459
  H   -1.30253654155158      1.53205154822967      1.30321394898471
  H   -2.31939838188286      0.21363743737594      0.70584615403933
