15
Coordinates from ORCA-job run
  C   0.96080324344288     -0.02809526312957      0.00969135061715
  C   -0.35198078533367      0.25576303854958     -0.09628823066261
  N   1.62146808840662     -0.26148445557869      1.30637618411787
  O   2.72218445428334      0.26173758045528      1.45637744357160
  O   1.03546663993107     -0.96576877628081      2.12440240948436
  C   1.86260025292801     -0.05895026053820     -1.09686959746977
  N   2.56994234581612     -0.10767033232451     -2.03484919903987
  C   -1.29740205972944      0.33598022823006      1.06351912120052
  H   -0.81479240607772      0.50280374576917      2.02590270475204
  H   -2.02989862115696      1.12393210789361      0.87845714593163
  H   -1.84674570593388     -0.61114435448011      1.13659290335278
  C   -0.96891453854147      0.49127250395353     -1.44182446394512
  H   -0.27770905869429      0.33598165536286     -2.26931088938437
  H   -1.36089152549874      1.51289163555729     -1.49326995937105
  H   -1.82413032384185     -0.17924905343949     -1.56890692315520
