15
Coordinates from ORCA-job run
  C   0.87926517920335     -0.17651839901360      0.24523778169165
  C   -0.36846287441102      0.21465839420822     -0.08285688616449
  N   1.99806143852440      0.77349639466287      0.37821452294006
  O   3.08743168731978      0.38933403278408     -0.03877936380766
  O   1.76177136316542      1.86292411603553      0.89306978999344
  C   1.26759432709894     -1.53735730114518      0.43441950316455
  N   1.54935677535333     -2.66675612015433      0.60252146056583
  C   -1.46430501541425     -0.79920952685574     -0.22183952881637
  H   -2.31161085973065     -0.50280059342728      0.40431341292519
  H   -1.82214468152686     -0.81133520970861     -1.25634211321920
  H   -1.15741617129628     -1.80779766335785      0.05324401159815
  C   -0.76687121640875      1.64196942823438     -0.31846793047325
  H   -1.62681017503408      1.67254466962057     -0.99043620016422
  H   -1.06052073537299      2.10251630853066      0.62966615183244
  H   0.03566095852966      2.25033146958628     -0.73196461206612
