15
Coordinates from ORCA-job run
  C   0.94067909284147     -0.08988151148188      0.01849984720695
  C   -0.34102513960883      0.30992197512584     -0.10037030631340
  N   1.51588858671073     -0.53483147560267      1.30317604051684
  O   2.32066000436262     -1.46041707195238      1.24293593513221
  O   1.15020017677894      0.04116923268932      2.32341913971929
  C   1.85450346686388     -0.19245688158605     -1.07331359350165
  N   2.58506317907112     -0.25917976547867     -1.99263819343517
  C   -0.87819087135279      0.72577115643858     -1.43724884629300
  H   -1.64722488904262      0.01354424134804     -1.75104602871034
  H   -0.11045897528871      0.77517017038395     -2.20938881295672
  H   -1.36585804621393      1.70128638693872     -1.35935231938363
  C   -1.31558057261993      0.36621612432556      1.04090362076897
  H   -1.23156378151239      1.33280796844163      1.54644198379778
  H   -1.14688694057708     -0.39895407037873      1.79612241137884
  H   -2.33120529041246      0.27383352078872      0.65285912207304
