15
Coordinates from ORCA-job run
  C   0.95252246950867     -0.04395680584377      0.01999434106747
  C   -0.34974226309057      0.28279015104084     -0.10233128837823
  N   1.54571798359421     -0.46942520584178      1.30028273490134
  O   2.38206744157619     -1.36647218269138      1.23818010495532
  O   1.16629593585636      0.09882151150718      2.32050275625217
  C   1.87499173923234     -0.07797926775263     -1.06936342218389
  N   2.61183971791635     -0.07771218621958     -1.98604711265080
  C   -0.90194429111738      0.69205296678558     -1.43479318499820
  H   -1.41188505002201      1.65508272428786     -1.33327701939562
  H   -0.14112000663698      0.77637506588178     -2.21011942698527
  H   -1.65390990621055     -0.03455686908382     -1.75871932449258
  C   -1.32684329971827      0.27873262941932      1.03635027170203
  H   -1.30500959236512      1.24760247570351      1.54423244807334
  H   -1.10746674651857     -0.47824270767686      1.78759568303244
  H   -2.33551413200468      0.12188770048372      0.64951243910047
