15
Coordinates from ORCA-job run
  C   0.92058171598437     -0.15444962883267      0.02611374314872
  C   -0.33209726781827      0.32685992809422     -0.10297269981460
  N   1.42747757132035     -0.71503860095573      1.29162044939304
  O   2.15543223879091     -1.69926392594797      1.19457222331966
  O   1.09097140467812     -0.16180959264344      2.33481780348584
  C   1.86177692669585     -0.23428320950259     -1.04464594856785
  N   2.61857860932486     -0.26768130180724     -1.94427306442931
  C   -0.79930813828257      0.86886111373166     -1.42063560448494
  H   -1.19895283153256      1.87727028929229     -1.27451776921517
  H   -0.01444140942338      0.90592373812790     -2.17544333343597
  H   -1.62130509153464      0.25280947787487     -1.79900168363734
  C   -1.33241183268027      0.37639871000291      1.01420119700574
  H   -2.34199935562583      0.35083818237757      0.59960446357168
  H   -1.21703268827420     -0.43407387726628      1.73178739254713
  H   -1.21726985162275      1.31263869745449      1.56877283111336
