15
Coordinates from ORCA-job run
  C   0.96144403443041     -0.00280565786272      0.02767108409508
  C   -0.35278959168132      0.26688899000952     -0.10455195219060
  N   1.56476270838940     -0.39507860559209      1.31419394809217
  O   2.44102258728956     -1.25392528080529      1.26176851521013
  O   1.15440027351065      0.16116889666507      2.32898585059191
  C   1.89084864108362     -0.00494492701365     -1.05640316603844
  N   2.63279103158138      0.01822103239816     -1.96862508827668
  C   -0.91374413722942      0.64449392242521     -1.44293435824973
  H   -1.62909057420103     -0.11763019207521     -1.76831191034296
  H   -1.46953423645705      1.58274522154029     -1.34892388199950
  H   -0.15264672625741      0.76072053188809     -2.21391238929138
  C   -1.33748492441416      0.22849457233485      1.02659591211609
  H   -1.37426473504127      1.20676136677185      1.51535092439500
  H   -1.08440459603263     -0.50071417616536      1.79410913318157
  H   -2.33230975497074      0.00960430548128      0.63398737870735
