15
Coordinates from ORCA-job run
  C   0.95569485901788     -0.02847583751434      0.03874158949365
  C   -0.35683701798173      0.23928159746209     -0.11329513897269
  N   1.59598808509605     -0.12670740686843      1.36293832564286
  O   2.72663003446959      0.34391271751026      1.45389290930246
  O   0.96064520425533     -0.66723876234372      2.26391711925054
  C   1.87335952406650     -0.17847081082363     -1.04494488190512
  N   2.59881222303744     -0.31470655668713     -1.96052161558763
  C   -0.95012141645124      0.34639083176993     -1.48619390072752
  H   -1.31843882470533      1.36450490963277     -1.64756415857750
  H   -1.81520250472286     -0.32016753823787     -1.55812407378231
  H   -0.24720568537511      0.09912240215764     -2.28107990425323
  C   -1.31178497794683      0.43569680802699      1.02714308432569
  H   -1.72417247438110     -0.53071920321270      1.33240513547958
  H   -2.13952225398055      1.06928711889417      0.70278465016915
  H   -0.84584477439805      0.87428973023397      1.90790086014206
