15
Coordinates from ORCA-job run
  C   0.90959831274553     -0.18169213952690      0.02381030260655
  C   -0.33640696679066      0.31342293818198     -0.11246734656901
  N   1.43651272736919     -0.64064410086846      1.32214575268661
  O   0.67898218923476     -1.27393919771917      2.05179538190623
  O   2.60440161265311     -0.34827200836265      1.56500759646038
  C   1.86772871599801     -0.25275502493814     -1.03135137653085
  N   2.63034108639130     -0.31915232165795     -1.92436359623945
  C   -0.81752622417221      0.79021689503292     -1.45013677893011
  H   -0.11507418040980      0.58648435310506     -2.25790317657920
  H   -1.77664354055600      0.31677073352759     -1.68184894004208
  H   -0.99794061664079      1.86949726166030     -1.40830684850579
  C   -1.32060979760250      0.42363447869182      1.01357697200341
  H   -1.88647479652019     -0.50844123942997      1.10379228542308
  H   -2.02671557166499      1.22999743415538      0.80582860545277
  H   -0.85017295003476      0.60087193814821      1.97942116685746
