18

C	-0.370777	0.037022	-1.48096
C	0.0	0.0	0.0
F	-1.705362	0.289251	-1.699866
H	1.095704	0.0	0.0
C	0.529255	0.921091	-2.306108
H	0.23679	1.95433	-2.139301
H	1.546137	0.757502	-1.936571
H	0.449071	0.677885	-3.368545
N	-0.174898	-1.407951	-1.957776
O	-1.168748	-2.134404	-1.985564
O	0.965392	-1.749088	-2.253177
N	-0.495283	-1.104786	0.748569
H	-1.307582	-1.547472	0.344171
H	0.247996	-1.770297	0.903093
N	-0.401904	1.291579	0.670581
O	-0.696134	2.268777	-0.027076
O	-0.34616	1.317555	1.895155
F	2.561825	0.0	0.0
