18

C	-0.34566	0.000862	-1.467373
C	0.0	0.0	0.0
F	0.22733	1.054644	-2.115126
H	1.094196	0.0	0.0
C	0.152488	-1.26831	-2.114525
H	1.205429	-1.33339	-1.829053
H	-0.381769	-2.13643	-1.735413
H	0.04706	-1.177165	-3.19755
N	-1.847016	0.135341	-1.723705
O	-2.20284	0.579817	-2.808964
O	-2.602574	-0.271739	-0.841857
N	-0.363509	-1.208511	0.672687
H	0.289474	-1.347092	1.431774
H	-1.308781	-1.169807	1.029596
N	-0.507389	1.221383	0.691364
O	-0.907443	2.173513	0.017912
O	-0.476099	1.210942	1.923385
F	2.536586	0.0	0.0
