18

C	-0.427757	0.148217	-1.457113
C	0.0	0.0	0.0
F	-1.734985	0.578	-1.56135
H	1.08884	0.0	0.0
C	0.507769	0.989664	-2.288033
H	0.377958	0.779395	-3.353246
H	0.295415	2.03586	-2.087893
H	1.52174	0.7594	-1.951913
N	-0.417845	-1.263656	-2.024487
O	-1.492866	-1.803253	-2.259821
O	0.691019	-1.748232	-2.211151
N	-0.49862	-1.188569	0.603428
H	0.13725	-1.462863	1.338602
H	-1.417505	-1.053205	1.001825
N	-0.421431	1.246302	0.735706
O	-0.983639	1.110024	1.82484
O	-0.152231	2.337732	0.237627
F	2.550314	0.0	0.0
