13

C	-0.534697	0.076064	-1.431019
C	0.0	0.0	0.0
Br	-0.021384	-1.565828	-2.368941
H	1.092669	0.0	0.0
H	-0.009047	0.869576	-1.967559
H	-0.343332	-0.919963	0.482794
C	-2.040277	0.243243	-1.526527
H	-2.548719	-0.57944	-1.016359
H	-2.36344	0.254635	-2.568684
H	-2.338824	1.183765	-1.053809
C	-0.484238	1.145689	0.767014
N	-0.892192	2.082119	1.346538
Cl	3.384524	0.0	0.0
