13

C	-0.54579	0.074052	-1.422595
C	0.0	0.0	0.0
Br	-0.093809	-1.549656	-2.418658
H	1.092639	0.0	0.0
H	-0.005911	0.869522	-1.940364
H	-0.294418	0.928545	0.507813
C	-2.047063	0.291172	-1.486606
H	-2.575564	-0.535425	-1.00545
H	-2.38984	0.36758	-2.519958
H	-2.303456	1.219239	-0.963714
C	-0.559586	-1.112331	0.758891
N	-1.063728	-1.980418	1.36791
Cl	3.379758	0.0	0.0
