13

C	-0.386218	0.018955	-1.471785
C	0.0	0.0	0.0
Br	-2.33954	0.216419	-1.696464
H	1.096031	0.0	0.0
H	-0.163642	-0.949574	-1.921771
H	-0.332367	0.919933	0.490164
C	0.337849	1.131705	-2.202525
H	1.412167	0.99572	-2.043489
H	0.048027	2.105716	-1.801059
H	0.114398	1.114575	-3.270753
C	-0.527589	-1.149797	0.721126
N	-0.966553	-2.07715	1.291831
Cl	3.370287	0.0	0.0
