13

C	-0.528989	0.048467	-1.435726
C	0.0	0.0	0.0
Br	-0.050737	-1.631497	-2.322634
H	1.09275	0.0	0.0
H	0.018512	0.814419	-1.988019
H	-0.346354	-0.909066	0.500972
C	-2.029103	0.252784	-1.548243
H	-2.346453	0.243854	-2.592597
H	-2.305814	1.213329	-1.104937
H	-2.562526	-0.541057	-1.019139
C	-0.479894	1.162783	0.744653
N	-0.883744	2.112907	1.304933
Cl	3.379298	0.0	0.0
