13

C	-0.548585	0.059241	-1.422299
C	0.0	0.0	0.0
Br	-0.057253	-1.557165	-2.414328
H	1.092531	0.0	0.0
H	-0.027807	0.867335	-1.942254
H	-0.295497	0.932272	0.500975
C	-2.055942	0.234035	-1.493423
H	-2.341652	1.15181	-0.967843
H	-2.395709	0.305448	-2.528179
H	-2.562095	-0.610325	-1.019031
C	-0.552822	-1.109564	0.767933
N	-1.046282	-1.981927	1.379778
Cl	3.393322	0.0	0.0
