17
Coordinates from ORCA-job run
  C   0.87579176138097     -0.13608410444886      0.60341747521151
  C   -0.53172086969822      0.38420712375006      0.25448874556106
  Br  1.87469944428764      1.22496065329877      1.62252357229973
  H   -1.00353088033692      0.63898361898498      1.21043484770646
  N   1.64254821818110     -0.42136041255142     -0.58835144065397
  H   1.18886545580725     -1.16676194116838     -1.10703720666035
  H   2.57558959425019     -0.73157096537669     -0.34095500950816
  C   0.77057755322775     -1.28567950254369      1.52034629950525
  N   0.67614112167308     -2.24668310960843      2.19250120006380
  C   -1.35887665085185     -0.72202928982069     -0.40918008835030
  H   -2.39086150990156     -0.38095059412636     -0.51837234126912
  H   -0.99132053655930     -0.94736903153965     -1.41453832729392
  H   -1.37548670185575     -1.64305560483197      0.17786626080362
  C   -0.48854153202048      1.62527581730098     -0.63148117628702
  H   0.02588748410878      2.45358878621958     -0.14446203532720
  H   -1.50983017203462      1.94465685629842     -0.85404873170488
  H   0.02206822034197      1.41087170016336     -1.57115204409651
