15
Coordinates from ORCA-job run
  C   1.04228963019517     -0.28055262380557     -0.25367696976632
  C   -0.33863144610263     -0.27617208250540      0.43522637548445
  F   1.33932611364009     -1.56374904298750     -0.67648139715279
  H   -0.26454910383706     -1.04717004551904      1.21625949575808
  C   2.07321083134006      0.14143421546882      0.70991769703209
  N   2.85449239176315      0.45610575616596      1.52827133434718
  C   1.04706367314994      0.61653439009329     -1.41957339790504
  N   1.02885295776426      1.29334128842944     -2.37877261728025
  C   -1.42762681907060     -0.65561762262808     -0.55313413301750
  H   -1.18565743617256     -1.58489255517016     -1.06957778986228
  H   -2.37078474496349     -0.79703905406779     -0.02033668878410
  H   -1.56073719686061      0.13644411941706     -1.29408471773570
  N   -0.53690737940585      1.06605424678831      0.94934965090251
  H   -0.18738896524380      1.16728402463033      1.89301805597424
  H   -1.51295250619606      1.32699498569034      0.93359510200543
