15
Coordinates from ORCA-job run
  C   1.04105624666123     -0.29174828543330     -0.28102077644738
  C   -0.30974654537038     -0.25899342788232      0.46528951575536
  F   1.24752167678122     -1.54619392832317     -0.82698539505892
  H   -0.19660750095546     -0.97095435215137      1.29008001657131
  C   2.14144307766922     -0.00375328787072      0.65197919062018
  N   3.02001067775590      0.16273388433156      1.41287436813799
  C   1.02751641030440      0.69905602600406     -1.37136098461149
  N   0.94789160861440      1.48151381360595     -2.24339523059350
  C   -1.44800162437570     -0.70005236745194     -0.44488420478242
  H   -1.57922451939236      0.00852048632041     -1.26805795126627
  H   -1.26759402829399     -1.69003523891913     -0.86636029083345
  H   -2.37623158442663     -0.73069687801214      0.12961609384860
  N   -0.42919646441243      1.08169418552808      1.00918694037873
  H   -0.83436374693067      1.08142313411311      1.93390458862490
  H   -0.98547368362874      1.67548623614091      0.40713411965634
