15
Coordinates from ORCA-job run
  C   0.85800984469765      0.21228888718269     -0.57492612966863
  C   -0.23358406143408      0.01751354513279      0.49317122217625
  F   0.26186934572257      0.73106787001983     -1.71462819823217
  H   0.27953923827127     -0.33985557808178      1.39307048615291
  C   1.50183109238489     -1.06407530990315     -0.93032913671728
  N   1.99095987568434     -2.10009040435238     -1.18794185371278
  C   1.87973778126322      1.16180718570788     -0.10601738766138
  N   2.72791343062523      1.88064044101261      0.27102100779447
  C   -1.26347505343482     -1.01527151083988      0.03986721249187
  H   -1.72899774076674     -0.70048397469401     -0.89677795216778
  H   -0.82520947751953     -2.00516770242271     -0.10534944325528
  H   -2.04386367052314     -1.09707276979933      0.79905546920189
  N   -0.75748226853662      1.34342649986276      0.77328949793996
  H   -1.43508682481397      1.61029828672043      0.06966660124546
  H   -1.21116151162027      1.36297453445427      1.67682860441250
