12

C	-0.598402	-0.035384	-1.393506
C	0.0	0.0	0.0
Cl	0.242128	-1.161601	-2.461126
H	1.091417	0.0	0.0
H	-1.654213	-0.308059	-1.400842
H	-0.321698	0.916637	0.504675
N	-0.570318	1.333423	-2.027034
O	-1.512561	1.597991	-2.774353
O	0.369431	2.071391	-1.762155
C	-0.50141	-1.146167	0.751353
N	-0.93716	-2.062122	1.342715
Cl	3.314389	0.0	0.0
