12

C	-0.448284	0.223655	-1.426055
C	0.0	0.0	0.0
Cl	0.028535	1.822038	-2.000555
H	1.093327	0.0	0.0
H	-0.044623	-0.519543	-2.108747
H	-0.363087	0.808749	0.636025
N	-1.950508	0.118527	-1.551426
O	-2.627206	0.729275	-0.731138
O	-2.379435	-0.574314	-2.472193
C	-0.508558	-1.276707	0.488004
N	-0.927068	-2.303376	0.873953
Cl	3.285637	0.0	0.0
