12

C	-0.428497	0.051244	-1.44427
C	0.0	0.0	0.0
Cl	-2.193391	0.181529	-1.656773
H	1.09282	0.0	0.0
H	0.028619	0.902942	-1.942154
H	-0.299457	0.951552	0.451322
N	0.022897	-1.148337	-2.239115
O	-0.044446	-2.245434	-1.700913
O	0.386182	-0.918468	-3.389109
C	-0.580054	-1.075624	0.79099
N	-1.073523	-1.881295	1.487165
Cl	3.26631	0.0	0.0
