12

C	-0.448208	-0.100697	-1.445623
C	0.0	0.0	0.0
Cl	-0.045136	1.318922	-2.38671
H	1.092513	0.0	0.0
H	0.012814	-0.972167	-1.906403
H	-0.316662	-0.911712	0.515574
N	-1.942502	-0.375477	-1.488611
O	-2.726436	0.525977	-1.75138
O	-2.241831	-1.53017	-1.186976
C	-0.561496	1.159074	0.678525
N	-1.039666	2.075075	1.235323
Cl	3.276139	0.0	0.0
