12

C	-0.426943	0.131352	-1.441772
C	0.0	0.0	0.0
Cl	-2.194724	0.174735	-1.662918
H	1.095194	0.0	0.0
H	-0.008342	1.011187	-1.924044
H	-0.357553	-0.94688	0.407731
N	0.08066	-1.047009	-2.235532
O	-0.041889	-2.157126	-1.732331
O	0.536844	-0.794745	-3.345844
C	-0.499912	1.117663	0.786736
N	-0.915125	2.020225	1.411947
Cl	3.264447	0.0	0.0
