12

C	-0.426565	0.091901	-1.445242
C	0.0	0.0	0.0
Cl	-2.194321	0.122296	-1.668124
H	1.09511	0.0	0.0
H	-0.011065	0.959506	-1.951254
H	-0.357884	-0.934734	0.434287
N	0.085893	-1.105737	-2.206133
O	0.544095	-0.882726	-3.321655
O	-0.034886	-2.201599	-1.672438
C	-0.501648	1.137592	0.756631
N	-0.921684	2.052726	1.360025
Cl	3.263862	0.0	0.0
