12

C	-0.451739	-0.103823	-1.439172
C	0.0	0.0	0.0
Cl	0.014174	1.328978	-2.356504
H	1.0931	0.0	0.0
H	-0.046416	-0.979915	-1.939872
H	-0.363027	0.931601	0.43717
N	-1.954154	-0.240184	-1.52958
O	-2.629811	0.561405	-0.894146
O	-2.383308	-1.15064	-2.235111
C	-0.507443	-1.134011	0.764522
N	-0.942366	-2.048733	1.358405
Cl	3.28456	0.0	0.0
