14
Coordinates from ORCA-job run
  C   -0.94550540924601      0.22657382818031     -0.48785027838664
  C   0.34831661099684      0.66700395285191      0.20140340804337
  Br  -2.41106984749433      1.39518554217431      0.04646719052688
  H   0.51797261583294      1.71721822063629     -0.05990789035938
  H   -0.83463682615386      0.41287702249054     -1.56452519979599
  N   -1.28253442006091     -1.13093987868426     -0.12772625995955
  H   -0.64713333879804     -1.77220174651875     -0.58986132893866
  H   -2.22325912050845     -1.35375768245596     -0.42813037055632
  C   1.54011391346863     -0.17031680874185     -0.28134732046952
  H   2.47185975393495      0.23973091963210      0.11127361471914
  H   1.59566423985466     -0.15820997554900     -1.37332872493456
  H   1.45941722953092     -1.20142020390075      0.06610221258433
  C   0.22712557583868      0.58334345309141      1.65815944928564
  N   0.18266902280398      0.54491335679370      2.83027149824125
