14
Coordinates from ORCA-job run
  C   -0.76063903745267     -0.36670572847391     -0.48773571422580
  C   0.31899494382740      0.34833847098771      0.33379473336075
  Br  -1.10066524020307      0.74381810883015     -2.14740923509537
  H   -0.07710159120615      1.32825744820458      0.62904538421146
  H   -0.37427939818906     -1.30154034006547     -0.89517144061654
  N   -1.91984406682962     -0.60873235784417      0.27085378495200
  H   -2.35335410340720      0.24494119762639      0.59875300620735
  H   -2.60107896906156     -1.16520969343867     -0.22693828196965
  C   1.64741680972127      0.53876293554535     -0.40408820711261
  H   1.52526385107720      1.21280204410507     -1.25005104941514
  H   2.01937355719926     -0.42158145060937     -0.76856654155637
  H   2.39274763109456      0.95738281661607      0.27389289434871
  C   0.54562033945881     -0.43212971321531      1.55654267215062
  N   0.73754527397084     -1.07640373826840      2.51907799476060
