14
Coordinates from ORCA-job run
  C   -0.75500220808824     -0.37074719647470     -0.50279913549064
  C   0.30536918733312      0.34547081696113      0.34210596006074
  Br  -1.13431730076403      0.79281185502643     -2.11850331603078
  H   -0.11433270824819      1.30757302944459      0.66200455243195
  H   -0.34261367577299     -1.27676363510470     -0.94806086972218
  N   -1.90295550730317     -0.67635985196962      0.24952056707736
  H   -2.35863324211422      0.14983869753712      0.61549017483812
  H   -2.57098381999305     -1.23178327977270     -0.26709446101637
  C   1.63051159447482      0.58643118325243     -0.38674584795923
  H   1.49216261502583      1.27420649102633     -1.21908380928243
  H   2.36218266065055      1.01088692563236      0.30230979111053
  H   2.02912810172974     -0.35601171937438     -0.76903348655838
  C   0.55036857910972     -0.46066422405705      1.54448482959235
  N   0.80911572396015     -1.09588909212725      2.49740505094895
