14
Coordinates from ORCA-job run
  C   -1.05818841478542      0.14815831033961     -0.14436532714879
  C   0.37682213233518      0.59066789843997      0.16758857650827
  Br  -1.67748308734491     -1.14321244787594      1.27060532302309
  H   0.59340365271469      1.36308162426327     -0.58134199603250
  H   -1.73737013068203      0.99042087301248     -0.01387197926376
  N   -1.16237494072498     -0.34871597542130     -1.46534322626800
  H   -2.12894785389038     -0.47706624835472     -1.73466214907328
  H   -0.67969314130694     -1.23099529926602     -1.57670419262193
  C   1.42280140158886     -0.51879878047447      0.04239352552891
  H   1.20336205113473     -1.33826176468383      0.72719427022622
  H   2.41213557487797     -0.12498391149971      0.27966768803833
  H   1.45420004418597     -0.89712984596662     -0.98110446260297
  C   0.44720196606264      1.23062900354288      1.48213292250734
  N   0.53413074583461      1.75720656394439      2.52781102717906
