14
Coordinates from ORCA-job run
  C   -1.12928907736949     -0.08661889051419     -0.08751101372049
  C   0.24061408254487      0.55181905583000      0.24412583857456
  Br  -1.45588274513424     -1.60027723357069      1.10747638339527
  H   0.32878391151295      1.40184734824776     -0.44749153857886
  H   -1.91429556569015      0.63459865658040      0.14909106918863
  N   -1.31176002204545     -0.52170108061159     -1.44284455383796
  H   -1.31169835060078      0.26814904875410     -2.07709456876384
  H   -0.60845981281918     -1.19108127760122     -1.72552143645598
  C   1.44588398380949     -0.36679803128443      0.04103622551811
  H   1.41399950627518     -1.20711722764247      0.73356056329445
  H   1.46893275719994     -0.74911161406456     -0.98110345201774
  H   2.36975024901409      0.18833043432233      0.21055514500260
  C   0.23282867295060      1.11010326508023      1.59749894833859
  N   0.23159241035217      1.56685754647434      2.67922239006265
