14
Coordinates from ORCA-job run
  C   -0.94773725638406      0.20932065539379     -0.49360221377003
  C   0.32572695157341      0.67486464115872      0.21606316263903
  Br  -2.45092588552566      1.32684367016262      0.04677325514405
  H   0.46691760285236      1.73477974056669     -0.02191280936183
  H   -0.83231158228795      0.41646941766873     -1.56598963672188
  N   -1.24916037061949     -1.16332903140674     -0.15937384142845
  H   -2.18157530193301     -1.40660479014149     -0.46993788628364
  H   -0.59354023833219     -1.77848212262308     -0.62893690868838
  C   1.54676701953039     -0.11721762520441     -0.26999962893320
  H   2.46154062995292      0.30960843300744      0.14417145551415
  H   1.61529795336202     -0.07888947772441     -1.36058706684905
  H   1.49102495784673     -1.15778476205618      0.05348829151617
  C   0.19451649488412      0.55812029054510      1.67003828737482
  N   0.15345902508041      0.47230096065322      2.83980553984823
