14
Coordinates from ORCA-job run
  C   -0.82233914462677     -0.23103349419577     -0.60309426759091
  C   0.29675888401970      0.34395341813166      0.29548478089297
  Br  -1.23512795433614      1.10146709865424     -1.98393004089092
  H   -0.07136268129724      1.28432720569766      0.72352152856903
  H   -0.43725520814632     -1.09999361636619     -1.14227622432740
  N   -2.04030054103033     -0.60023217709648      0.05164702810261
  H   -2.38362926922874      0.14274713319437      0.64792555562211
  H   -1.91006511480796     -1.44212966627561      0.59963947084532
  C   1.62545944124173      0.58536020206052     -0.42478934157081
  H   1.50617522170197      1.35107538215964     -1.18995397296627
  H   2.38813573360476      0.91379744224045      0.28323069229841
  H   1.97315162172100     -0.33545950984746     -0.89905571929427
  C   0.48575027854758     -0.60846937714173      1.39508065640289
  N   0.62564873263675     -1.40541004121530      2.24656985390727
