14
Coordinates from ORCA-job run
  C   -1.04418694771906     -0.05588148527326     -0.07610551888485
  C   0.34564224611708      0.55707979004215      0.14955832351042
  Br  -1.44587781200136     -1.40289110808789      1.27667433968539
  H   0.48698324195552      1.26806561153878     -0.67780587943588
  H   -1.80715247888090      0.71360790392276      0.08891175699057
  N   -1.08285732607918     -0.68671518592058     -1.37765565881579
  H   -1.01995294611403      0.03040825761826     -2.09383409792726
  H   -1.95995009983836     -1.17765852959817     -1.50226385071865
  C   1.49007353864689     -0.45715364893995      0.12074241682233
  H   1.45480853017369     -1.10224571069782      0.99807762241790
  H   2.44896274127173      0.06409649522113      0.11193227362219
  H   1.40265599739021     -1.07223224389872     -0.77423327255470
  C   0.35619655210884      1.34536604670651      1.38315010967275
  N   0.37365476296892      1.97815380736680      2.37185143561558
