14
Coordinates from ORCA-job run
  C   -0.94999169139224      0.21398990513026     -0.60816676741675
  C   0.29050497774017      0.67995616532743      0.18460098220628
  Br  -2.41890933547005      1.46265911702475     -0.21925515920265
  H   0.43185487381640      1.75078113642475      0.00750596095604
  H   -0.74182101805106      0.34578811941734     -1.67224824953813
  N   -1.39194391518496     -1.12391753779183     -0.38827828154404
  H   -0.81613878932531     -1.79875537290722     -0.87205505421295
  H   -1.46669253227285     -1.35118906081886      0.59542390366559
  C   1.54062823952022     -0.08470909763692     -0.26531636170828
  H   1.44185836842307     -1.15138602668577     -0.05801568514166
  H   2.42294399005211      0.28065620327285      0.26251800516263
  H   1.69985370407013      0.05551500176161     -1.33745837191620
  C   0.06404081760400      0.47713395128013      1.61600204000619
  N   -0.10918768952964      0.24347749620148      2.75374303868392
