18

C	-0.552638	0.032362	-1.435049
C	0.0	0.0	0.0
Cl	0.486672	-1.157097	-2.402711
H	1.096446	0.0	0.0
N	-1.916374	-0.37955	-1.44828
H	-1.954582	-1.298265	-1.016187
H	-2.236809	-0.45986	-2.407005
C	-0.380097	1.380361	-2.105282
H	-1.045823	2.097978	-1.620315
H	0.659599	1.705929	-2.031311
H	-0.644708	1.31534	-3.163765
N	-0.470631	-1.205823	0.663767
H	-1.266785	-0.959921	1.242738
H	0.268287	-1.581603	1.243928
N	-0.48902	1.185845	0.742423
H	-0.037166	2.005592	0.345938
H	-0.071076	1.097685	1.666145
Cl	3.536162	0.0	0.0
