18

C	-0.315789	-0.001003	-1.498992
C	0.0	0.0	0.0
Cl	-2.117128	0.171952	-1.735907
H	1.104143	0.0	0.0
N	0.315829	1.121989	-2.152249
H	1.320825	0.948396	-2.103626
H	0.143911	1.925053	-1.551268
C	0.129504	-1.285717	-2.167638
H	-0.466764	-2.133309	-1.828329
H	0.014416	-1.183584	-3.247593
H	1.184516	-1.453879	-1.92847
N	-0.55609	-1.16768	0.697738
H	-0.255431	-1.082951	1.665802
H	-0.082036	-1.996918	0.350806
N	-0.445272	1.239232	0.599328
H	-1.406071	1.128763	0.906456
H	0.142261	1.457696	1.39427
Cl	3.464309	0.0	0.0
