18

C	-0.457318	-0.022933	-1.467412
C	0.0	0.0	0.0
Cl	-0.03244	1.568352	-2.232429
H	1.101839	0.0	0.0
N	0.257988	-1.038852	-2.213993
H	1.252977	-0.837566	-2.1164
H	0.10303	-1.897023	-1.689507
C	-1.952458	-0.214384	-1.616739
H	-2.215722	-0.18634	-2.674936
H	-2.22274	-1.191245	-1.208114
H	-2.493194	0.56117	-1.073837
N	-0.402429	-1.2787	0.587731
H	0.328881	-1.591133	1.214279
H	-1.249197	-1.1271	1.124275
N	-0.589954	1.107629	0.758104
H	-0.082887	1.152097	1.637064
H	-0.370152	1.971966	0.27397
Cl	3.50143	0.0	0.0
