18

C	-0.566153	-0.010883	-1.425542
C	0.0	0.0	0.0
Cl	0.343104	1.185005	-2.401433
H	1.097285	0.0	0.0
N	-0.326632	-1.331824	-2.01218
H	-0.241474	-1.244259	-3.016711
H	-1.134954	-1.911539	-1.812131
C	-2.034819	0.387675	-1.460151
H	-2.595953	-0.30685	-0.827828
H	-2.165382	1.403094	-1.087804
H	-2.408956	0.328348	-2.48528
N	-0.509755	-1.228428	0.654299
H	0.008393	-1.996417	0.234179
H	-0.180866	-1.182485	1.615557
N	-0.437859	1.186496	0.711729
H	0.279859	1.458535	1.372227
H	-1.294993	0.982097	1.215772
Cl	3.605166	0.0	0.0
