18

C	-0.48241	-0.002224	-1.463341
C	0.0	0.0	0.0
Cl	-0.016594	-1.577308	-2.232646
H	1.098884	0.0	0.0
N	-1.927536	0.061605	-1.456356
H	-2.151098	0.857209	-0.862781
H	-2.269747	0.230986	-2.395225
C	0.216011	1.091071	-2.254751
H	1.299181	0.986431	-2.16078
H	-0.06541	1.041083	-3.310882
H	-0.090939	2.062262	-1.856785
N	-0.509181	-1.108796	0.782294
H	0.172172	-1.856024	0.753628
H	-1.364629	-1.442731	0.351729
N	-0.506622	1.260719	0.597485
H	0.249571	1.938206	0.575444
H	-0.66278	1.032645	1.572488
Cl	3.51078	0.0	0.0
