18

C	-0.612939	0.012278	-1.411136
C	0.0	0.0	0.0
Cl	0.005927	1.472966	-2.295387
H	1.092673	0.0	0.0
N	-0.193188	-1.160872	-2.119241
H	-0.847241	-1.3941	-2.854727
H	-0.130578	-1.915826	-1.446383
C	-2.128086	0.179319	-1.345281
H	-2.562524	-0.676232	-0.817014
H	-2.540532	0.200059	-2.357396
H	-2.399092	1.109902	-0.845704
N	-0.352918	-1.291927	0.623833
H	0.405553	-1.548384	1.244059
H	-1.198162	-1.207056	1.176537
N	-0.413552	1.188724	0.73982
H	0.35471	1.483845	1.32823
H	-1.211285	0.988386	1.331565
Cl	3.459112	0.0	0.0
