18

C	0.0	0.0	0.0
C	-0.555856	-0.109443	-1.424411
Br	2.002712	0.0	0.0
H	-1.617222	0.177296	-1.307571
N	-0.300147	1.41918	0.553434
O	-0.5609	2.314171	-0.235538
O	-0.21916	1.537276	1.76868
N	-0.563122	-0.858924	0.896789
H	-0.52727	-1.835123	0.668575
H	-0.452786	-0.60412	1.863636
N	-0.627696	-1.542885	-1.891255
O	-0.135848	-2.449692	-1.219797
O	-1.166808	-1.705342	-2.978156
C	0.159407	0.658252	-2.52454
H	-0.491315	0.697232	-3.396516
H	0.377199	1.670224	-2.198689
H	1.09131	0.163165	-2.797482
Cl	-3.638414	0.0	0.0
