12
Coordinates from ORCA-job run
  C   0.66928173876293     -0.05783436403938      0.55092571168710
  C   -0.66008387814618      0.42362393860497     -0.04280461478145
  F   1.70740432565881      0.53933247206736     -0.05395682170801
  H   -1.46387357924621     -0.12730310248260      0.45817457129249
  H   0.70899824607998      0.10302263515831      1.63006020727162
  N   0.74739101247452     -1.55662135792532      0.33740100555370
  O   1.66744038027660     -1.99480040798342     -0.33274478253579
  O   -0.15766814046005     -2.18039876763975      0.88152244012799
  C   -0.70989932333296      0.13070676319071     -1.47902901842782
  N   -0.74539820136251     -0.13524251753715     -2.62182626076176
  C   -0.82162139958417      1.85672073718276      0.21577058582568
  N   -0.94297118112075      2.99879397140351      0.45750697645624
