12
Coordinates from ORCA-job run
  C   0.36530437323411     -0.21025865118625      0.75032689965292
  C   -0.19322179183419      0.65319331185218     -0.38509902068265
  F   1.34893090672328      0.47430837133663      1.37441819430169
  H   0.65421600368621      0.89324738532639     -1.03880930833117
  H   -0.38754405926301     -0.54188656873521      1.46495166510582
  N   0.97072162337798     -1.44553379547468      0.13179676134581
  O   1.87952446654010     -1.24780390079091     -0.66756881997753
  O   0.49880131149549     -2.52278524260264      0.48002631126566
  C   -0.75446369764940      1.88995932191803      0.16312191090958
  N   -1.19801112664286      2.87635884444320      0.61905722046648
  C   -1.19491243728675     -0.09688636163976     -1.14696466839372
  N   -1.98834557238095     -0.72191271444698     -1.74525714566289
