12
Coordinates from ORCA-job run
  C   0.74339203385742     -0.02699456926181      0.44952084100466
  C   -0.66792674587452      0.41223895290292      0.04003137546144
  F   1.66987586006917      0.56089932079758     -0.32252561299894
  H   -1.37869138231006     -0.12762698339294      0.67548518874564
  H   0.93681553160974      0.17650424184505      1.50455009450535
  N   0.81892593315024     -1.53143005830673      0.28133894560765
  O   0.01466617387129     -2.14646159269817      0.97367816320679
  O   1.64057589767104     -1.98210405305202     -0.49901510590799
  C   -0.92218389675728      0.06034187881326     -1.36075905362007
  N   -1.12021435412423     -0.25202865130137     -2.47473915157520
  C   -0.81559072854740      1.85303302668426      0.26259089702186
  N   -0.92064432261540      3.00362848696998      0.46884341854881
