12
Coordinates from ORCA-job run
  C   0.67012818077434     -0.03665486133008      0.55050283699171
  C   -0.67574164144433      0.39618572908798     -0.04332075207246
  F   1.68518905556633      0.60021610570453     -0.05278121950560
  H   -1.45921236031562     -0.19037250187782      0.44925443856340
  H   0.70348758863330      0.12389752046645      1.62981816512233
  N   0.80467710899444     -1.53093580035600      0.33473092748054
  O   -0.07549585155673     -2.18932802729501      0.87904529276134
  O   1.74045431030520     -1.93302089882045     -0.33613404932458
  C   -0.70850634179720      0.11667794098154     -1.48298206250448
  N   -0.73249129914842     -0.13179131848295     -2.62988856473063
  C   -0.89366563982567      1.81995593591582      0.22604973597155
  N   -1.05782311018564      2.95517017600601      0.47470525124690
