12
Coordinates from ORCA-job run
  C   0.39382956398675     -0.21444411266384      0.73454147211481
  C   -0.22152160323875      0.65484016902647     -0.36650501029168
  F   1.37861353980378      0.48436982323599      1.34100525025092
  H   0.59862295579092      0.92897361867224     -1.04135827988364
  H   -0.32771850608054     -0.57803234389828      1.46567769554001
  N   1.01099453722631     -1.42182350565169      0.07500954561443
  O   1.89002234838899     -1.18619505762105     -0.74695533386896
  O   0.57629591722361     -2.51706822880608      0.41539576491595
  C   -0.79693998480930      1.86607188839479      0.22271007274980
  N   -1.25131749892280      2.83202556486101      0.71059517318105
  C   -1.22701034398587     -0.10679760902575     -1.11187430661129
  N   -2.02287092538311     -0.74092020652381     -1.69724204371139
