12
Coordinates from ORCA-job run
  C   0.35397222315025     -0.21817171546557      0.75277588811221
  C   -0.21304272577985      0.65653162597612     -0.36984722218996
  F   1.28631772535246      0.49001280645049      1.42728511029618
  H   0.63982294693017      0.95888394782746     -0.98984305200237
  H   -0.40210346212161     -0.60753402703977      1.43395618689663
  N   1.03394872671142     -1.40251418731598      0.11350978907111
  O   1.95391997905803     -1.13646409540497     -0.65257944564316
  O   0.60369475951887     -2.51144750393745      0.41306434041473
  C   -0.84859413133238      1.84517408120377      0.20351720941950
  N   -1.35205717412235      2.79180137729238      0.68092849140980
  C   -1.15601041691966     -0.11309063713304     -1.18538486173547
  N   -1.90186845044534     -0.75418167245343     -1.82638243404922
