15

C	-0.101879	-0.005506	-0.032701
C	-0.272443	0.155731	-1.548716
F	1.282526	0.108864	0.236978
H	0.375166	-0.60126	-2.014114
H	-0.62856	0.797324	0.480074
C	-0.628121	-1.327264	0.461593
H	-1.714859	-1.209991	0.459941
H	-0.284363	-1.49322	1.486199
H	-0.289314	-2.161684	-0.163135
C	0.281647	1.462256	-1.964685
N	0.730595	2.493307	-2.302027
N	-1.641849	0.020057	-2.024789
H	-2.266112	0.294333	-1.212026
H	-1.806355	-0.969938	-2.166176
F	-2.872019	0.438115	0.228283
