15

C	-0.1141	0.006672	-0.02159
C	-0.289923	0.032266	-1.545311
F	1.257669	0.240666	0.234939
H	0.412355	-0.711066	-1.949397
H	-0.698301	0.808773	0.42586
C	-0.547107	-1.304791	0.579327
H	-0.199067	-1.360355	1.614395
H	-1.639472	-1.265969	0.568004
H	-0.144519	-2.160867	0.025883
C	0.168996	1.337693	-2.066803
N	0.537945	2.369767	-2.487632
N	-1.643981	-0.240295	-2.007335
H	-2.289583	0.055853	-1.219579
H	-1.736287	-1.248206	-2.062011
F	-2.909192	0.271929	0.207398
