15

C	0.0	0.0	0.0
C	-0.449882	0.072763	-1.518476
F	1.355499	0.0	0.0
H	-1.037824	-0.837478	-1.661212
N	-0.30605	1.231369	0.829736
O	-0.527582	1.086603	2.027573
O	-0.101576	2.312673	0.270384
C	-0.551802	-1.179915	0.657452
N	-0.567892	-2.24722	1.170377
C	0.742328	-0.019307	-2.389033
N	1.64932	-0.114652	-3.129229
N	-1.269702	1.163731	-2.004936
H	-2.101958	1.080815	-1.409173
H	-0.813968	2.037303	-1.770517
H	-2.235924	0.0	0.0
