15

C	0.0	0.0	0.0
C	-0.351531	0.114123	-1.512579
F	1.365036	0.0	0.0
H	-1.305182	0.626872	-1.578058
N	-0.358142	1.313829	0.703659
O	-0.247432	1.290162	1.927377
O	-0.561583	2.314348	0.02515
C	-0.701976	-1.081733	0.672304
N	-0.652438	-2.114943	1.269186
C	-0.514081	-1.239807	-2.076691
N	-0.531885	-2.259846	-2.661665
N	0.676557	0.870565	-2.221324
H	0.312857	1.12817	-3.129581
H	1.495094	0.293808	-2.3604
H	-2.215189	0.0	0.0
