15

C	0.0	0.0	0.0
C	-0.441291	0.052428	-1.521347
F	1.370633	0.0	0.0
H	-1.028583	-0.859004	-1.654023
N	-0.30248	1.236838	0.815277
O	-0.111929	2.313066	0.242292
O	-0.512871	1.103977	2.016718
C	-0.535262	-1.177764	0.670959
N	-0.556084	-2.243375	1.186397
C	0.753162	-0.046504	-2.384906
N	1.665399	-0.146038	-3.117554
N	-1.260304	1.135493	-2.028426
H	-0.798919	2.01158	-1.816446
H	-2.091375	1.071372	-1.430035
H	-2.21167	0.0	0.0
