13

C	0.0	0.0	0.0
C	-0.470292	-0.398963	-1.396626
F	1.376497	0.0	0.0
H	0.418535	-0.492537	-2.0369
H	-0.355942	-0.734845	0.714108
H	-0.362832	0.982737	0.271726
N	-1.184896	0.798682	-2.06896
O	-2.015881	0.532373	-2.931037
O	-0.783806	1.933287	-1.822577
N	-1.255795	-1.576793	-1.396052
H	-1.595039	-1.740392	-2.336432
H	-2.058766	-1.24025	-0.800369
F	-2.615165	0.0	0.0
