13

C	0.0	0.0	0.0
C	-0.603857	0.045276	-1.366603
F	1.382236	0.0	0.0
H	-1.734864	0.015458	-1.025113
H	-0.349482	-0.887361	0.518246
H	-0.352357	0.885364	0.524363
N	-0.296202	-1.228858	-2.106119
O	-0.067441	-1.158176	-3.321566
O	-0.350376	-2.29512	-1.492447
N	-0.223482	1.211325	-2.102211
H	0.750916	1.148443	-2.376419
H	-0.771077	1.269263	-2.949389
F	-2.755314	0.0	0.0
