13

C	0.0	0.0	0.0
C	-0.543117	-0.017418	-1.394634
F	1.389099	0.0	0.0
H	-1.666522	-0.044717	-1.136897
H	-0.357691	-0.866447	0.544621
H	-0.360691	0.907075	0.47619
N	-0.151463	-1.330196	-2.048335
O	0.259191	-1.304001	-3.215685
O	-0.304875	-2.370319	-1.408998
N	-0.102213	1.111668	-2.151796
H	0.903602	1.06787	-2.272088
H	-0.517712	1.091654	-3.072411
F	-2.695257	0.0	0.0
