14
Coordinates from ORCA-job run
  C   -0.53267561819424      0.18216477418976     -0.10569922602970
  C   0.95138597471421      0.48937555890557      0.01669307141148
  Br  -1.33298178378252      2.10665816964588     -0.71378623868228
  H   1.08070284422404      1.37043964768538      0.64836766964899
  H   1.31231412623194      0.75204700597894     -0.98736651264038
  N   -0.79389388253460     -0.73636439212878     -1.14133027230348
  H   -0.61885855785931     -0.33131172421729     -2.05094351390746
  H   -1.73760312569530     -1.09949163696647     -1.10670992326737
  N   -1.11867823658109     -0.21208493870133      1.09419578295218
  H   -0.72186426082797      0.25808955383530      1.89378342737940
  H   -2.12629193442043     -0.13778440546668      1.09351889726651
  N   1.61704139447081     -0.64974875456771      0.64154782911496
  H   1.40164008468001     -1.48314622723654      0.10706704375307
  H   2.61976297557445     -0.50984263095601      0.61166196530409
