14
Coordinates from ORCA-job run
  C   -0.53161888028212      0.36690018014421     -0.18988332139949
  C   0.98707279114283      0.44716517917134     -0.09157113058299
  Br  -1.16434805363429      2.23916559996616     -0.68243348511517
  H   1.36703670288653      0.82492763246715     -1.04103936676620
  H   1.25270830617466      1.16637714213387      0.69563620518509
  N   -0.89110177043703     -0.48534269836134     -1.26924549320056
  H   -1.88372073490319     -0.67982663305194     -1.29200892634416
  H   -0.35296265008296     -1.34001064032321     -1.16918246062290
  N   -1.06851649931961     -0.01616120400664      1.08061713731937
  H   -2.06655078801221     -0.17898843077373      1.01887552025616
  H   -0.91032866667295      0.70456145282059      1.77591525136820
  N   1.48857712343024     -0.90839827690186      0.11977995435609
  H   2.48982447067225     -0.93822306456051     -0.02020791628672
  H   1.28292864903785     -1.20214623872408      1.06574803183327
