14
Coordinates from ORCA-job run
  C   -0.59864613408625      0.31236515849545     -0.16604556875791
  C   0.91337993766002      0.47121402855160      0.00602553693888
  Br  -1.26767165869268      2.15674731153889     -0.71899503501902
  H   1.09998804824102      1.28550804906775      0.70843684165050
  H   1.35925751879913      0.75446918111086     -0.95918586224049
  N   -0.86459132011304     -0.67934114253831     -1.13443699983140
  H   -0.51372187263355     -0.43180025916510     -2.05029733167733
  H   -1.85696460188400     -0.87264990481473     -1.17393511158624
  N   -1.32617621223150     -0.03004445655081      1.02765025179912
  H   -0.80518006184556     -0.78956101076174      1.45974896549556
  H   -1.32548317140987      0.75575912817647      1.66581116222534
  N   1.42046538868274     -0.77239191065313      0.57775076752208
  H   1.38418773219944     -1.50517277318159     -0.11875385004456
  H   2.38015640731410     -0.65710139927560      0.87622623352548
