14
Coordinates from ORCA-job run
  C   -0.58297960403839     -0.24449027753276     -0.15619468506498
  C   0.90319658184372     -0.41680800886927     -0.33123363526876
  Br  -0.23940978900482      2.52635001909949     -0.26689217281011
  H   1.07123650548485     -1.49018198839156     -0.48344462015281
  H   1.20598715391866      0.12188092487316     -1.23245454034345
  N   -1.37591057592675     -0.31690636768837     -1.23205433163135
  H   -0.98012864012570      0.12326663127847     -2.04982442223138
  H   -2.34476884212130     -0.06606909764566     -1.09809285274558
  N   -1.03716589546050     -0.42675308897616      1.06796942159995
  H   -0.31061950401065     -0.30901147141223      1.76905124752869
  H   -1.97705226093825     -0.15561386723202      1.30856337099484
  N   1.56520458052373      0.00278885125405      0.89033552100975
  H   2.50437572667077     -0.36818255327988      0.93301222486836
  H   1.59703456318461      1.01973029452275      0.88225947424682
