14
Coordinates from ORCA-job run
  C   -0.51360570476009      0.33030924955026     -0.14732065545875
  C   0.82723457691810      0.04070451065383      0.52169355544177
  Br  -0.44229549584588      2.09961108334729     -0.99546486607870
  H   0.99174399764856      0.78775335086745      1.30336298128288
  H   0.68380895878225     -0.93437649697227      1.02877496868347
  N   -0.72258256853770     -0.64680183935780     -1.18766487282354
  H   -0.76238339934659     -1.56965247930830     -0.76280487645246
  H   -1.61768508366633     -0.46748329965063     -1.62938313042670
  N   -1.63547321426368      0.38920014951171      0.77594379047610
  H   -1.66012598700583     -0.47277747863758      1.31407003433033
  H   -1.52913388532735      1.16410139831164      1.42127978459411
  N   1.92673298330220      0.07131155174664     -0.42206055908023
  H   2.76846532415757     -0.29545319820582      0.00232222063322
  H   1.68629949794476     -0.49644650185642     -1.22474837512150
