14
Coordinates from ORCA-job run
  C   -0.60828298476566      0.32341974221051     -0.09596151646863
  C   0.91643662767033      0.44225627778828     -0.14694807156180
  Br  -1.30416683736453      2.14538507526489     -0.68603155089703
  H   1.24256582963428      1.21341016820462      0.56694974523745
  H   1.20705456007119      0.77211022240271     -1.14598173075896
  N   -1.18638312649647     -0.63333421299092     -1.00268189757375
  H   -0.62863731577048     -1.47841464274138     -0.90319314853277
  H   -1.09171832340665     -0.30327343624144     -1.95495557172667
  N   -1.01344953361584     -0.02062540534142      1.21180279303159
  H   -2.00633329189175     -0.21474893293712      1.23006165029568
  H   -0.77779762881848      0.69087989411012      1.89112978327251
  N   1.46581269193387     -0.88907488281161      0.09009151882909
  H   1.32886760583397     -1.14471475231946      1.05925176523193
  H   2.45703172698623     -0.90227511459779     -0.11153376837863
