14
Coordinates from ORCA-job run
  C   -0.60301468733755      0.30318192796186     -0.16791363344003
  C   0.90438801966069      0.48866863504807      0.01883077713080
  Br  -1.30275395792898      2.13974103754482     -0.70562964373373
  H   1.07016158534288      1.29863191980516      0.73143312790413
  H   1.35248977803874      0.79069744179971     -0.93963935447349
  N   -0.84127832682916     -0.68290326041979     -1.14958543204410
  H   -1.82929019684720     -0.89580765638658     -1.19799343462332
  H   -0.48985835542091     -0.41718197380453     -2.06016858455433
  N   -1.33342899039446     -0.06743792406795      1.01567776210840
  H   -1.35601340152626      0.71126504169535      1.66207379800896
  H   -0.79929206589305     -0.81986902906352      1.44424890476718
  N   1.42993718164159     -0.75141251330194      0.58137843128991
  H   1.41519445134368     -1.47654569947370     -0.12384329723340
  H   2.38375896615000     -0.62102794733696      0.89213057889302
