14
Coordinates from ORCA-job run
  C   -0.58711334531130      0.19997303686970     -0.12150837735563
  C   0.84071040348332     -0.30330531225233     -0.32075060379943
  Br  -0.36329483146517      2.28328552434943     -0.09772906097321
  H   0.75500489787703     -1.38737886141978     -0.45698960221290
  H   1.23518758330444      0.13165259399523     -1.24771987078482
  N   -1.50958277504630     -0.01994711148984     -1.19165668735948
  H   -1.68900721758141     -1.01502960821816     -1.26700000064481
  H   -1.15981923917664      0.34695702203268     -2.06681243687186
  N   -1.11359935603664     -0.31070718899707      1.05847586536281
  H   -2.01410859381606      0.08626194723991      1.28616484054337
  H   -0.44404746200852     -0.24323802666727      1.81425308931667
  N   1.64308984539857     -0.05133632672216      0.86876107549501
  H   2.46884416812767     -0.63541445522063      0.86742170434655
  H   1.93873592225102      0.91722676650028      0.87609006493773
