14
Coordinates from ORCA-job run
  C   -0.54249017512472     -0.26752686159325     -0.16921557919486
  C   0.96089087274166     -0.30551965107450     -0.27566926603054
  Br  -0.59861965132255      2.38875347049962     -0.31487053899518
  H   1.25783461326304      0.19541760031563     -1.20115515651690
  H   1.22592119872031     -1.36804907035012     -0.34480889330466
  N   -1.26466623045627     -0.53555849246394     -1.27462157476309
  H   -2.25648010310239     -0.35648857677175     -1.20627615483505
  H   -0.87500611295277     -0.11669148505122     -2.10634336902539
  N   -1.02603444879529     -0.51716277690603      1.04221456015998
  H   -2.00104886721164     -0.34140778027997      1.22718626664935
  H   -0.36879142755571     -0.26093085833287      1.77213084106186
  N   1.53231015369197      0.24051682674076      0.94233499674022
  H   1.44575218910540      1.25211795313932      0.89266393451954
  H   2.50942798899895     -0.00847029787168      1.01642993353472
