14
Coordinates from ORCA-job run
  C   -0.52966365985966      0.20745783735823      0.09115171516980
  C   0.92182202235112     -0.06678602781655      0.45991235204498
  Br  -0.51788083195064      2.08144898449617     -0.77576760696907
  H   0.90862729906359     -0.99117211879237      1.04743361633485
  H   1.25936095945380      0.74552196553092      1.11067405179097
  N   -0.99163044928684     -0.78454363391304     -0.78488917246518
  H   -1.89477187593785     -0.57440169779036     -1.18728232407157
  H   -0.29446062916345     -0.97823405661917     -1.49544835976719
  N   -1.33069698131357      0.37502511994436      1.28197659250931
  H   -2.10606538908003      1.00296536194894      1.11860618818019
  H   -1.69870736996164     -0.53930582434108      1.52469544373154
  N   1.72074880560524     -0.28900878683277     -0.73974557597152
  H   1.98431160886764      0.60278223081094     -1.14069035825590
  H   2.56800649121229     -0.79074935398422     -0.50962656226121
