14
Coordinates from ORCA-job run
  C   -0.60570222315451      0.16988976217070      0.01779815080035
  C   0.85046823048656     -0.03731925000689      0.43345620096061
  Br  -0.58774495971081      2.02113187327150     -0.92675917835134
  H   1.14775537742530      0.76133968752906      1.12774773716683
  H   0.86160378001727     -0.98639789909398      0.98033692022183
  N   -1.10856007127741     -0.74264813328589     -0.95292439824434
  H   -1.28468835794447     -1.62517787874700     -0.48364956737182
  H   -0.39765014385578     -0.87794895498583     -1.66331784415743
  N   -1.45828732834574      0.16788252001598      1.13544440790415
  H   -1.18246873463926      0.85077686927754      1.82806122049595
  H   -2.41531071302185      0.33568707209133      0.85081086682468
  N   1.70034595178317     -0.16992563417285     -0.73997442728947
  H   2.57381295194825     -0.61275976397441     -0.48794171173762
  H   1.90742624028928      0.74546972991073     -1.11908837722237
