14
Coordinates from ORCA-job run
  C   -0.60233728017511      0.19152688118645     -0.00737282953634
  C   0.81874034791265     -0.09721335565736      0.47074402649946
  Br  -0.45002870960841      2.11047748057191     -0.83536577920188
  H   0.75948089295752     -1.04575965734053      1.01648263629678
  H   1.11356138300029      0.68953857848262      1.17661063165574
  N   -1.00371424490205     -0.77309349603783     -0.92328302820036
  H   -0.27227136964178     -0.96065559174053     -1.59702602690013
  H   -1.89319784102764     -0.55715729391301     -1.35056060484909
  N   -1.60789641865716      0.34490709488684      0.99743751885522
  H   -1.75979287541254     -0.55193380858191      1.44527715819659
  H   -1.35014502560777      1.04577925609103      1.67946063541439
  N   1.71485370326870     -0.27500212079307     -0.66403721858817
  H   2.55726859434195     -0.75513756382999     -0.37626247872377
  H   1.97547884355136      0.63172359667539     -1.03210464091844
