14
Coordinates from ORCA-job run
  C   -0.56509003562633      0.34831829421126     -0.00012787882528
  C   0.85775496568971     -0.01975241739939      0.42311711418615
  Br  -0.42596813152076      2.09557019964278     -0.95927036099453
  H   0.77393159919780     -0.94837599477307      1.00351925062719
  H   1.23639719291598      0.76483773824147      1.08905994457013
  N   -1.17208283670596     -0.56310216202180     -0.93612092294461
  H   -0.48961909640165     -0.78814841809335     -1.65421277882836
  H   -1.39704523011613     -1.41842889060992     -0.43642687158272
  N   -1.36355817799295      0.57405118223552      1.16567043193061
  H   -1.30300304117149     -0.22522762950672      1.78747110677858
  H   -2.32957721759532      0.71236982322728      0.89211614199026
  N   1.68362616511423     -0.29787045037677     -0.74429935201572
  H   1.98379248307580      0.57494146818904     -1.16062442018522
  H   2.51144136113705     -0.81018274296632     -0.46987140470646
