14
Coordinates from ORCA-job run
  C   -0.59845963626844      0.50673699401371     -0.10080250492971
  C   0.93166977096872      0.44503663049484     -0.04311497260307
  Br  -1.05234396993182      2.33228676606055     -0.72676265345671
  H   1.27307567582284      1.18728830863643      0.68103922350410
  H   1.33277951014969      0.71761719577897     -1.02456868535095
  N   -1.21468836147007     -0.39756668411187     -1.05082787849375
  H   -0.90588239160138     -0.20855346556731     -1.99782215896771
  H   -0.95073207897959     -1.34320984114442     -0.79089445070373
  N   -1.11151474774550      0.31918130918937      1.21645801070561
  H   -2.10653579279091      0.13612043462724      1.16376583168844
  H   -0.63918020171588     -0.48616025863941      1.61520490365953
  N   1.32077890329927     -0.90215408968505      0.38637570140815
  H   2.06523923814010     -0.85918295108118      1.06790256728342
  H   1.65579408212298     -1.44844034857188     -0.39495293374362
