14
Coordinates from ORCA-job run
  C   -0.58703689709460      0.46279198368040     -0.25746629586241
  C   0.93350794071911      0.43795084533599     -0.06838710779904
  Br  -1.05182264192246      2.33019318344993     -0.73418215741667
  H   1.39702410594008      0.71064895997244     -1.01848370036667
  H   1.20889531885193      1.19396873154336      0.67393247809491
  N   -0.92486985746672     -0.39851682961683     -1.34262964629157
  H   -0.43388602955733     -1.27548677989402     -1.19934300802700
  H   -1.92412008780545     -0.56532161781348     -1.33727295112274
  N   -1.35917986997168      0.15805104613849      0.93038140674710
  H   -1.09850761215380     -0.77488697922078      1.23559103265109
  H   -1.17374643266011      0.82134596795902      1.67438163807633
  N   1.32576540442418     -0.92128707578482      0.31813897677349
  H   2.15626392262706     -1.20910235821504     -0.17983626256469
  H   1.53171273606977     -0.97134907753466      1.30617559710787
