14
Coordinates from ORCA-job run
  C   -0.60689245184334      0.32383303218274     -0.10683290536903
  C   0.91853438801070      0.44503201395413     -0.12221314321271
  Br  -1.29179194639446      2.15025903027735     -0.69480275868948
  H   1.22679265399994      1.20977650938875      0.60634362081257
  H   1.23106931812543      0.78482774656577     -1.11123815536113
  N   -1.16345038589118     -0.62483731829969     -1.03526515333721
  H   -0.60896813173730     -1.47122379590835     -0.92843067405084
  H   -1.04359567024280     -0.28752984366880     -1.98223555218043
  N   -1.04070413805394     -0.03353664189611      1.18818478127969
  H   -0.82036323997476      0.67128736401342      1.87951930787694
  H   -2.03366111611308     -0.22809006197950      1.18284293784860
  N   1.46459104980944     -0.88759258763379      0.11429850250944
  H   1.30895024120674     -1.15245861453618      1.07810353369915
  H   2.45948942909862     -0.89874683245974     -0.06827434182557
