14
Coordinates from ORCA-job run
  C   -0.45796153121189      0.29160016197544     -0.13976519822697
  C   1.04141059203148      0.58868681500257     -0.02167125215071
  Br  -1.29326960059795      2.06100588918408     -0.79091338967357
  H   1.37485523718000      1.00107742920269     -0.97427541392344
  H   1.20643931637233      1.35115273808812      0.74667562472440
  N   -0.71205067677532     -0.70484698802988     -1.15222793026560
  H   -1.31127947300177     -0.36828565690736     -1.88973584151026
  H   -1.11232854594374     -1.53155759269297     -0.72900567588265
  N   -0.98983418462605     -0.11513598493950      1.10494639321362
  H   -1.99313984295529     -0.24394195484638      1.06269853061718
  H   -0.76832802259311      0.53986237029601      1.84399910028814
  N   1.82994727283361     -0.59050277251778      0.27866678799044
  H   1.69604177919399     -1.25866229090053     -0.47120526520295
  H   1.49149768009372     -1.02045216291451      1.13081353000238
