14
Coordinates from ORCA-job run
  C   -0.46134070779985      0.30448317397107     -0.09443335149739
  C   1.05047983677923      0.55350984245550     -0.14634311673507
  Br  -1.30891807319590      2.12258395745955     -0.57206170574813
  H   1.34606731822607      0.81371814024525     -1.16804165088822
  H   1.26829730115333      1.41159972965435      0.49000485766740
  N   -0.83617456733818     -0.70737986087108     -1.00730179173978
  H   -0.49281342766812     -0.52159993277925     -1.94104818250928
  H   -1.84020868627870     -0.83332359349440     -1.03976243872353
  N   -0.88671937897849     -0.03280932334365      1.24271179737067
  H   -1.56731679053907      0.61345776716013      1.61067697335437
  H   -1.25652118957307     -0.97396566452682      1.25923411961974
  N   1.82691521918568     -0.58034242530346      0.31627564477244
  H   1.58991983523030     -1.40166774620793     -0.22669339995467
  H   1.56833331079677     -0.76826406441925      1.27778224501145
