14
Coordinates from ORCA-job run
  C   -0.41515482198035      0.24271591669926     -0.20513800609861
  C   1.03207008315688     -0.25226807569591     -0.31755756137279
  Br  -0.43552462621488      2.20947048117576     -0.26842771867253
  H   0.97758704056540     -1.35180250855320     -0.32040374116640
  H   1.41800717658471      0.05141983071055     -1.29176305016830
  N   -1.14511335646960     -0.20542343807722     -1.36813224202681
  H   -2.11976169984135      0.06693088910250     -1.31368738545411
  H   -1.09067396027233     -1.21745739139291     -1.42706808761926
  N   -0.92210432704287     -0.10820077917894      1.11278754515199
  H   -1.82020546149784      0.32949782944319      1.28285031689076
  H   -1.04708967729429     -1.11622994677675      1.14863122734704
  N   1.94355637812453      0.15776072809459      0.72755091490281
  H   1.47530102166820      0.05070075458401      1.61997575310559
  H   2.15010623051379      1.14288570986505      0.61938203518062
