14
Coordinates from ORCA-job run
  C   -0.49044242056782      0.26574704443452     -0.10218736842053
  C   0.87037113302406     -0.04599952504296      0.53867951920474
  Br  -0.35384037937326      2.03291744501188     -0.98354563128344
  H   1.07049661550493      0.70600685386658      1.30628033746641
  H   0.73819472153596     -1.00572040515471      1.06138305152665
  N   -0.75860649496102     -0.70971402920979     -1.12095996128180
  H   -0.72628435164627     -1.63908445717782     -0.71214645849894
  H   -1.68717775801187     -0.55460764869211     -1.49729915883721
  N   -1.58887465858768      0.39244345925686      0.83697902160428
  H   -1.68018485311883     -0.48057911482301      1.34907750633327
  H   -1.41333095142706      1.13783104718658      1.50209459212512
  N   2.01582093755271     -0.14959415582572     -0.34028643355850
  H   1.76191322401001     -0.71886421900604     -1.13921064553938
  H   2.24094523606615      0.77021770517574     -0.69885837084068
