14
Coordinates from ORCA-job run
  C   -0.49989778436955     -0.00208189652664      0.16249373332844
  C   0.99276321135505      0.08893627635419      0.48182663429322
  Br  -0.82862261558374      1.91406110999313     -0.94886024615973
  H   1.19554601428632     -0.76871447180155      1.13201413713439
  H   1.15866396419594      0.99962292607518      1.06156573439649
  N   -0.81690000438243     -1.04087932447849     -0.70250881434854
  H   -0.29188994812714     -0.96973940657672     -1.56217664628116
  H   -1.80380932624067     -1.10102162053906     -0.91534226054951
  N   -1.29074865359210      0.03388756244058      1.30317262244498
  H   -2.28323239873743      0.00667459678208      1.10998530484519
  H   -1.08063813571467      0.83847528997495      1.87711533134752
  N   1.91570452132340      0.05991521794933     -0.62539321897913
  H   1.93548511759630     -0.84272371629645     -1.07863047345184
  H   1.69557603799071      0.78458745664948     -1.29626183802031
