14
Coordinates from ORCA-job run
  C   -0.53582432210969      0.19928811119905      0.09995071153716
  C   0.93674862116264     -0.06844546200165      0.46103329561844
  Br  -0.53582583334282      2.08044389394574     -0.74816744237553
  H   0.93615678716774     -1.04189449628564      0.96514402830654
  H   1.26081223452886      0.67953868400240      1.19099251028752
  N   -1.12717862665760     -0.63953452863357     -0.90240214639464
  H   -0.62513460049149     -0.58196127421588     -1.77760537715423
  H   -1.13967966668446     -1.59538760959750     -0.56241205309632
  N   -1.33878769946317      0.11975829046044      1.24824229717725
  H   -1.01748587732543      0.72195850820954      1.99388966460822
  H   -2.30745040951227      0.31176869189870      1.02754079108044
  N   1.90059882292007     -0.10736011624593     -0.61477384728976
  H   1.68607005016658     -0.84949956781377     -1.26750645851536
  H   1.90598051964105      0.77232687507807     -1.11492597378974
