13

C	-0.513056	0.06162	-1.431755
C	0.0	0.0	0.0
Cl	0.167938	-1.39437	-2.345786
H	1.091321	0.0	0.0
H	-0.324694	0.923214	0.494435
N	-1.938668	0.116998	-1.518056
H	-2.240436	0.046675	-2.48215
H	-2.331111	-0.657738	-0.993539
C	0.049636	1.236148	-2.111991
N	0.47873	2.176194	-2.670366
C	-0.585583	-1.131171	0.688421
N	-1.086013	-2.045746	1.233588
F	2.517704	0.0	0.0
