13

C	-0.439915	0.035064	-1.451563
C	0.0	0.0	0.0
Cl	0.070226	-1.469643	-2.293735
H	1.092539	0.0	0.0
H	-0.30302	0.947616	0.465654
N	-1.877044	0.136311	-1.598081
H	-2.206291	0.907954	-1.031597
H	-2.122972	0.306442	-2.565892
C	0.264299	1.147617	-2.123145
N	0.69258	2.105608	-2.652397
C	-0.59378	-1.101743	0.727934
N	-1.04598	-1.983494	1.360384
F	2.521706	0.0	0.0
