13

C	-0.43717	0.039304	-1.453238
C	0.0	0.0	0.0
Cl	0.059505	-1.47121	-2.293817
H	1.0925	0.0	0.0
H	-0.302056	0.9479	0.464876
N	-1.874712	0.15573	-1.605486
H	-2.109663	0.325681	-2.576793
H	-2.190848	0.943494	-1.050574
C	0.277721	1.143336	-2.129274
N	0.703027	2.078429	-2.700428
C	-0.596874	-1.101464	0.725007
N	-1.052841	-1.984111	1.353835
F	2.52158	0.0	0.0
