13

C	-0.481565	0.070539	-1.451302
C	0.0	0.0	0.0
Cl	0.1113	1.635589	-2.192248
H	1.092347	0.0	0.0
H	-0.36054	-0.944166	0.420837
N	0.034248	-1.061279	-2.150396
H	-0.557254	-1.347186	-2.91387
H	0.333603	-1.779555	-1.578599
C	-1.946337	0.152424	-1.544227
N	-3.123356	0.144871	-1.639452
C	-0.519213	1.08137	0.799303
N	-0.932012	1.96734	1.470676
F	2.519247	0.0	0.0
