13

C	-0.460436	0.068855	-1.46011
C	0.0	0.0	0.0
Cl	0.186059	1.65085	-2.130972
H	1.092633	0.0	0.0
H	-0.343174	0.887639	0.536106
N	0.00989	-1.029769	-2.232778
H	0.344479	-1.783887	-1.657254
H	-0.649432	-1.357765	-2.924601
C	-1.921769	0.20511	-1.571486
N	-3.094504	0.256981	-1.665132
C	-0.533971	-1.200063	0.618503
N	-0.938068	-2.207704	1.081799
F	2.51844	0.0	0.0
