13

C	-0.070134	0.115792	-1.536349
C	0.0	0.0	0.0
Cl	-1.688099	0.672941	-2.149402
H	1.095084	0.0	0.0
H	-0.443996	-0.91437	0.394584
N	0.962071	0.989648	-2.055857
H	0.720893	1.935142	-1.770072
H	1.805652	0.722452	-1.503483
C	0.129718	-1.23267	-2.093012
N	0.270696	-2.31717	-2.520246
C	-0.507024	1.181747	0.660831
N	-0.907648	2.145515	1.201758
F	2.601833	0.0	0.0
