13

C	-0.099603	-0.053761	-1.540153
C	0.0	0.0	0.0
Cl	-0.083088	1.791184	-2.094231
H	1.094444	0.0	0.0
H	-0.44456	0.900117	0.416672
N	0.993008	-0.77989	-1.993053
H	1.118049	-0.771878	-2.994586
H	1.845919	-0.547966	-1.424381
C	-1.370403	-0.521777	-2.102478
N	-2.380944	-0.927271	-2.544384
C	-0.526595	-1.199263	0.620343
N	-0.953916	-2.156924	1.150984
F	2.637868	0.0	0.0
