13

C	-0.469321	0.073926	-1.443693
C	0.0	0.0	0.0
Cl	0.230418	-1.415284	-2.282688
H	1.091822	0.0	0.0
H	-0.33123	-0.956336	0.419801
N	-1.889887	0.130914	-1.576369
H	-2.170262	0.054876	-2.546473
H	-2.307812	-0.624072	-1.04604
C	0.109965	1.225005	-2.149562
N	0.50139	2.155538	-2.749164
C	-0.539834	1.093312	0.78455
N	-0.945863	1.976087	1.447324
F	2.519442	0.0	0.0
