13

C	-0.118187	0.123551	-1.52837
C	0.0	0.0	0.0
Cl	-1.730203	0.799355	-2.098669
H	1.095718	0.0	0.0
H	-0.42993	-0.926092	0.380373
N	0.946141	0.967959	-1.956713
H	1.789347	0.718917	-1.390213
H	1.114206	0.884794	-2.950737
C	-0.085628	-1.234093	-2.113416
N	-0.014233	-2.296539	-2.612419
C	-0.516577	1.152607	0.705949
N	-0.923475	2.066948	1.321409
F	2.621506	0.0	0.0
