16

C	-0.567027	0.087344	-1.413241
C	0.0	0.0	0.0
Cl	-0.373364	-1.465822	-2.311972
H	1.095104	0.0	0.0
H	-1.651745	0.251374	-1.366795
C	0.118141	1.18804	-2.202938
H	1.195056	1.004208	-2.203174
H	-0.071326	2.141498	-1.708667
H	-0.250957	1.225039	-3.230944
N	-0.421201	-1.200858	0.701677
H	0.281624	-1.409484	1.401038
H	-1.312508	-1.061782	1.166582
N	-0.353669	1.277245	0.655721
H	0.440297	1.541829	1.232072
H	-1.15191	1.141775	1.265853
H	2.957691	0.0	0.0
