16

C	-0.584209	-0.04023	-1.405277
C	0.0	0.0	0.0
Cl	0.015831	1.353019	-2.365075
H	1.098584	0.0	0.0
H	-0.190549	-0.923103	-1.919331
C	-2.100234	-0.026494	-1.421163
H	-2.486329	-0.076252	-2.442395
H	-2.47774	-0.873953	-0.844795
H	-2.447956	0.898441	-0.958178
N	-0.447682	-1.238718	0.692633
H	0.164052	-1.299211	1.505822
H	-0.15285	-2.024169	0.113743
N	-0.467142	1.162052	0.735829
H	0.321333	1.546276	1.243577
H	-1.17643	0.867336	1.396693
H	2.971923	0.0	0.0
