16

C	-0.571518	0.081763	-1.406408
C	0.0	0.0	0.0
Cl	-0.115546	-1.374924	-2.355546
H	1.100016	0.0	0.0
H	-1.663296	0.054985	-1.344005
C	-0.093531	1.318129	-2.149832
H	-0.411401	1.29747	-3.194245
H	0.999037	1.358637	-2.105036
H	-0.513301	2.214292	-1.683173
N	-0.478898	-1.175616	0.691889
H	0.234243	-1.476922	1.345545
H	-1.327016	-0.947498	1.197936
N	-0.452735	1.232526	0.711662
H	-0.172722	1.075715	1.676795
H	0.165904	1.978928	0.404605
H	3.003324	0.0	0.0
