16

C	-0.556891	0.231062	-1.398674
C	0.0	0.0	0.0
Cl	-0.368342	-1.233682	-2.45653
H	1.095745	0.0	0.0
H	-1.638984	0.382339	-1.33134
C	0.140431	1.397199	-2.068967
H	-0.241368	1.558713	-3.080345
H	1.214418	1.201743	-2.100061
H	-0.033472	2.288444	-1.464573
N	-0.543991	-1.220143	0.615418
H	-0.445867	-1.979576	-0.049779
H	0.100165	-1.445063	1.370139
N	-0.407269	1.163065	0.794878
H	0.385248	1.429411	1.370806
H	-1.164804	0.863914	1.399473
H	3.013234	0.0	0.0
