16

C	-0.48414	0.084998	-1.447452
C	0.0	0.0	0.0
Cl	-0.263172	-1.48087	-2.302916
H	1.096118	0.0	0.0
H	-1.568958	0.259845	-1.4662
C	0.275542	1.152095	-2.222892
H	-0.018972	1.160484	-3.275732
H	1.345402	0.949597	-2.133846
H	0.082871	2.14302	-1.803337
N	-0.514291	-1.179706	0.685278
H	0.268176	-1.603096	1.176685
H	-1.163362	-0.842788	1.386666
N	-0.41134	1.230608	0.707582
H	0.437154	1.728894	0.953914
H	-0.955012	1.843805	0.109495
H	2.984463	0.0	0.0
