16

C	-0.491118	0.011944	-1.442464
C	0.0	0.0	0.0
Cl	0.072405	1.509857	-2.294052
H	1.100122	0.0	0.0
H	0.023021	-0.806506	-1.947397
C	-1.993465	-0.089001	-1.609261
H	-2.33548	-1.02417	-1.160253
H	-2.483529	0.748475	-1.111231
H	-2.268468	-0.084249	-2.667117
N	-0.433157	-1.258223	0.593059
H	-1.291779	-1.087772	1.10909
H	0.287453	-1.554755	1.24506
N	-0.553451	1.142637	0.750913
H	-0.253093	1.985775	0.268049
H	-0.039223	1.155655	1.628744
H	2.984481	0.0	0.0
