16

C	-0.557921	0.06573	-1.414107
C	0.0	0.0	0.0
Cl	-0.129283	1.631084	-2.21639
H	1.100171	0.0	0.0
H	-0.039322	-0.701349	-1.990621
C	-2.06188	-0.125382	-1.502828
H	-2.306722	-1.09432	-1.068294
H	-2.398592	-0.101437	-2.541126
H	-2.591448	0.655709	-0.954617
N	-0.384809	-1.321133	0.522555
H	0.430197	-1.691071	0.999663
H	-1.097727	-1.157706	1.221947
N	-0.498721	1.073885	0.868799
H	0.323653	1.461594	1.322574
H	-0.878265	1.829617	0.310864
H	2.94186	0.0	0.0
