17

C	-0.536463	-0.002859	-1.438988
C	0.0	0.0	0.0
F	-0.051198	-1.097397	-2.067369
H	1.094153	0.0	0.0
N	-1.951746	0.027704	-1.635344
H	-2.372288	-0.718789	-1.092853
H	-2.315802	0.919592	-1.329008
N	-0.000364	1.218809	-2.185449
O	-0.572999	2.28041	-1.935875
O	0.922828	1.056022	-2.964138
C	-0.492563	-1.234591	0.607048
N	-0.973392	-2.192805	1.08856
C	-0.444053	1.197291	0.846552
H	-0.056541	1.062001	1.857388
H	-1.532244	1.291343	0.899188
H	-0.02036	2.116847	0.446383
Cl	3.274437	0.0	0.0
