17

C	-0.322592	0.121988	-1.489487
C	0.0	0.0	0.0
F	-1.594332	0.593494	-1.71335
H	1.094838	0.0	0.0
N	0.619135	0.954769	-2.096519
H	1.559002	0.754441	-1.751152
H	0.594147	0.891779	-3.106161
N	-0.372661	-1.299518	-2.140718
O	-1.422211	-1.928683	-2.051288
O	0.656062	-1.681693	-2.688342
C	-0.528356	-1.198675	0.634483
N	-0.980869	-2.121783	1.203527
C	-0.464742	1.254623	0.747235
H	-1.553699	1.316947	0.781648
H	-0.071011	1.225394	1.764405
H	-0.065029	2.135309	0.244784
Cl	3.284083	0.0	0.0
