17

C	-0.349497	0.157411	-1.489741
C	0.0	0.0	0.0
F	-1.570507	0.743524	-1.643338
H	1.094755	0.0	0.0
N	0.606285	0.881685	-2.258332
H	0.554452	1.855352	-1.983777
H	1.537632	0.545052	-2.009886
N	-0.45091	-1.230211	-2.121209
O	0.618281	-1.806011	-2.277736
O	-1.5657	-1.65938	-2.392806
C	-0.55324	-1.203711	0.602444
N	-1.015459	-2.151014	1.121714
C	-0.426314	1.240989	0.791523
H	-0.002956	2.135992	0.330778
H	-0.018497	1.170328	1.800871
H	-1.511296	1.340193	0.841909
Cl	3.289127	0.0	0.0
