17

C	-0.507166	0.023186	-1.427465
C	0.0	0.0	0.0
F	-1.89867	-0.215526	-1.423476
H	1.092317	0.0	0.0
N	-0.165185	1.176276	-2.130834
H	-0.488062	2.012219	-1.669483
H	-0.492867	1.12068	-3.085413
N	0.006309	-1.157532	-2.252204
O	0.535076	-2.090629	-1.667085
O	-0.216049	-1.087236	-3.459913
C	-0.520761	-1.162529	0.715704
N	-0.966313	-2.031208	1.367997
C	-0.424137	1.275988	0.745141
H	-0.169688	1.167221	1.799713
H	0.146834	2.126951	0.369011
H	-1.498044	1.462917	0.660153
Cl	3.296899	0.0	0.0
