17

C	-0.26687	0.15603	-1.50847
C	0.0	0.0	0.0
F	-0.153798	1.479303	-1.814171
H	1.096495	0.0	0.0
N	0.575845	-0.58935	-2.362022
H	0.312499	-1.564787	-2.342041
H	1.53153	-0.492892	-2.017448
N	-1.721295	-0.214281	-1.820375
O	-1.939726	-1.34476	-2.250768
O	-2.569717	0.633233	-1.562472
C	-0.43287	-1.325406	0.432674
N	-0.809712	-2.374648	0.804229
C	-0.55748	1.100642	0.894793
H	-1.648322	1.133546	0.864387
H	-0.160367	2.060998	0.568873
H	-0.230388	0.9237	1.921033
Cl	3.279433	0.0	0.0
