17

C	-0.239705	0.01315	-1.505526
C	0.0	0.0	0.0
F	-0.124356	1.33435	-1.960616
H	1.098738	0.0	0.0
N	0.609836	-0.883234	-2.139999
H	0.559435	-0.809967	-3.146084
H	1.562254	-0.787451	-1.786224
N	-1.677646	-0.307104	-1.931174
O	-2.565212	-0.225964	-1.087653
O	-1.843866	-0.565789	-3.120111
C	-0.448655	-1.263894	0.573128
N	-0.79884	-2.267432	1.072664
C	-0.516487	1.207421	0.773075
H	-1.605026	1.260232	0.756944
H	-0.095918	2.116091	0.344404
H	-0.174584	1.130794	1.806647
Cl	3.295404	0.0	0.0
