17

C	-0.323327	0.107006	-1.481599
C	0.0	0.0	0.0
F	-1.634771	0.446967	-1.707869
H	1.092984	0.0	0.0
N	0.52668	1.047614	-2.085375
H	1.48864	0.914817	-1.770183
H	0.454575	1.008114	-3.093818
N	-0.19854	-1.259246	-2.209588
O	0.38172	-2.179091	-1.645162
O	-0.629142	-1.273844	-3.362332
C	-0.586356	-1.163103	0.650105
N	-1.121639	-2.021429	1.247317
C	-0.455192	1.275545	0.722502
H	-0.024494	2.144717	0.226519
H	-0.090573	1.244347	1.750394
H	-1.543262	1.36244	0.729108
Cl	3.281999	0.0	0.0
