17

C	-0.242997	0.00146	-1.504677
C	0.0	0.0	0.0
F	-0.121951	1.316823	-1.971822
H	1.098783	0.0	0.0
N	0.599381	-0.905637	-2.132624
H	1.553472	-0.811466	-1.783152
H	0.54475	-0.843454	-3.139324
N	-1.683894	-0.314651	-1.923272
O	-1.854461	-0.58956	-3.108186
O	-2.569468	-0.214196	-1.079261
C	-0.45075	-1.257886	0.584557
N	-0.806754	-2.252654	1.097391
C	-0.511774	1.21469	0.765402
H	-0.1614	1.147828	1.796805
H	-1.600387	1.267458	0.757293
H	-0.094405	2.119065	0.32492
Cl	3.293888	0.0	0.0
