16
Coordinates from ORCA-job run
  C   -0.35320886423598     -0.18995421165450      0.45446841917897
  C   0.84682042996600     -0.00597812348424     -0.48599284519697
  F   0.03593591042459      0.04485228737310      1.72691553749530
  H   0.56985690408361     -0.32211109171265     -1.49166872549796
  N   -0.72386786392517     -1.67164657153443      0.34975595166798
  O   -0.96792890728906     -2.06104236380708     -0.78807220550495
  O   -0.77427697794573     -2.31526084814779      1.38517249488799
  C   -1.57061788317591      0.62898460746732      0.11380715478591
  H   -2.38439505301016      0.32594875176713      0.77531220950666
  H   -1.86494719546431      0.47936207975184     -0.92381096181844
  H   -1.36020050016744      1.68492507276354      0.28451043167459
  C   2.01174287183547     -0.73342606251055     -0.00318931402045
  N   2.93421456289347     -1.35720302395020      0.36889695600245
  N   1.14684122897736      1.47302557748054     -0.57140089137355
  O   1.85814029956664      1.95490712862189      0.30031667265197
  O   0.59689103746665      2.06361679157610     -1.49602088443950
