16
Coordinates from ORCA-job run
  C   -0.47111531870475     -0.20271179110472      0.51616475446324
  C   0.97034889621203      0.27376947537814      0.29185165852847
  F   -0.73340403567337      0.06607772821934      1.83653932940604
  H   1.62638126361460     -0.32335523952818      0.93237481493575
  N   -0.48663565332470     -1.73095626791603      0.43922420255529
  O   -1.44702953685318     -2.26067423085879     -0.10122978236412
  O   0.44644260958583     -2.29655151588815      0.99898947821438
  C   -1.51909292875030      0.41930331713191     -0.35432749978599
  H   -1.38010741091520      0.14138023188394     -1.39717990947725
  H   -1.46832435897054      1.50394204242354     -0.24318776631310
  H   -2.49873884151123      0.07357881625298     -0.02821433401028
  C   1.09324026894229      1.68928512518734      0.60481751030152
  N   1.15382382408704      2.83112486444046      0.87217513595064
  N   1.44583537122476      0.01613355947445     -1.12424140515581
  O   0.90910837047884     -0.91716406405321     -1.71098879057013
  O   2.35926748055786      0.71681794895698     -1.53376739667865
