16
Coordinates from ORCA-job run
  C   -0.61324464316131      0.23725096445589      0.28050361170844
  C   0.72422009904338      0.56608983529744     -0.38424802980085
  F   -1.05157287497198      1.34791037480567      0.92595606808753
  H   0.61236275225848      1.56060081660320     -0.83175712361980
  N   -0.41424391396637     -0.85859929030200      1.31684781588057
  O   0.38469817358447     -1.73340365305018      0.99976791690317
  O   -1.11402574193100     -0.80907443871757      2.31375997645618
  C   -1.66700538721117     -0.23957324630084     -0.68878812655129
  H   -2.60268627330857     -0.34919775883357     -0.13704689137381
  H   -1.80599511412477      0.50195183011878     -1.47783774254791
  H   -1.38639345381476     -1.19483368543012     -1.13222127653498
  C   1.13006933594235     -0.37226294733113     -1.41966191438621
  N   1.41992730071856     -1.07886477412376     -2.31178674005027
  N   1.85937453316430      0.74431562896519      0.61871985036063
  O   1.54399323077836      0.87293965279041      1.79323841262699
  O   2.98052197700004      0.80475069105258      0.13655419284161
