16
Coordinates from ORCA-job run
  C   -0.61283740821723      0.23098724070254      0.28863479119638
  C   0.69879189676858      0.58028167190968     -0.42076778164076
  F   -1.06775780146128      1.34670511906029      0.91420646039419
  H   0.54952919725840      1.56165473154918     -0.88509671428723
  N   -0.35220101577881     -0.82797061582274      1.34879552740934
  O   0.45907112083362     -1.69075142433162      1.03018525779150
  O   -1.01270470890715     -0.76337341107676      2.37144697916459
  C   -1.67691727656373     -0.30386299771655     -0.63759688932177
  H   -1.87422208713990      0.42079597113114     -1.42980229614814
  H   -1.37222256565171     -1.25212441521119     -1.07952165973689
  H   -2.58898677165183     -0.44469042238612     -0.05484774616990
  C   1.09623714193011     -0.37557597130005     -1.44312429943790
  N   1.36720576446270     -1.11376664851002     -2.31527971537402
  N   1.85586211918897      0.80284980149119      0.54933330428875
  O   1.56560662053360      0.98150496952391      1.72306691784833
  O   2.96554577439565      0.84933640098712      0.04036786402354
