16
Coordinates from ORCA-job run
  C   -0.61168274187171      0.23579602651183      0.28644974109894
  C   0.71312258300553      0.57443434089152     -0.40312163713496
  F   -1.05418592023945      1.34819445378717      0.92652061269735
  H   0.58395551955823      1.56603164669116     -0.85192366531539
  N   -0.38092071069766     -0.84573887303646      1.33034450519854
  O   -1.05157311762011     -0.78784427807515      2.34675463146291
  O   0.41798831646988     -1.71732825793944      1.00458805767857
  C   -1.67507431995589     -0.26374757663241     -0.66040359980660
  H   -1.38256898935018     -1.20931983016319     -1.11606191366658
  H   -1.85050717467749      0.47827468463182     -1.44161406792116
  H   -2.59541036718210     -0.39750745520683     -0.08917220958705
  C   1.10608282939726     -0.37101361518044     -1.43675702753056
  N   1.37551487398436     -1.10010907563169     -2.31691142448105
  N   1.86284948980951      0.76319214986234      0.58204858402771
  O   2.97821347606273      0.80460326748679      0.08506933698250
  O   1.56319625330708      0.92308239200297      1.75619007629681
