16
Coordinates from ORCA-job run
  C   0.72885198868231      0.40829785901973      0.88821963778230
  C   -0.73490251319871      0.10981370191347      0.55908460498490
  H   0.79406171777397      1.44939424063176      1.21596786514570
  H   -1.36101973645147      0.45867951699884      1.38410363201461
  H   1.00059022660636     -0.21440890517353      1.74717941119728
  C   1.69690851471837      0.16622914236140     -0.26620904922961
  H   1.46428104778366      0.80008008759258     -1.12430929334725
  H   1.68589321507263     -0.87231976026625     -0.60094764475597
  H   2.71590012254613      0.40053619517232      0.04879450415844
  C   -1.04019737220491     -1.33622763143817      0.22892895158410
  H   -2.09959827001521     -1.46833755692321      0.00388768660121
  H   -0.47075524457643     -1.68433099209443     -0.63055431056233
  H   -0.79247176096160     -1.95539739647874      1.09466737089389
  N   -1.11751189994046      1.01168504775875     -0.58562327898759
  O   -1.21812891307281      0.52284270937950     -1.70919402725281
  O   -1.25090112276181      2.20346374154597     -0.31499606022686
