16
Coordinates from ORCA-job run
  C   0.75707941693955      0.61700112623564     -0.17113292562334
  C   -0.59995598316737      0.18206843345382      0.37359226074454
  H   0.77277777536260      0.42661442363392     -1.24833903307450
  H   -0.68246406768115      0.43571540295679      1.43256106557537
  H   0.85056429830671      1.69935366437773     -0.03158905459173
  C   1.91653819807477     -0.09423937716578      0.51977468984704
  H   2.86993464309179      0.31917029170640      0.18467115590390
  H   1.86491297560986      0.02860837836950      1.60498273652671
  H   1.92690403201878     -1.16278683070384      0.29808049472970
  C   -0.93354897054651     -1.27818106990881      0.13021713646312
  H   -1.95970682370987     -1.49623635986512      0.43397404686854
  H   -0.82481099879892     -1.52285776120335     -0.92702798602236
  H   -0.26832276565028     -1.91548264123364      0.71450179161543
  N   -1.64239244413915      1.03487440687112     -0.28919070447181
  O   -2.19515450898712      1.89423475620191      0.39556429871526
  O   -1.85135477672369      0.83214315627372     -1.48363997320587
