16
Coordinates from ORCA-job run
  C   0.70579849547060      0.41018254979982      0.90716295295578
  C   -0.74586624153250      0.09151713164017      0.54418474342365
  H   0.74566042542848      1.44647001270930      1.25369853615238
  H   -1.39434350325266      0.42384693518947      1.35875450942368
  H   0.97229363859067     -0.22251550240370      1.76043990575497
  C   1.70009061386285      0.20681768496334     -0.23232028846237
  H   1.70496813578674     -0.82209614192763     -0.59572522022272
  H   2.71014635620154      0.44049264542401      0.11073543149201
  H   1.48040809709365      0.86231280133809     -1.07750443574735
  C   -1.02148588851580     -1.35683782650859      0.19845208166279
  H   -0.79451825548138     -1.97595287029865      1.06987347498102
  H   -0.42009603883101     -1.69488399063974     -0.64314889400849
  H   -2.07139072943643     -1.50099187929312     -0.06114660003397
  N   -1.11652437183273      0.99552266281710     -0.60161072896746
  O   -1.18429368924407      0.51343986062493     -1.73065191328639
  O   -1.27184704430796      2.18367592656522     -0.32619355511753
