19

C	0.0	0.0	0.0
C	-0.346958	-0.080144	-1.51896
Br	1.986698	0.0	0.0
H	0.209157	0.750565	-1.987055
C	-0.465334	1.318062	0.591159
H	-1.559514	1.306859	0.634769
H	-0.079043	1.444139	1.605545
H	-0.13168	2.164998	-0.015641
C	-0.521593	-1.178609	0.79186
H	-1.616496	-1.137336	0.761689
H	-0.203224	-1.113538	1.835534
H	-0.187688	-2.119431	0.357728
N	-1.731374	0.101066	-1.868093
H	-2.358751	-0.507421	-1.348562
H	-2.052608	1.035221	-1.650789
N	0.039017	-1.384798	-2.050023
H	1.046425	-1.448269	-2.128316
H	-0.369882	-1.438927	-2.975785
Cl	-4.330028	0.0	0.0
