19

C	0.0	0.0	0.0
C	-0.32945	0.095781	-1.524221
Br	1.986712	0.0	0.0
H	0.253679	-0.717612	-1.990599
C	-0.539431	1.161336	0.8017
H	-0.169452	2.111351	0.421523
H	-0.278604	1.056211	1.858281
H	-1.632016	1.139804	0.71475
C	-0.464188	-1.333018	0.5582
H	-1.558371	-1.322539	0.591814
H	-0.125785	-2.162347	-0.069729
H	-0.082214	-1.484837	1.570306
N	0.034735	1.416655	-2.030216
H	-0.323056	1.462281	-2.977141
H	1.04149	1.517304	-2.053339
N	-1.699901	-0.112972	-1.906266
H	-2.022971	-1.041992	-1.672365
H	-2.344262	0.509143	-1.423339
Cl	-4.298428	0.0	0.0
