19

C	0.0	0.0	0.0
C	-0.488473	-0.013038	-1.495176
Br	1.971512	0.0	0.0
H	0.396366	-0.033423	-2.135625
C	-0.428735	1.244891	0.766597
H	-1.519591	1.23938	0.843075
H	-0.110494	2.154614	0.261497
H	-0.006874	1.215087	1.774733
C	-0.421551	-1.237585	0.784077
H	-0.099679	-2.152306	0.290392
H	0.003326	-1.192064	1.790336
H	-1.511996	-1.23853	0.863579
N	-1.187144	1.23694	-1.804058
H	-2.09517	1.200452	-1.339069
H	-1.380839	1.232777	-2.800651
N	-1.220601	-1.249998	-1.772785
H	-2.125695	-1.182258	-1.304655
H	-1.418048	-1.263699	-2.768566
Cl	-3.889968	0.0	0.0
