19

C	0.0	0.0	0.0
C	-0.350513	0.266555	-1.496857
Br	1.986127	0.0	0.0
H	0.193773	1.19027	-1.75963
C	-0.472947	1.14527	0.874498
H	-1.566977	1.121583	0.907533
H	-0.140118	2.109386	0.478711
H	-0.091587	1.037784	1.892514
C	-0.511371	-1.332981	0.502301
H	-0.163833	-2.148619	-0.129489
H	-1.606778	-1.302356	0.480902
H	-0.194113	-1.500707	1.535449
N	-1.73864	0.507369	-1.790444
H	-2.069958	1.363979	-1.36669
H	-2.355867	-0.211606	-1.421297
N	0.046353	-0.875313	-2.314458
H	1.054615	-0.916542	-2.395935
H	-0.355231	-0.714709	-3.230495
Cl	-4.345037	0.0	0.0
