19

C	0.0	0.0	0.0
C	-0.501022	-0.172355	-1.444764
Br	1.986162	0.0	0.0
H	-1.588442	-0.058817	-1.343537
C	-0.456753	1.335487	0.561515
H	-0.096712	1.466215	1.5858
H	-1.55221	1.323074	0.563524
H	-0.107008	2.156408	-0.062123
C	-0.465384	-1.139805	0.887263
H	-0.143792	-0.973996	1.91831
H	-1.561192	-1.14944	0.852326
H	-0.074601	-2.103473	0.555893
N	-0.26265	-1.487699	-2.040284
H	-0.930714	-2.149794	-1.663067
H	0.670251	-1.809454	-1.799769
N	-0.014764	0.909385	-2.287289
H	-0.496996	0.815643	-3.174502
H	0.970595	0.747878	-2.473828
Cl	-3.873184	0.0	0.0
