19

C	0.0	0.0	0.0
C	-0.361795	-0.224912	-1.507323
Br	1.981908	0.0	0.0
H	0.39437	0.317535	-2.086647
C	-0.439615	1.376987	0.473313
H	-0.107514	2.152965	-0.218485
H	-1.531089	1.398332	0.517335
H	-0.033686	1.584621	1.46761
C	-0.522344	-1.080183	0.923625
H	-1.617026	-1.082958	0.85247
H	-0.13583	-2.066846	0.66542
H	-0.246496	-0.861077	1.957875
N	-1.637738	0.368015	-1.812856
H	-2.392769	0.124167	-1.167622
H	-1.915881	0.046817	-2.732149
N	-0.276179	-1.619027	-1.955494
H	0.624567	-2.01512	-1.702394
H	-1.003682	-2.154273	-1.492105
Cl	-4.284483	0.0	0.0
