19

C	0.0	0.0	0.0
C	-0.368234	0.487008	-1.442037
Br	1.98191	0.0	0.0
H	0.389213	0.062799	-2.110498
C	-0.52391	0.898153	1.10085
H	-0.248953	0.498267	2.079473
H	-0.13953	1.915332	1.024065
H	-1.618462	0.912335	1.030312
C	-0.439808	-1.439113	0.223461
H	-0.110787	-2.080079	-0.596
H	-1.53123	-1.465802	0.263862
H	-0.032414	-1.81876	1.165081
N	-0.296488	1.940269	-1.634053
H	0.589783	2.298074	-1.290571
H	-1.043402	2.372193	-1.099331
N	-1.639426	-0.055794	-1.843796
H	-1.906622	0.392055	-2.711908
H	-2.401186	0.097641	-1.178031
Cl	-4.289857	0.0	0.0
