19

C	0.0	0.0	0.0
C	-0.342995	0.066614	-1.52205
Br	1.986963	0.0	0.0
H	0.224538	-0.761105	-1.982066
C	-0.519754	1.18852	0.77829
H	-1.614365	1.16127	0.728657
H	-0.166472	2.123694	0.34781
H	-0.221426	1.122805	1.827973
C	-0.472033	-1.310808	0.599789
H	-1.566123	-1.291197	0.640269
H	-0.086641	-1.43434	1.614581
H	-0.143817	-2.163261	-0.002361
N	0.032576	1.371685	-2.058828
H	1.038238	1.440785	-2.144909
H	-0.383258	1.421424	-2.980575
N	-1.723546	-0.136929	-1.875408
H	-2.016204	-1.087055	-1.691245
H	-2.370508	0.436686	-1.338387
Cl	-4.3228	0.0	0.0
