12

C	0.0	0.0	0.0
C	-0.454527	0.031211	-1.451722
Cl	1.760071	0.0	0.0
H	-1.558953	0.158967	-1.323935
H	-0.407446	-0.838052	0.547637
H	0.045008	0.851614	-1.970169
N	-0.455067	1.23016	0.727073
O	-0.531262	2.270602	0.084151
O	-0.59638	1.122515	1.937641
C	-0.137868	-1.224997	-2.111098
N	0.109885	-2.233548	-2.66142
F	-2.501572	0.0	0.0
