12

C	0.0	0.0	0.0
C	-0.532063	0.093944	-1.413938
Cl	1.760008	0.0	0.0
H	-0.16274	1.004109	-1.889014
H	-0.391165	-0.863891	0.522098
H	-1.656849	0.119217	-1.158841
N	-0.442456	1.189001	0.809439
O	-0.553573	2.262069	0.22967
O	-0.555542	1.009743	2.015016
C	-0.156897	-1.071677	-2.186232
N	0.128642	-2.01557	-2.827052
F	-2.595099	0.0	0.0
