12

C	0.0	0.0	0.0
C	-0.358612	0.100139	-1.488204
Cl	1.76232	0.0	0.0
H	0.21191	-0.683417	-1.99589
H	-0.392752	-0.865502	0.510505
H	0.046043	1.046217	-1.856788
N	-0.429296	1.19998	0.778836
O	-0.55443	1.041291	1.986221
O	-0.497589	2.269229	0.185701
C	-1.757423	0.006428	-1.93984
N	-2.586272	0.067281	-2.779474
F	-2.342687	0.0	0.0
