12

C	-0.322447	-0.031047	-1.463526
C	0.0	0.0	0.0
F	-1.694931	-0.074061	-1.715744
H	1.094327	0.0	0.0
H	0.131124	-0.926667	-1.895013
H	0.086731	0.861088	-1.933704
C	-0.510487	-1.139013	0.729288
N	-0.863882	-2.12301	1.267068
N	-0.377107	1.254776	0.643789
O	-0.26261	2.285204	-0.031613
O	-0.645671	1.237138	1.851342
H	2.455287	0.0	0.0
