12

C	-0.544099	-0.007501	-1.412455
C	0.0	0.0	0.0
F	-0.051056	1.085147	-2.102231
H	1.091057	0.0	0.0
H	-1.634602	0.060855	-1.420483
H	-0.207772	-0.920504	-1.909362
C	-0.528485	-1.123153	0.748643
N	-0.961664	-2.052202	1.323932
N	-0.466764	1.267131	0.685645
O	0.385555	1.973943	1.206139
O	-1.67835	1.498088	0.676075
H	2.735	0.0	0.0
