12

C	-0.493212	-0.193815	-1.418911
C	0.0	0.0	0.0
F	0.208245	0.577588	-2.322872
H	1.090747	0.0	0.0
H	-1.552168	0.066929	-1.509563
H	-0.340738	-1.243188	-1.685686
C	-0.438052	-1.095055	0.839684
N	-0.770391	-2.043093	1.451248
N	-0.410633	1.268407	0.585013
O	-0.289327	1.39045	1.809799
O	-0.726788	2.186978	-0.185298
H	2.443661	0.0	0.0
