12

C	-0.364267	0.011837	-1.478312
C	0.0	0.0	0.0
F	-0.311079	-1.287287	-1.96929
H	1.090811	0.0	0.0
H	-1.368867	0.403694	-1.651902
H	0.379426	0.608047	-2.009597
C	-0.521315	-1.129199	0.730139
N	-0.904332	-2.083878	1.299712
N	-0.355121	1.252186	0.621062
O	-0.362608	2.247827	-0.128194
O	-0.459462	1.305129	1.854714
H	2.398334	0.0	0.0
