12

C	-0.304128	-0.013446	-1.467561
C	0.0	0.0	0.0
F	-1.669638	-0.093267	-1.745307
H	1.096195	0.0	0.0
H	0.087904	0.898054	-1.915527
H	0.184184	-0.886996	-1.905785
C	-0.502746	-1.156222	0.706877
N	-0.863675	-2.153171	1.215667
N	-0.386399	1.237835	0.665741
O	-0.621864	1.197781	1.880256
O	-0.313228	2.280092	0.001617
H	2.449186	0.0	0.0
