12

C	-0.491985	-0.099135	-1.428918
C	0.0	0.0	0.0
F	0.191614	0.751383	-2.273627
H	1.091055	0.0	0.0
H	-1.557948	0.141714	-1.49979
H	-0.315801	-1.122925	-1.771822
C	-0.432383	-1.151711	0.762157
N	-0.751515	-2.142258	1.310015
N	-0.412835	1.223297	0.671472
O	-0.741926	2.189422	-0.034589
O	-0.278344	1.265773	1.902381
H	2.439468	0.0	0.0
