12

C	-0.488535	-0.153662	-1.425323
C	0.0	0.0	0.0
F	0.19081	0.671682	-2.297935
H	1.091056	0.0	0.0
H	-1.554449	0.077075	-1.50848
H	-0.302791	-1.186954	-1.731267
C	-0.431884	-1.124387	0.803334
N	-0.756577	-2.092248	1.387927
N	-0.422028	1.244204	0.627713
O	-0.769944	2.178687	-0.109846
O	-0.282671	1.331098	1.855094
H	2.443695	0.0	0.0
