14

C	0.0	0.0	0.0
C	-0.27593	-0.253225	-1.511012
Cl	1.822955	0.0	0.0
H	0.390078	0.418919	-2.056172
H	-0.301775	-0.877287	0.575188
N	-0.510514	1.254283	0.412635
H	-0.261408	1.378538	1.390082
H	-1.552931	1.013394	0.35116
N	-1.636281	0.083081	-2.104305
O	-2.316566	-0.835835	-2.53461
O	-1.837197	1.276028	-2.273838
C	0.054022	-1.635449	-1.852237
N	0.374807	-2.733075	-2.118474
F	-2.621983	0.0	0.0
