14

C	0.0	0.0	0.0
C	-0.283733	-0.290231	-1.506517
Cl	1.78802	0.0	0.0
H	0.352888	0.402792	-2.062821
H	-0.322152	-0.856382	0.596133
N	-0.520535	1.269565	0.366371
H	-1.560103	1.020887	0.326703
H	-0.258908	1.43705	1.33396
N	-1.659681	-0.022579	-2.103378
O	-2.314248	-0.982539	-2.48249
O	-1.897117	1.153143	-2.33532
C	0.100154	-1.66235	-1.83746
N	0.457025	-2.748872	-2.10439
F	-2.62993	0.0	0.0
