14

C	0.0	0.0	0.0
C	-0.391233	0.053517	-1.504244
Cl	1.791233	0.0	0.0
H	-0.045679	-0.867671	-1.979497
H	-0.341406	-0.96693	0.362314
N	-0.486635	1.018818	0.864329
H	-0.287448	1.919621	0.442881
H	-1.509699	0.838263	0.795949
N	0.394889	1.132014	-2.21207
O	0.26234	2.281912	-1.800827
O	1.111011	0.792797	-3.149597
C	-1.797643	0.29236	-1.89202
N	-2.570147	0.553552	-2.749299
F	-2.638005	0.0	0.0
