14

C	0.0	0.0	0.0
C	-0.361497	-0.107266	-1.504218
Cl	1.840689	0.0	0.0
H	0.081833	-1.02618	-1.89349
H	-0.31961	-0.933708	0.456359
N	-0.477001	1.092131	0.762706
H	-1.502233	0.900339	0.721542
H	-0.287156	1.949516	0.257368
N	0.327502	0.977547	-2.294343
O	1.080914	0.629495	-3.199888
O	0.08441	2.14144	-1.983289
C	-1.778293	-0.06724	-1.925936
N	-2.557773	-0.089862	-2.815185
F	-2.623028	0.0	0.0
