14

C	0.0	0.0	0.0
C	-0.553054	0.008886	-1.43302
Cl	1.781133	0.0	0.0
H	-1.667813	-0.069128	-1.169087
H	-0.326845	-0.943043	0.431748
N	-0.510796	1.072621	0.795823
H	-1.535166	0.899948	0.718999
H	-0.281444	1.956939	0.350339
N	-0.110383	-1.189682	-2.194491
O	0.415494	-1.042062	-3.29727
O	-0.309891	-2.273861	-1.650246
C	-0.221111	1.224825	-2.149833
N	0.011953	2.248737	-2.677462
F	-2.750291	0.0	0.0
