14

C	0.0	0.0	0.0
C	-0.262363	-0.231091	-1.519263
Cl	1.823301	0.0	0.0
H	0.369077	0.490595	-2.040863
H	-0.301148	-0.886548	0.561212
N	-0.522233	1.245811	0.420542
H	-0.292647	1.353068	1.404182
H	-1.56581	0.99336	0.345972
N	-1.638734	0.035835	-2.113204
O	-2.297217	-0.923894	-2.484827
O	-1.880709	1.213946	-2.330242
C	0.141253	-1.585139	-1.899726
N	0.510765	-2.66022	-2.191768
F	-2.633062	0.0	0.0
