14

C	0.0	0.0	0.0
C	-0.49371	-0.343625	-1.454804
Cl	1.790328	0.0	0.0
H	0.364523	-0.359591	-2.13675
H	-0.304629	-0.841531	0.615155
N	-0.461717	1.182106	0.641138
H	-0.271165	1.97668	0.044045
H	-1.491373	0.987242	0.62183
N	-1.395975	0.670534	-2.102699
O	-1.036263	1.841412	-2.006165
O	-2.303063	0.267845	-2.813798
C	-1.126536	-1.654593	-1.478405
N	-1.478746	-2.772991	-1.521638
F	-2.568112	0.0	0.0
