14

C	-0.425862	-0.10545	-1.434972
C	0.0	0.0	0.0
F	-1.783578	-0.183155	-1.595399
H	1.093172	0.0	0.0
H	0.050829	-0.955338	-1.914765
N	0.04053	1.122087	-2.177594
O	-0.692672	2.106014	-2.142737
O	1.116592	1.02707	-2.758082
N	-0.355221	-1.261241	0.697174
O	-0.607614	-1.205839	1.898182
O	-0.296099	-2.299767	0.036854
C	-0.553078	1.136737	0.698436
N	-0.970899	2.091364	1.242511
F	2.418697	0.0	0.0
