14

C	-0.419692	-0.063044	-1.439237
C	0.0	0.0	0.0
F	-1.774355	-0.162081	-1.607045
H	1.093132	0.0	0.0
H	0.075525	-0.885516	-1.94575
N	0.021763	1.197871	-2.139441
O	-0.724836	2.16861	-2.060811
O	1.090011	1.140256	-2.739002
N	-0.348855	-1.284913	0.65647
O	-0.591106	-1.270506	1.860628
O	-0.292849	-2.30076	-0.037761
C	-0.559067	1.110046	0.735022
N	-0.97829	2.036214	1.325001
F	2.418175	0.0	0.0
