14

C	-0.420421	-0.056494	-1.439039
C	0.0	0.0	0.0
F	-1.77177	-0.179632	-1.607093
H	1.093018	0.0	0.0
H	0.090142	-0.863221	-1.954683
N	-0.002173	1.219899	-2.12535
O	1.08806	1.200479	-2.686737
O	-0.78604	2.163285	-2.07209
N	-0.345397	-1.287764	0.650733
O	-0.30158	-2.298721	-0.051113
O	-0.571184	-1.280272	1.857745
C	-0.561004	1.10609	0.739297
N	-0.994401	2.027858	1.326221
F	2.418708	0.0	0.0
