14

C	-0.397282	-0.07605	-1.445551
C	0.0	0.0	0.0
F	-1.750796	-0.144739	-1.638285
H	1.091688	0.0	0.0
H	0.087303	-0.920019	-1.925921
N	0.085968	1.158003	-2.166152
O	1.129054	1.048813	-2.80164
O	-0.611148	2.162548	-2.06892
N	-0.360746	-1.279308	0.66102
O	-0.671864	-1.250965	1.849271
O	-0.250564	-2.304623	-0.010822
C	-0.559433	1.118953	0.720417
N	-0.959363	2.070511	1.284279
F	2.418562	0.0	0.0
