14

C	-0.564375	-0.033301	-1.399592
C	0.0	0.0	0.0
F	-0.259074	1.138204	-2.032015
H	1.091253	0.0	0.0
H	-1.642789	-0.191749	-1.454585
N	0.026378	-1.135571	-2.257123
O	-0.493591	-1.225101	-3.36866
O	0.942307	-1.818061	-1.826836
N	-0.487217	-1.162141	0.772626
O	-0.251725	-1.185081	1.976476
O	-1.080901	-2.050856	0.151298
C	-0.434514	1.211511	0.669575
N	-0.773749	2.210138	1.189688
F	2.421912	0.0	0.0
