13

C	-0.552713	-0.06551	-1.39802
C	0.0	0.0	0.0
F	-1.984628	-0.206724	-1.30522
H	1.091424	0.0	0.0
H	-0.225573	-1.011729	-1.83638
H	-0.330295	-0.876357	0.555255
N	-0.195644	0.996191	-2.248925
H	-0.351083	1.880802	-1.788382
H	-0.704954	0.936903	-3.118049
N	-0.452464	1.146562	0.777055
O	-0.485447	2.265337	0.238384
O	-0.68308	0.971154	1.97954
H	2.682522	0.0	0.0
