13

C	-0.454889	-0.104251	-1.441247
C	0.0	0.0	0.0
F	-0.007237	0.978431	-2.168619
H	1.092441	0.0	0.0
H	-1.547112	-0.129739	-1.545366
H	-0.302199	-0.893895	0.548812
N	0.11905	-1.283391	-2.052791
H	-0.297304	-2.107523	-1.637174
H	1.109168	-1.281686	-1.804918
N	-0.525647	1.130561	0.76667
O	-0.517095	1.019734	1.997721
O	-0.903665	2.144336	0.169408
H	2.735806	0.0	0.0
