13

C	-0.556661	-0.064646	-1.416771
C	0.0	0.0	0.0
F	-0.321155	-1.336502	-1.915774
H	1.087596	0.0	0.0
H	0.017331	0.640092	-2.027515
H	-0.365612	0.916433	0.468708
N	-1.96412	0.21035	-1.56762
H	-2.108896	1.213779	-1.570046
H	-2.463675	-0.169301	-0.769884
N	-0.570526	-1.110646	0.782453
O	0.045593	-2.171385	0.846173
O	-1.686058	-0.918643	1.306029
H	2.852548	0.0	0.0
