13

C	-0.384753	-0.071747	-1.46623
C	0.0	0.0	0.0
F	-0.262399	1.233083	-2.010735
H	1.088823	0.0	0.0
H	-1.435944	-0.329839	-1.636714
H	-0.392684	-0.870901	0.52336
N	0.487843	-1.007499	-2.059606
H	1.447984	-0.809135	-1.762396
H	0.41947	-0.987512	-3.06883
N	-0.609493	1.187185	0.62256
O	-1.799491	1.087554	0.948734
O	0.065202	2.203466	0.757795
H	2.912613	0.0	0.0
