16

C	0.0	0.0	0.0
C	-0.39095	-0.073144	-1.507885
F	1.364579	0.0	0.0
H	0.507679	-0.501209	-1.968231
C	-0.504715	1.15029	0.806074
H	-1.595863	1.122889	0.814996
H	-0.146335	2.075879	0.351731
H	-0.110821	1.063745	1.818424
N	-0.325353	-1.347357	0.643138
O	-0.099233	-2.329797	-0.06219
O	-0.644613	-1.36147	1.823753
C	-0.539678	1.275308	-2.061705
N	-0.580489	2.347364	-2.537533
C	-1.478024	-0.944724	-1.975065
N	-2.110483	-1.6595	-2.661724
Cl	-3.44245	0.0	0.0
