16

C	0.0	0.0	0.0
C	-0.332631	0.167138	-1.512623
F	1.38386	0.0	0.0
H	-0.237746	1.247504	-1.688019
C	-0.519796	1.054442	0.918441
H	-1.612038	1.037614	0.87776
H	-0.174323	0.843927	1.928964
H	-0.130145	2.020551	0.58965
N	-0.35119	-1.402924	0.464762
O	-0.527035	-2.247763	-0.406118
O	-0.316887	-1.598683	1.6741
C	-1.602336	-0.250717	-2.132765
N	-2.315624	-0.523664	-3.030983
C	0.7228	-0.476236	-2.320107
N	1.551538	-0.944932	-3.006451
Cl	-3.495761	0.0	0.0
