16

C	0.0	0.0	0.0
C	-0.280777	0.035478	-1.530937
F	1.359325	0.0	0.0
H	0.190701	-0.87975	-1.906257
C	-0.537666	1.130061	0.815816
H	-0.167048	2.068147	0.397663
H	-1.630099	1.094039	0.776152
H	-0.188974	1.021963	1.842149
N	-0.407017	-1.346888	0.569412
O	-0.290128	-1.460179	1.785189
O	-0.72893	-2.231976	-0.214455
C	0.498352	1.160645	-2.077814
N	1.133037	2.035206	-2.536513
C	-1.605535	0.086234	-2.16718
N	-2.359391	0.140231	-3.069502
Cl	-3.57017	0.0	0.0
