16

C	0.0	0.0	0.0
C	-0.287823	0.233009	-1.509045
F	1.38169	0.0	0.0
H	0.026393	1.275415	-1.653804
C	-0.523495	1.027667	0.948723
H	-0.188428	0.771377	1.952196
H	-0.117925	2.000602	0.666427
H	-1.615502	1.027259	0.898644
N	-0.384146	-1.409956	0.4141
O	-0.2346	-1.674653	1.600591
O	-0.728766	-2.183402	-0.469892
C	-1.607503	0.109697	-2.147296
N	-2.35422	0.09475	-3.059139
C	0.63805	-0.584929	-2.316336
N	1.368175	-1.198506	-2.99953
Cl	-3.519317	0.0	0.0
