16

C	0.0	0.0	0.0
C	-0.291406	-0.116441	-1.524033
F	1.362882	0.0	0.0
H	0.270747	-1.00891	-1.82418
C	-0.509455	1.204753	0.72354
H	-0.170583	2.094926	0.190644
H	-1.60011	1.16199	0.750518
H	-0.093059	1.20289	1.73058
N	-0.396255	-1.289459	0.690645
O	-0.267462	-1.297013	1.909923
O	-0.717467	-2.239335	-0.015071
C	0.365548	1.029678	-2.172704
N	0.900434	1.927746	-2.707242
C	-1.615472	-0.279147	-2.147197
N	-2.35121	-0.452135	-3.050999
Cl	-3.494515	0.0	0.0
