16

C	0.0	0.0	0.0
C	-0.582283	0.08155	-1.414526
F	1.360199	0.0	0.0
H	-1.672012	-0.122099	-1.284569
C	-0.496624	1.080885	0.916464
H	-0.127652	2.042005	0.554629
H	-0.098201	0.892384	1.912238
H	-1.587967	1.071057	0.931232
N	-0.352122	-1.377016	0.582146
O	-0.789399	-2.235281	-0.173253
O	-0.085897	-1.527936	1.768381
C	0.045272	-0.856802	-2.346768
N	0.565426	-1.561509	-3.12861
C	-0.42167	1.440847	-1.935931
N	-0.289183	2.531058	-2.349863
Cl	-3.571451	0.0	0.0
