16

C	0.0	0.0	0.0
C	-0.299817	0.14985	-1.532016
Br	2.030442	0.0	0.0
H	0.367729	-0.537387	-2.061784
N	-0.570069	0.954663	0.869405
H	-0.58472	1.875831	0.444278
H	-1.51896	0.680851	1.1268
C	-0.339531	-1.358304	0.426623
N	-0.576639	-2.457911	0.766677
C	0.063788	1.509973	-1.933423
N	0.31765	2.611361	-2.254782
C	-1.750401	-0.154342	-1.891715
H	-1.984387	-1.196356	-1.668221
H	-1.918045	0.029637	-2.955896
H	-2.464487	0.435991	-1.319062
Cl	-4.418968	0.0	0.0
