16

C	0.0	0.0	0.0
C	-0.25334	0.515944	-1.483457
Br	1.974474	0.0	0.0
H	0.488116	0.013065	-2.110849
N	-0.605431	0.707591	1.065641
H	-1.610667	0.493796	1.057981
H	-0.482536	1.707107	0.940234
C	-0.366018	-1.420013	0.054241
N	-0.588565	-2.573776	0.036304
C	0.065648	1.945262	-1.504879
N	0.29048	3.098876	-1.505528
C	-1.629789	0.268746	-2.092747
H	-2.429569	0.773885	-1.560715
H	-1.867407	-0.794833	-2.068479
H	-1.597059	0.604779	-3.133434
Cl	-4.018072	0.0	0.0
