16

C	0.0	0.0	0.0
C	-0.525723	-0.205728	-1.436457
Br	1.957388	0.0	0.0
H	-1.61411	-0.321802	-1.290701
N	-0.51579	1.232491	0.51587
H	-1.541495	1.140514	0.455543
H	-0.272198	1.312669	1.497567
C	-0.323485	-1.186376	0.822305
N	-0.532206	-2.110311	1.519633
C	-0.004003	-1.437795	-2.021979
N	0.394649	-2.411751	-2.544672
C	-0.264409	0.991157	-2.348772
H	0.806284	1.158329	-2.483965
H	-0.713573	1.881913	-1.912925
H	-0.719604	0.804095	-3.323966
Cl	-3.502624	0.0	0.0
