16

C	0.0	0.0	0.0
C	-0.38042	-0.100196	-1.53565
Br	1.969757	0.0	0.0
H	0.55445	-0.184096	-2.093726
N	-0.546072	1.109262	0.696729
H	-1.242398	1.58242	0.132466
H	-1.03456	0.79692	1.526526
C	-0.308478	-1.263879	0.681836
N	-0.499234	-2.258743	1.278165
C	-0.964918	1.158297	-2.003822
N	-1.338752	2.18688	-2.429539
C	-1.242565	-1.316593	-1.901702
H	-2.183188	-1.298619	-1.349907
H	-0.687975	-2.230466	-1.677522
H	-1.450926	-1.290858	-2.973028
Cl	-3.638205	0.0	0.0
