16

C	0.0	0.0	0.0
C	-0.267732	0.241026	-1.543856
Br	1.975083	0.0	0.0
H	0.433169	-0.403821	-2.082619
N	-0.593785	0.89896	0.92137
H	-1.596621	0.688484	0.973628
H	-0.472675	1.856261	0.607617
C	-0.37391	-1.381896	0.318228
N	-0.614087	-2.515187	0.515448
C	0.10334	1.627125	-1.840385
N	0.354972	2.751186	-2.072112
C	-1.678109	-0.045239	-2.044599
H	-2.431017	0.582566	-1.576955
H	-1.692308	0.105089	-3.128044
H	-1.961398	-1.074304	-1.823367
Cl	-4.130766	0.0	0.0
