16

C	0.0	0.0	0.0
C	-0.48661	-0.224423	-1.458893
Br	1.965241	0.0	0.0
H	-1.571965	-0.365278	-1.325867
N	-0.48177	1.185808	0.639483
H	-1.506235	1.101069	0.650162
H	-0.21502	1.996863	0.093742
C	-0.364791	-1.173665	0.811044
N	-0.574324	-2.125669	1.467417
C	0.08398	-1.435405	-2.04178
N	0.538754	-2.390558	-2.553796
C	-0.24956	0.981323	-2.367741
H	-0.53944	0.730259	-3.389924
H	-0.875861	1.813648	-2.043464
H	0.800753	1.282751	-2.369126
Cl	-3.449043	0.0	0.0
