16

C	0.0	0.0	0.0
C	-0.533844	0.150103	-1.439164
Br	1.952769	0.0	0.0
H	-1.622206	0.001185	-1.32149
N	-0.515104	1.06963	0.80315
H	-0.263373	0.911057	1.773361
H	-1.541283	0.991515	0.72858
C	-0.323883	-1.350833	0.511137
N	-0.526171	-2.411435	0.978145
C	-0.01578	-0.898531	-2.313125
N	0.382834	-1.703996	-3.070578
C	-0.278816	1.534851	-2.032944
H	-0.741788	2.289506	-1.399556
H	0.790833	1.738909	-2.112891
H	-0.724648	1.584106	-3.028795
Cl	-3.506845	0.0	0.0
