16

C	0.0	0.0	0.0
C	-0.507198	0.038737	-1.469386
Br	1.963208	0.0	0.0
H	-1.588073	-0.149573	-1.351762
N	-0.495694	1.038834	0.851204
H	-1.519092	0.920752	0.862104
H	-0.276127	1.939663	0.44144
C	-0.348587	-1.307249	0.581767
N	-0.538677	-2.375272	1.032985
C	0.071393	-1.031473	-2.274458
N	0.509958	-1.881427	-2.957792
C	-0.319278	1.397656	-2.139041
H	-0.954567	2.135416	-1.649563
H	0.723197	1.720679	-2.107307
H	-0.632745	1.336404	-3.182496
Cl	-3.467338	0.0	0.0
