16

C	0.0	0.0	0.0
C	-0.28882	-0.215447	-1.535307
Br	1.952192	0.0	0.0
H	0.46655	-0.932288	-1.868363
N	-0.615264	1.182818	0.491642
H	-0.467785	1.269779	1.491814
H	-1.629311	1.09842	0.335173
C	-0.343355	-1.23962	0.724712
N	-0.598161	-2.216603	1.328286
C	-0.004859	1.0399	-2.237959
N	0.202122	2.013541	-2.86177
C	-1.643705	-0.784453	-1.951262
H	-1.605296	-0.948191	-3.033252
H	-2.480746	-0.140896	-1.69854
H	-1.816851	-1.736324	-1.448755
Cl	-4.056451	0.0	0.0
