16

C	0.0	0.0	0.0
C	-0.38618	-0.175289	-1.540749
Br	1.952702	0.0	0.0
H	0.550052	-0.141302	-2.103455
N	-0.468893	1.159765	0.691797
H	-1.494917	1.064588	0.711554
H	-0.241364	1.985337	0.14606
C	-0.367897	-1.207768	0.751918
N	-0.558052	-2.22225	1.313337
C	-1.113941	1.001575	-2.017435
N	-1.518584	1.9853	-2.5157
C	-1.066366	-1.49813	-1.901507
H	-1.256738	-1.51459	-2.978246
H	-0.400803	-2.329253	-1.655122
H	-2.006637	-1.590539	-1.363832
Cl	-3.350305	0.0	0.0
