13

C	0.0	0.0	0.0
C	-0.553451	0.017022	-1.398842
Cl	1.854956	0.0	0.0
H	-0.323799	-0.944639	-1.887652
H	-0.256857	0.932983	0.49689
H	-1.643541	0.071049	-1.228733
N	-0.485724	-1.096353	0.726565
H	-0.223978	-1.984887	0.327759
H	-0.280329	-1.058517	1.711923
N	-0.089227	1.187755	-2.136872
H	-0.738033	1.377438	-2.889115
H	0.821848	1.00763	-2.539689
H	-3.734414	0.0	0.0
