13

C	0.0	0.0	0.0
C	-0.498165	0.083576	-1.431515
Cl	1.784718	0.0	0.0
H	-0.017468	0.934917	-1.925853
H	-0.268435	0.938947	0.497941
H	-1.575507	0.27159	-1.314319
N	-0.568156	-1.164738	0.622107
H	-0.357614	-1.146587	1.615164
H	-1.594089	-0.984653	0.525142
N	-0.206959	-1.155168	-2.170991
H	-0.987316	-1.319447	-2.797491
H	-0.250397	-1.899315	-1.48056
H	-3.151089	0.0	0.0
