13

C	0.0	0.0	0.0
C	-0.592009	-0.002134	-1.384987
Cl	1.872748	0.0	0.0
H	-0.236853	0.872811	-1.946064
H	-0.223433	0.936219	0.509509
H	-1.675814	0.092647	-1.182753
N	-0.46977	-1.096335	0.720216
H	-0.466239	-1.933199	0.157286
H	-0.056547	-1.216248	1.630395
N	-0.33284	-1.281041	-2.045455
H	-1.077296	-1.469194	-2.704979
H	0.548543	-1.248414	-2.54357
H	-3.738504	0.0	0.0
