13

C	0.0	0.0	0.0
C	-0.597378	0.042966	-1.383244
Cl	1.873304	0.0	0.0
H	-0.224987	0.920371	-1.927628
H	-0.222673	0.92307	0.534869
H	-1.677953	0.159812	-1.174006
N	-0.479371	-1.112118	0.686175
H	-0.098082	-1.24802	1.608089
H	-0.463328	-1.937466	0.10617
N	-0.375487	-1.22725	-2.074381
H	-1.157294	-1.412887	-2.691115
H	0.475803	-1.190905	-2.624178
H	-3.743808	0.0	0.0
