14
Coordinates from ORCA-job run
  C   0.68952198363555     -0.25211466798952     -0.69333028876055
  C   -0.44292756759007     -0.07109215700603      0.31864252621646
  Cl  1.23337472005681      1.25447392376157     -1.39265921364983
  H   -0.65840901277485     -1.07371298368838      0.70406715076128
  H   0.37097183853667     -0.92308233256956     -1.49110239468471
  N   1.82400333949900     -0.98925021629957      0.00493121574260
  O   2.85618852009775     -0.39921762674917      0.27820872066410
  O   1.54585211487272     -2.15712541565583      0.26336106806077
  C   -1.70486319156716      0.50487911627434     -0.32716642407559
  H   -1.53047224684374      1.51590069302605     -0.69404741313575
  H   -2.51227904507381      0.53569716784975      0.40567051422931
  H   -2.01868101309542     -0.12692937869651     -1.16142317676946
  C   0.00717884248056      0.75455605379709      1.44100570557105
  N   0.34054071776599      1.42701782394579      2.34384200983032
