14
Coordinates from ORCA-job run
  C   0.84011897795978     -0.68491619009831      0.10991743049933
  C   -0.63510514091216     -0.29087984573097      0.09024578418401
  Cl  1.06142794814081     -2.42416182440697     -0.01115796566772
  H   -1.07770880848604     -0.75120161947490     -0.79935368885800
  H   1.35814471375129     -0.32186374906076      0.99606455500054
  N   1.50276622932210     -0.00588030899735     -1.06143968145547
  O   2.36596703596572      0.82316547604161     -0.78803105679671
  O   1.08671704130888     -0.29522222536082     -2.17629419657226
  C   -0.81334134694999      1.23124934100286      0.04021111656874
  H   -0.29372105806773      1.71341100116203      0.87075209165878
  H   -0.43008997296482      1.63148793791574     -0.89932641792640
  H   -1.87308842734975      1.47942419920562      0.10731543361330
  C   -1.28338195901405     -0.84748935751266      1.27772509382047
  N   -1.80770523270405     -1.25612283468511      2.24537150193139
