14
Coordinates from ORCA-job run
  C   0.54582430436064     -0.92703592810772     -0.47439246605049
  C   -0.70496568050628     -0.32398393795254      0.18143973597305
  Cl  0.29997843525504     -1.18042556629748     -2.19385446437654
  H   -1.53077737739611     -0.98624420822479     -0.10241140387338
  H   0.81626597637684     -1.87615093146534     -0.01576138798969
  N   1.72589787767316     -0.01280092426578     -0.22536225097646
  O   1.93286117087703      0.90357337589595     -1.00877749473952
  O   2.34001033807957     -0.25428665290848      0.81050644917671
  C   -1.02248162621717      1.10338500262871     -0.27374903534509
  H   -0.26852028396896      1.80694203652147      0.07894327315604
  H   -1.98902861538358      1.40252510473228      0.13381877132946
  H   -1.06872663027501      1.15602227746204     -1.36130554981107
  C   -0.57563846404310     -0.38909701470069      1.63979048790726
  N   -0.49969942483208     -0.42242263331763      2.81111533561970
