14
Coordinates from ORCA-job run
  C   0.57406560278047     -0.90040248573961     -0.49217171067665
  C   -0.69126621184085     -0.35325732744251      0.18431366091312
  Cl  0.31817168530786     -1.14047793012412     -2.21243098898926
  H   -1.49539751414747     -1.04072357465773     -0.10162382564163
  H   0.88424381908088     -1.84510164953915     -0.04988375258657
  N   1.72182601424655      0.05366564402782     -0.24366223183200
  O   1.88951299528840      0.98459035718583     -1.01950166557367
  O   2.35408806333911     -0.17657572820575      0.78406868741194
  C   -1.06399253182932      1.06826105714287     -0.24753004792322
  H   -1.12076766919053      1.13536647350723     -1.33379022718927
  H   -2.03737153871002      1.32656964711570      0.17165136308302
  H   -0.33303069588347      1.79314293075790      0.11044361963775
  C   -0.54590501237353     -0.43210375786479      1.64045828407144
  N   -0.45717700606809     -0.47395365616369      2.81065883529500
