13

C	0.0	0.0	0.0
C	-0.285809	0.01278	-1.523117
Cl	1.788626	0.0	0.0
H	0.130969	0.930651	-1.934186
H	-1.363097	-0.061645	-1.672517
C	-0.860799	1.106893	0.532675
N	-0.833949	2.209462	0.993716
C	-0.409351	-1.235442	0.688429
N	-0.518367	-2.197931	1.357899
N	0.333859	-1.103159	-2.276679
O	1.01674	-0.809945	-3.262112
O	0.086978	-2.24835	-1.905101
H	-2.105265	0.0	0.0
