13

C	0.0	0.0	0.0
C	-0.428226	-0.010327	-1.473077
Cl	1.786516	0.0	0.0
H	-0.118652	0.903785	-1.973419
H	-1.537052	-0.084504	-1.376187
C	-0.467424	1.265685	0.588095
N	-0.554528	2.327104	1.095477
C	-0.540341	-1.105363	0.809889
N	-0.552744	-1.999447	1.583469
N	0.079459	-1.142163	-2.251101
O	0.238253	-2.222082	-1.679178
O	0.215661	-0.957306	-3.466251
H	-2.373072	0.0	0.0
