13

C	0.0	0.0	0.0
C	-0.340209	-0.064092	-1.51873
Cl	1.78669	0.0	0.0
H	-1.327292	-0.476653	-1.673245
H	0.429075	-0.653358	-2.025032
C	-0.509234	1.185852	0.690951
N	-0.569699	2.182731	1.324073
C	-0.633757	-1.189154	0.602975
N	-0.610265	-2.267421	1.100796
N	-0.351674	1.260004	-2.207576
O	0.349878	2.168686	-1.776885
O	-1.058827	1.326859	-3.214506
H	-2.128159	0.0	0.0
