13

C	0.0	0.0	0.0
C	-0.166207	0.016572	-1.546652
Cl	1.798071	0.0	0.0
H	0.345578	0.905574	-1.912949
H	0.371148	-0.851419	-1.924524
C	-0.487777	1.192384	0.674401
N	-0.596211	2.274181	1.143131
C	-0.503542	-1.222257	0.600692
N	-0.592582	-2.341234	0.976095
N	-1.429959	-0.004091	-2.434093
O	-2.568535	0.146762	-2.038989
O	-1.107741	-0.135685	-3.618056
H	-1.86432	0.0	0.0
