13

C	0.0	0.0	0.0
C	-0.186211	0.014158	-1.544706
Cl	1.798075	0.0	0.0
H	0.327138	-0.870013	-1.930187
H	0.358228	0.887101	-1.914605
C	-0.532107	1.202334	0.628047
N	-0.703592	2.318291	0.990312
C	-0.473602	-1.236495	0.602646
N	-0.603222	-2.35735	0.953362
N	-1.449441	0.045662	-2.432612
O	-1.103197	0.01481	-3.616174
O	-2.602913	0.12277	-2.049231
H	-1.86409	0.0	0.0
