13

C	0.0	0.0	0.0
C	-0.15933	0.019653	-1.548263
Cl	1.797429	0.0	0.0
H	0.393987	-0.837554	-1.930184
H	0.342325	0.920484	-1.898395
C	-0.514951	1.211826	0.61912
N	-0.652285	2.329566	0.985518
C	-0.51489	-1.218976	0.599836
N	-0.653744	-2.341335	0.953315
N	-1.40843	-0.005433	-2.457016
O	-2.5657	-0.093401	-2.089206
O	-1.056416	0.058854	-3.637168
H	-1.862942	0.0	0.0
