19

C	-0.415126	0.061832	-1.461244
C	-0.043505	0.177059	0.02327
Cl	0.014623	1.672903	-2.242925
H	1.015794	0.47629	0.050214
C	0.440076	-1.013954	-2.113786
H	1.438478	-1.039015	-1.66061
H	-0.015314	-1.980074	-1.88313
H	0.467202	-0.879035	-3.198826
C	-1.898197	-0.159765	-1.677458
H	-2.167176	-1.051744	-1.107557
H	-2.111288	-0.317089	-2.738808
H	-2.488381	0.678381	-1.3069
N	-0.174034	-1.151843	0.602716
H	-0.41876	-1.04207	1.58136
H	0.817505	-1.501253	0.537096
N	-0.929419	1.133609	0.703449
H	-0.831531	2.026906	0.230333
H	-0.545783	1.271462	1.634341
F	2.370774	-1.411655	0.085928
