19

C	-0.135121	0.056572	-1.500697
C	0.060596	0.124545	0.020744
Cl	-1.931123	0.078067	-1.885559
H	1.137913	0.33645	0.132303
C	0.458866	1.290655	-2.157321
H	0.052881	2.193792	-1.701252
H	0.250932	1.293353	-3.230437
H	1.543289	1.26972	-2.011152
C	0.453631	-1.224081	-2.056382
H	0.517859	-1.175796	-3.148313
H	1.430828	-1.383329	-1.574679
H	-0.172508	-2.06769	-1.765821
N	-0.224522	-1.169584	0.632356
H	-0.311012	-0.994274	1.630437
H	0.704858	-1.643888	0.52052
N	-0.689713	1.244178	0.581261
H	-1.663525	0.958512	0.627082
H	-0.371479	1.377375	1.5355
F	2.326089	-1.635504	0.122752
