19

C	-0.452022	-0.011606	-1.598607
C	0.222204	-0.045361	-0.217847
Cl	0.007181	-1.524086	-2.499989
H	1.290384	-0.22157	-0.377852
C	-1.968482	-0.004905	-1.50581
H	-2.415039	0.028059	-2.503215
H	-2.297867	0.879698	-0.951601
H	-2.321884	-0.903003	-0.997941
C	0.05969	1.155777	-2.425765
H	-0.354131	1.12224	-3.438138
H	-0.210098	2.088403	-1.931344
H	1.1494	1.116388	-2.488912
N	-0.237274	-1.149114	0.616893
H	0.376081	-1.008495	1.446363
H	-1.170056	-0.902823	0.943794
N	0.13893	1.280238	0.410341
H	-0.81588	1.378162	0.754169
H	0.706828	1.092366	1.270742
F	1.42363	0.032112	2.349889
