19

C	-0.10178	-0.012961	-1.47144
C	0.018125	-0.048165	0.057473
Cl	-1.900134	0.038172	-1.92693
H	1.105048	-0.152475	0.17985
C	0.565396	1.222234	-2.040239
H	0.552757	1.189818	-3.133634
H	1.596579	1.161474	-1.648987
H	0.069042	2.139838	-1.716785
C	0.529029	-1.257353	-2.06014
H	0.073247	-2.158061	-1.651319
H	0.451164	-1.256879	-3.151553
H	1.578375	-1.18095	-1.74867
N	-0.67341	-1.21052	0.602071
H	-1.673644	-1.050407	0.517476
H	-0.467788	-1.210813	1.595219
N	-0.372027	1.191503	0.735444
H	0.386862	1.8537	0.61841
H	-1.196272	1.583511	0.288118
F	2.771964	0.18648	-0.536867
