13
Coordinates from ORCA-job run
  C   0.96934690123998     -0.20866472236265      0.16361476439668
  C   -0.35395232211238     -0.73267097394006     -0.42195628314402
  Br  2.37162018400524     -1.56680627820457     -0.07358374041993
  H   -0.16985278811315     -0.97062036280527     -1.47306826808129
  H   -0.58562848452373     -1.66818559842831      0.09440812996690
  C   0.83601330931807      0.05354259148093      1.59664644762072
  N   0.67678295832757      0.25416296483250      2.74391365558006
  C   1.40052777864711      1.00765293651721     -0.52511050092218
  N   1.69994009957882      1.98647450982149     -1.10311005405606
  C   -1.48883710557798      0.27497941484996     -0.27451018249124
  H   -2.40224253387617     -0.14188947569682     -0.70326128129831
  H   -1.68621396902752      0.50458728975430      0.77460915020698
  H   -1.26750402788585      1.20643770418131     -0.79959183735831
