13
Coordinates from ORCA-job run
  C   0.90036253860810     -0.11142961808131      0.11938956851522
  C   -0.37306212586913      0.28885918326218     -0.64953826932182
  Br  1.27701755286053     -2.02960602365412     -0.12205731361049
  H   -0.44228193971378      1.38023306773382     -0.57774266146896
  H   -0.20457486990268      0.03948334060598     -1.70081735860450
  C   0.75116997208901      0.13736400660589      1.55308455234532
  N   0.62570664636508      0.36762779129452      2.69904644191857
  C   2.05650898253170      0.62450390550543     -0.39129138965861
  N   2.98154194733711      1.20737981134361     -0.82322233649053
  C   -1.64522396242050     -0.35810506629655     -0.12122454226329
  H   -1.60395172121472     -1.44492985734347     -0.19975602741920
  H   -1.82414007005790     -0.09043315915091      0.92225931178411
  H   -2.49807295061283     -0.00994738182508     -0.70712997572582
