13
Coordinates from ORCA-job run
  C   0.85398481669221     -0.17272639032804      0.30039848096451
  C   -0.68488010096511     -0.15596226694260      0.37905756850675
  Br  1.47924120557139     -1.78968552609105     -0.63520060166506
  H   -0.98795170703428     -1.06830518068637      0.90007310482909
  H   -0.94757180565668      0.69227006184362      1.02121485222673
  C   1.42939087628436     -0.19853268536760      1.64455972627302
  N   1.84307783400351     -0.20999039059514      2.74475253594775
  C   1.35586841954074      0.98933181876051     -0.43230117930035
  N   1.71312211194201      1.94115332912182     -1.02245356306511
  C   -1.37366073856669     -0.03172435455682     -0.97217731702539
  H   -2.45529769448672     -0.01211777089453     -0.82532588149614
  H   -1.13724442788655     -0.87560150667520     -1.62102829255196
  H   -1.08807878943818      0.89089086241141     -1.48156943364384
