16

C	-0.377315	-0.076731	-1.509586
C	0.0	0.0	0.0
Br	0.0825	-1.851196	-2.214483
H	1.109301	0.0	0.0
C	-1.818094	0.095516	-1.686305
N	-2.971264	0.3033	-1.798044
C	0.409428	0.968784	-2.295532
H	0.213173	0.873507	-3.36436
H	1.472355	0.822451	-2.088229
H	0.110923	1.968725	-1.971786
C	-0.556675	-1.133581	0.743445
N	-1.049394	-2.007967	1.353408
N	-0.410431	1.238715	0.634418
H	0.273359	1.960529	0.455103
H	-1.338372	1.537857	0.360459
Cl	3.293628	0.0	0.0
