16

C	-0.44167	0.035983	-1.480696
C	0.0	0.0	0.0
Br	-0.069954	-1.702985	-2.316944
H	1.098994	0.0	0.0
C	-1.88491	0.253482	-1.569419
N	-3.041413	0.462316	-1.616393
C	0.340595	1.114206	-2.221727
H	0.111731	2.077984	-1.764189
H	0.068473	1.127943	-3.278405
H	1.406769	0.905774	-2.103819
C	-0.517999	-1.173153	0.711746
N	-0.953309	-2.057113	1.35331
N	-0.411391	1.257199	0.621301
H	0.302285	1.53584	1.282831
H	-1.296215	1.161109	1.102142
Cl	3.284563	0.0	0.0
