16

C	-0.374027	-0.02139	-1.487962
C	0.0	0.0	0.0
Br	-2.349147	-0.153843	-1.674778
H	1.097735	0.0	0.0
C	-5.3e-05	1.244723	-2.111556
N	0.339654	2.22608	-2.661648
C	0.276321	-1.192695	-2.207272
H	-0.079905	-2.133107	-1.784684
H	0.046335	-1.165391	-3.273138
H	1.355925	-1.113178	-2.050293
C	-0.442056	-1.246728	0.642866
N	-0.794178	-2.227247	1.187046
N	-0.463684	1.203925	0.65824
H	-1.399001	1.086456	1.026138
H	0.169826	1.42735	1.415047
Cl	3.276705	0.0	0.0
