16

C	-0.552027	-0.236538	-1.428395
C	0.0	0.0	0.0
Br	0.247167	1.096906	-2.623764
H	1.101701	0.0	0.0
C	-0.164223	-1.553094	-1.930841
N	0.067513	-2.625303	-2.353738
C	-2.068365	-0.082719	-1.481336
H	-2.323805	0.915671	-1.126328
H	-2.430048	-0.209984	-2.502976
H	-2.535511	-0.836882	-0.840685
C	-0.477348	-1.090887	0.857029
N	-0.930447	-1.919836	1.557859
N	-0.428546	1.306985	0.496534
H	0.389123	1.771355	0.875514
H	-1.120682	1.2184	1.229028
Cl	3.244472	0.0	0.0
