18

C	-0.315124	-0.038831	-1.515298
C	0.0	0.0	0.0
Cl	-2.104715	-0.283487	-1.797926
H	1.098223	0.0	0.0
C	-0.012571	1.268751	-2.104012
N	0.217631	2.31925	-2.577873
C	0.457679	-1.127996	-2.24508
H	0.305863	-1.05463	-3.323621
H	1.518171	-1.005837	-2.001342
H	0.122008	-2.109578	-1.910137
C	-0.477891	-1.240553	0.738238
H	-1.569396	-1.274912	0.799176
H	-0.117445	-2.162587	0.278773
H	-0.074968	-1.185664	1.749987
N	-0.476739	1.190054	0.682211
H	-1.431809	1.399516	0.41216
H	0.109131	1.978977	0.438055
Cl	3.429604	0.0	0.0
