18

C	-0.528463	0.030232	-1.445057
C	0.0	0.0	0.0
Cl	0.155841	1.478245	-2.284712
H	1.096793	0.0	0.0
C	-0.079603	-1.147588	-2.190591
N	0.210109	-2.122508	-2.779337
C	-2.0494	0.124685	-1.526502
H	-2.498993	-0.788268	-1.129492
H	-2.364799	0.247057	-2.563965
H	-2.372795	0.974918	-0.928512
C	-0.472519	-1.248242	0.733238
H	-0.23454	-2.156071	0.175549
H	0.062152	-1.309963	1.684921
H	-1.546641	-1.212528	0.93868
N	-0.513664	1.189588	0.702688
H	0.063813	1.974996	0.415084
H	-0.30059	1.054275	1.686364
Cl	3.459604	0.0	0.0
