18

C	-0.391269	0.020523	-1.503002
C	0.0	0.0	0.0
Cl	0.168522	-1.485616	-2.323075
H	1.096838	0.0	0.0
C	-1.850842	0.064707	-1.644449
N	-3.020667	0.149075	-1.7286
C	0.262301	1.196203	-2.223596
H	0.080667	1.137045	-3.298061
H	1.336359	1.157912	-2.022181
H	-0.149482	2.136587	-1.852826
C	-0.539091	-1.208051	0.746258
H	-0.176709	-1.148172	1.772912
H	-1.635615	-1.204782	0.765498
H	-0.194403	-2.144236	0.308236
N	-0.432957	1.210808	0.685858
H	0.136094	2.000337	0.417879
H	-1.409518	1.417875	0.513198
Cl	3.477126	0.0	0.0
