16

C	-0.542548	0.083185	-1.41825
C	0.031142	-0.021582	-0.053838
Cl	-2.326771	0.060148	-1.48823
H	1.126186	-0.063938	-0.061985
H	-0.306225	-0.968266	0.374261
N	-0.020376	1.350329	-2.097319
O	1.153148	1.283	-2.436318
O	-0.758153	2.321887	-2.180592
N	-0.103453	-1.053688	-2.345861
O	0.312404	-2.07511	-1.817945
O	-0.25144	-0.858727	-3.547164
C	-0.325875	1.150536	0.846441
H	0.287291	1.036922	1.743417
H	-1.387357	1.191884	1.104141
H	-0.033387	2.101812	0.396039
H	2.653873	0.102627	0.798649
