16

C	-0.554496	-0.065722	-1.412629
C	0.027297	0.020317	-0.052082
Cl	-2.340926	0.000453	-1.477608
H	1.128982	0.034213	-0.066918
H	-0.284117	0.97359	0.381114
N	-0.093217	1.064058	-2.337532
O	0.352792	2.071692	-1.807498
O	-0.255153	0.879765	-3.538706
N	-0.067323	-1.343333	-2.097309
O	1.102101	-1.300602	-2.454189
O	-0.824798	-2.30115	-2.163739
C	-0.351731	-1.146259	0.845982
H	-0.06434	-2.100564	0.398954
H	-1.416272	-1.176576	1.092843
H	0.25088	-1.041165	1.750887
H	2.660347	-0.18787	0.709881
