16

C	-0.548524	0.072055	-1.421565
C	0.034569	-0.018124	-0.059414
Cl	-2.330781	-0.006077	-1.481417
H	1.127507	-0.037617	-0.072329
H	-0.28243	-0.970358	0.372086
N	-0.068814	1.355589	-2.099833
O	-0.837971	2.302501	-2.183046
O	1.106377	1.326795	-2.438614
N	-0.080038	-1.049575	-2.353233
O	0.360767	-2.06189	-1.828147
O	-0.232295	-0.854396	-3.553957
C	-0.344575	1.147366	0.840411
H	0.26809	1.044196	1.738833
H	-1.407344	1.170882	1.095328
H	-0.066893	2.103645	0.391208
H	2.659275	0.175536	0.791516
