16

C	-0.509201	0.034006	-1.443744
C	0.046764	0.021076	-0.067869
Cl	-2.284539	0.20496	-1.535772
H	1.141832	-0.021473	-0.060108
H	-0.226216	0.96682	0.405997
N	0.03516	1.178811	-2.3029
O	0.521233	2.134442	-1.715104
O	-0.106299	1.059802	-3.514847
N	-0.078446	-1.234059	-2.181644
O	-0.889168	-2.138735	-2.3218
O	1.10146	-1.243005	-2.504681
C	-0.415297	-1.165657	0.762479
H	0.182205	-1.144321	1.676641
H	-0.181515	-2.111688	0.268955
H	-1.482945	-1.141895	0.996053
H	2.642384	-0.379431	0.786558
