16

C	-0.385057	0.050516	-1.481831
C	0.0	0.0	0.0
F	-0.055783	-1.206894	-1.995892
H	1.091882	0.0	0.0
C	-1.864884	0.267628	-1.736876
H	-2.167322	1.248549	-1.374735
H	-2.428012	-0.514005	-1.222465
H	-2.058815	0.199351	-2.809763
C	0.411095	1.036581	-2.241023
N	0.909941	1.834555	-2.943292
C	-0.475597	-1.209449	0.625779
N	-0.82217	-2.228463	1.101645
N	-0.389062	1.164007	0.731364
O	-0.424078	2.239048	0.09835
O	-0.480414	1.075659	1.967716
H	2.325917	0.0	0.0
