16

C	-0.391566	0.013066	-1.480448
C	0.0	0.0	0.0
F	-0.082877	-1.262375	-1.959661
H	1.094137	0.0	0.0
C	-1.867522	0.250524	-1.73545
H	-2.147242	1.249742	-1.40754
H	-2.442253	-0.498686	-1.187681
H	-2.069675	0.147628	-2.804359
C	0.420358	0.958309	-2.275747
N	0.951612	1.658627	-3.055243
C	-0.486593	-1.178886	0.67037
N	-0.854963	-2.169866	1.187449
N	-0.357335	1.197199	0.694101
O	-0.399124	2.244775	0.013076
O	-0.400408	1.164552	1.936709
H	2.321364	0.0	0.0
