16

C	-0.390406	0.08445	-1.479279
C	0.0	0.0	0.0
F	-0.047621	-1.154866	-2.025331
H	1.091847	0.0	0.0
C	-1.873773	0.290683	-1.72454
H	-2.423495	-0.510453	-1.226705
H	-2.18586	1.258234	-1.335957
H	-2.070942	0.247488	-2.798389
C	0.394759	1.097666	-2.216002
N	0.886929	1.912604	-2.90397
C	-0.473097	-1.221405	0.6028
N	-0.821812	-2.248279	1.059994
N	-0.380882	1.148974	0.762908
O	-0.466868	2.231952	0.145055
O	-0.410555	1.042986	2.001491
H	2.328968	0.0	0.0
