16

C	-0.396531	0.087957	-1.470162
C	0.0	0.0	0.0
F	0.261241	1.151723	-2.065234
H	1.092417	0.0	0.0
C	0.060276	-1.174823	-2.183759
H	1.121818	-1.306581	-1.959302
H	-0.078494	-1.03728	-3.257885
H	-0.501934	-2.04683	-1.852173
C	-1.847431	0.304741	-1.651461
N	-3.005559	0.389174	-1.82942
C	-0.444669	-1.227579	0.614768
N	-0.7195	-2.264806	1.098728
N	-0.414695	1.141583	0.808342
O	-0.277271	1.026332	2.032505
O	-0.746566	2.180464	0.223528
H	2.414992	0.0	0.0
