16

C	-0.397783	0.043207	-1.478757
C	0.0	0.0	0.0
F	-0.093485	-1.223539	-1.983585
H	1.091855	0.0	0.0
C	-1.876661	0.283271	-1.722129
H	-2.082521	0.204498	-2.792402
H	-2.15755	1.274267	-1.370102
H	-2.445871	-0.481544	-1.189299
C	0.409399	1.006817	-2.256809
N	0.91472	1.777516	-2.984651
C	-0.482538	-1.19487	0.646243
N	-0.84331	-2.201555	1.137516
N	-0.359914	1.179275	0.726329
O	-0.387969	1.113777	1.967612
O	-0.42153	2.243511	0.074149
H	2.327065	0.0	0.0
