15

C	-0.559362	0.014334	-1.404828
C	0.0	0.0	0.0
Cl	-2.289568	0.346023	-1.413485
H	1.090124	0.0	0.0
H	-0.321795	0.926515	0.483788
N	0.081587	1.077817	-2.281035
O	0.120825	0.854212	-3.484274
O	0.434675	2.097477	-1.706267
N	-0.269927	-1.321613	-2.079839
O	0.92406	-1.546629	-2.19515
O	-1.198652	-2.034123	-2.419403
N	-0.470442	-1.218688	0.644921
H	0.284197	-1.598794	1.200295
H	-1.266692	-1.041882	1.23962
Br	3.540638	0.0	0.0
