15

C	-0.522148	0.004467	-1.419279
C	0.0	0.0	0.0
Cl	-2.240142	-0.359795	-1.504028
H	1.102302	0.0	0.0
H	-0.326973	-0.948697	0.430118
N	-0.26319	1.333673	-2.120088
O	-0.937998	1.594056	-3.107167
O	0.644517	2.0085	-1.653086
N	0.228817	-1.048314	-2.235309
O	0.104234	-2.193947	-1.828017
O	0.893222	-0.665589	-3.187537
N	-0.574636	1.134172	0.71664
H	0.149092	1.836611	0.804018
H	-0.834514	0.844908	1.648851
Br	3.539787	0.0	0.0
