15

C	-0.483404	0.221244	-1.415356
C	0.0	0.0	0.0
Cl	-0.090186	1.823273	-1.985053
H	1.10466	0.0	0.0
H	-0.339236	0.873854	0.559758
N	0.059376	-0.810582	-2.402511
O	0.493272	-1.845645	-1.914367
O	-0.032186	-0.545629	-3.592796
N	-2.004174	0.028453	-1.445181
O	-2.642735	0.841561	-0.794869
O	-2.447308	-0.934061	-2.055434
N	-0.616956	-1.200861	0.556285
H	-0.714218	-1.076801	1.555085
H	0.013203	-1.977588	0.404004
Br	3.547287	0.0	0.0
