15

C	-0.520282	-0.148352	-1.412932
C	0.0	0.0	0.0
Cl	-2.236281	-0.524951	-1.458077
H	1.090243	0.0	0.0
H	-0.326754	-0.896367	0.530683
N	-0.260093	1.101347	-2.247746
O	-0.956953	1.279206	-3.237827
O	0.67118	1.798443	-1.869953
N	0.23153	-1.280422	-2.113897
O	0.127683	-2.371573	-1.573059
O	0.870783	-1.007054	-3.11949
N	-0.569824	1.210032	0.582871
H	0.171084	1.895521	0.653154
H	-0.903044	1.016768	1.516092
Br	3.536757	0.0	0.0
