15

C	-0.51246	0.076253	-1.42143
C	0.0	0.0	0.0
Cl	-2.242026	0.378305	-1.495097
H	1.093929	0.0	0.0
H	-0.328389	0.925213	0.476899
N	0.206055	1.212873	-2.152041
O	0.931586	0.925117	-3.091422
O	-0.003143	2.325446	-1.689443
N	-0.205626	-1.188689	-2.218093
O	-0.796564	-1.336731	-3.279698
O	0.642247	-1.930136	-1.740362
N	-0.578335	-1.169022	0.650738
H	0.151705	-1.865269	0.721218
H	-0.867683	-0.930421	1.588362
Br	3.534928	0.0	0.0
