15

C	-0.481949	0.164179	-1.423566
C	0.0	0.0	0.0
Cl	-0.094336	1.744131	-2.054144
H	1.107389	0.0	0.0
H	-0.339898	0.894525	0.525669
N	0.068144	-0.902735	-2.368806
O	-0.02541	-0.685902	-3.568721
O	0.511742	-1.912371	-1.840084
N	-2.001066	-0.037798	-1.448662
O	-2.646401	0.801983	-0.839648
O	-2.436301	-1.032266	-2.011417
N	-0.614424	-1.179946	0.601815
H	0.019892	-1.95922	0.485178
H	-0.719029	-1.016141	1.593838
Br	3.547153	0.0	0.0
