11
Coordinates from ORCA-job run
  C   -0.69086803048413     -0.17801704697838     -0.16927052240967
  C   0.74885568782096     -0.72636100586431     -0.06172547038748
  Cl  -1.74563035052006     -1.52143037174191     -0.71014310830852
  H   1.04681748696090     -1.10765019100905     -1.04196163579256
  H   0.74784542713970     -1.55898109798984      0.64666965126758
  C   -1.15707048636972      0.29850869086097      1.13447281886471
  N   -1.50637114678430      0.66958257711652      2.19353679638806
  C   -0.75687316161259      0.90431229530495     -1.15330420801801
  N   -0.78400710156377      1.76400397941471     -1.95433946490932
  C   1.67694570878596      0.31021644335486      0.37989279308272
  N   2.41935596662704      1.14681572753146      0.73617235022249
