11
Coordinates from ORCA-job run
  C   -0.61203627387544     -0.07938543102548     -0.19029082122689
  C   0.92631234458253      0.03362804510778     -0.28244469864312
  Cl  -1.10671615941443     -1.76331071515305     -0.53423341722040
  H   1.23280751128182     -0.27820050401016     -1.28425822671227
  H   1.20880472664687      1.08178527124782     -0.14363518379005
  C   -1.07532912155383      0.29599630800116      1.14738226199742
  N   -1.41889183667384      0.61307099343750      2.22563966552154
  C   -1.20928632662167      0.80866065178865     -1.19142289303749
  N   -1.64626551327666      1.53318452090871     -2.00699603497634
  C   1.58390138562273     -0.79328973674696      0.72367935443377
  N   2.11669926328192     -1.45313940355596      1.53457999365382
