11
Coordinates from ORCA-job run
  C   -0.58751971411978     -0.11535419844134     -0.24360622333719
  C   0.93466482727834      0.14709132416197     -0.20232466177193
  Cl  -0.88828252944214     -1.79358831239002     -0.78263234718714
  H   1.10136677743965      1.19640245694887      0.06084171599206
  H   1.33933881600573     -0.02775683734384     -1.20269831464220
  C   -1.17814770615022      0.07901568259368      1.08236394705857
  N   -1.62663479096533      0.25173008084522      2.15483954808766
  C   -1.19684907227222      0.81147815746468     -1.20126313981650
  N   -1.64011583200229      1.57321257968333     -1.97864001330384
  C   1.60101798196993     -0.71680990326527      0.76638469599910
  N   2.14316124225831     -1.40542103025730      1.54673479292140
