11
Coordinates from ORCA-job run
  C   -0.67956913586065     -0.18782226644357     -0.20311995392754
  C   0.76568084020933     -0.70850473845881     -0.04378265959142
  Cl  -1.68047374385541     -1.54057520880887     -0.81802135885018
  H   0.75177091624358     -1.55807486302925      0.64376114063647
  H   1.11477897398916     -1.05911814556356     -1.01845365786676
  C   -1.21262398802117      0.25105389976418      1.08824830497638
  N   -1.61622024004954      0.59001404241633      2.13856488454053
  C   -0.72401407145580      0.91371402830484     -1.16729540576194
  N   -0.73030477012431      1.78734450426406     -1.95321580983700
  C   1.65073276627835      0.33581617777210      0.46287143170851
  N   2.36124245264647      1.17615256978255      0.87144308397294
