11
Coordinates from ORCA-job run
  C   -0.68113263675603     -0.16211422056713     -0.21962483327169
  C   0.74210595992854     -0.73427188765982     -0.03894987814682
  Cl  -1.71441025109291     -1.46938535989609     -0.87721392782564
  H   0.68593010443469     -1.59058808748084      0.63817669347442
  H   1.09824458513613     -1.08555031724855     -1.01096671941265
  C   -1.22561221059155      0.27366012262666      1.06802682970070
  N   -1.63862467866756      0.60682133318820      2.11668269158682
  C   -0.66759249642657      0.95596268504961     -1.16537282796810
  N   -0.62566999505532      1.84304267268632     -1.93514387726874
  C   1.65109997405819      0.27429191373949      0.49710358504629
  N   2.37766164503241      1.08913114556216      0.92828226408542
