11
Coordinates from ORCA-job run
  C   -0.62203988057596     -0.10416255263599     -0.14263396259598
  C   0.74744450230540     -0.26351639960445      0.55499306867068
  Cl  -0.96111328709580     -1.55671640119035     -1.12870594409123
  H   0.90896901074817      0.59921312524310      1.20886734715517
  H   0.71425227313886     -1.16491777958329      1.17251577677325
  C   -1.65874097910659      0.03016034461419      0.88445887837747
  N   -2.45598481388509      0.13317437420491      1.74161462002922
  C   -0.62283974420424      1.07787939686915     -1.00736066278710
  N   -0.59847347591566      2.03881250283048     -1.68358205218018
  C   1.83416586565546     -0.35901850311714     -0.41375492164779
  N   2.71436052893546     -0.43190810763062     -1.18641214770351
