11
Coordinates from ORCA-job run
  C   -0.61293512106078     -0.05455001321085     -0.19494368463229
  C   0.72679847072907     -0.42418607700733      0.48044342405739
  Cl  -0.88970086205726     -1.12972944513880     -1.59673420259513
  H   0.67869388832827     -1.47283530921385      0.78526807475777
  H   0.84847902747990      0.19239961647428      1.37648494096756
  C   -1.69577443721651     -0.24333700334070      0.77431398068801
  N   -2.53352017805644     -0.40802142740110      1.58184594903150
  C   -0.59115491478280      1.33722743204991     -0.65072213443348
  N   -0.54914699339003      2.45966229539963     -0.99646853817007
  C   1.85487790729645     -0.21442443677333     -0.42070983776376
  N   2.76538321273013     -0.04320563183786     -1.14077797190749
