11
Coordinates from ORCA-job run
  C   -0.66808416042883     -0.21466675930157     -0.21697692504061
  C   0.77450656223216     -0.69735296200348      0.05182648543770
  Cl  -1.62146280637543     -1.62758229101992     -0.76807527533112
  H   1.17225412393192     -1.12591982625561     -0.87186388548670
  H   0.73921198387192     -1.48374184407323      0.81034844642868
  C   -1.26708025904351      0.31461939129528      1.00988228049558
  N   -1.72223421437474      0.72156247647391      2.01409882522313
  C   -0.67858496048568      0.80570836541420     -1.26715668322572
  N   -0.65320768258697      1.61297313532556     -2.12099208424013
  C   1.62198116294907      0.40256769870659      0.50231694446259
  N   2.30070025031008      1.29183261543827      0.85759187127660
