11
Coordinates from ORCA-job run
  C   -0.68544457308479     -0.19003337073145     -0.18129433919095
  C   0.75271145096723     -0.72430344740828     -0.00246314539465
  Cl  -1.71655749533078     -1.56188602174886     -0.69452061825079
  H   1.08170321153136     -1.15302084616442     -0.95275248829691
  H   0.73448521133529     -1.51965362518178      0.74725285026036
  C   -1.19518707714965      0.34162297130480      1.08439468905116
  N   -1.57898713700410      0.75111301872529      2.11699989069375
  C   -0.72233429929377      0.84677666297358     -1.21480579548774
  N   -0.72364909820578      1.66998276018375     -2.05368420916857
  C   1.66215317326608      0.34010267454479      0.41130672160994
  N   2.39010663296892      1.20029922350259      0.73956644417442
