11
Coordinates from ORCA-job run
  C   -0.67106819930702     -0.18505518386227     -0.23227518504160
  C   0.74162127817516     -0.73316563612112      0.06705066970045
  Cl  -1.67883271482680     -1.55450426098031     -0.79583636093069
  H   0.65377985470939     -1.51762171802222      0.82335394626866
  H   1.13971359247293     -1.17900215424860     -0.84823083964377
  C   -1.26905834878721      0.37997080378193      0.97918446177836
  N   -1.72718334409450      0.81923500258752      1.96840560872679
  C   -0.61375189806360      0.82973225625649     -1.28649835425818
  N   -0.53604932813550      1.63257840985779     -2.14128307711569
  C   1.62780952425040      0.32585578769585      0.54074927625134
  N   2.33501958360674      1.17997669305495      0.92537985426433
