11
Coordinates from ORCA-job run
  C   -0.61897937923844     -0.01030936634102     -0.18518743602560
  C   0.91374633277131     -0.19475511843683     -0.24845756538105
  Cl  -1.41097916914283     -1.61306324538034     -0.14608340850458
  H   1.15143991617282     -0.77425429623939     -1.14456520347046
  H   1.38124667737258      0.79091850840558     -0.33854792745373
  C   -0.99678532738979      0.74387870080131      1.01200475456059
  N   -1.26952676653543      1.36011913526709      1.97488663259698
  C   -1.05389794285119      0.70910828568869     -1.38549832245956
  N   -1.35724885583249      1.28635331530764     -2.36309865408967
  C   1.42184030763368     -0.87647471110824      0.93747527645973
  N   1.84014420703978     -1.42252120796450      1.88807185376736
