11
Coordinates from ORCA-job run
  C   -0.60647995441795     -0.07397991935447     -0.20708886429256
  C   0.93848788311952     -0.09591294222766     -0.21523433539211
  Cl  -1.22608356631523     -1.75164333392573     -0.19069423588681
  H   1.26843938411684     -0.64459634331118     -1.10125307402962
  H   1.30247105965325      0.93354003779688     -0.28889849742371
  C   -1.10327548158707      0.63547476997999      0.97389613453343
  N   -1.47577339050305      1.21898010251859      1.92366644816366
  C   -1.07335370757986      0.59499165518537     -1.42449549201297
  N   -1.40280704806607      1.13532251131739     -2.41459240233828
  C   1.47115687848015     -0.72432186552105      0.98912945377865
  N   1.90721794309947     -1.22685467245814      1.95556486490032
