11
Coordinates from ORCA-job run
  C   -0.62556708487251     -0.09340382118848     -0.13427169378734
  C   0.75896305506866     -0.30146817213852      0.51914019850602
  Cl  -0.99225399971325     -1.47752311157209     -1.20567872837216
  H   0.73717970308667     -1.24288879496846      1.07430378544046
  H   0.93844495746027      0.51436158143900      1.22635163628845
  C   -1.63832421947181     -0.02471453858411      0.92273970892724
  N   -2.41521718148490      0.02490722738069      1.80298720906078
  C   -0.64221528380566      1.14278010230123     -0.91955090176537
  N   -0.62910254506822      2.14587855959753     -1.53179862971972
  C   1.82285477174687     -0.33290528660520     -0.47885806257493
  N   2.68423782705389     -0.35502374566158     -1.27536452200343
