11
Coordinates from ORCA-job run
  C   -0.58424352666549      0.00668886056279     -0.27693976230789
  C   0.95538001519723      0.04389737897537     -0.15306381626939
  Cl  -1.07940635713560     -1.50736212368616     -1.08971492287672
  H   1.38158668847451     -0.03263325766649     -1.15673662696677
  H   1.24839268526710      1.00730898520642      0.27577873170657
  C   -1.20792766644271      0.06982138505687      1.04673133152511
  N   -1.68076862708280      0.13234893854765      2.12088190555633
  C   -1.01832878917753      1.14880295778551     -1.08614707528265
  N   -1.32387369945835      2.07740362553410     -1.73837012039290
  C   1.45115550673038     -1.04064204935706      0.68762383269231
  N   1.85703377029328     -1.90463470095900      1.36995652261601
