11
Coordinates from ORCA-job run
  C   -0.61705674112883     -0.07765823890825     -0.17403470860602
  C   0.75185991528262     -0.38548447617667      0.47290550086833
  Cl  -0.90536548685907     -1.21261210459904     -1.52569531701576
  H   0.88285172333655      0.26743509356526      1.34151793869343
  H   0.74209924245202     -1.42285106639251      0.81748621452177
  C   -1.66466988793761     -0.25904696307890      0.83454084781369
  N   -2.47156133941103     -0.41781837559152      1.67392954061990
  C   -0.64837412319803      1.29551231813333     -0.68233154831294
  N   -0.65092554143203      2.40425345840682     -1.07216763692466
  C   1.84719316992677     -0.17984857711233     -0.46872689966812
  N   2.73394906896861     -0.01088106824619     -1.21842393198963
