11
Coordinates from ORCA-job run
  C   -0.67213191489706     -0.17579763768917     -0.23780888804904
  C   0.74567515725689     -0.73139761906393      0.02143382126399
  Cl  -1.67473917669993     -1.51622285420644     -0.87475490626578
  H   0.66787481824252     -1.55567776058303      0.73530114758837
  H   1.13876830082084     -1.12514785143444     -0.91959324849221
  C   -1.26572596031095      0.31384689172619      1.00814285035473
  N   -1.71741913756579      0.69058857433613      2.02565726711374
  C   -0.62687165142419      0.89929932534237     -1.23109798794323
  N   -0.56043932771040      1.75153882082042     -2.03763608302812
  C   1.62978883991696      0.30629289825281      0.54378058549114
  N   2.33422005237110      1.14467721249908      0.96657544196642
