11
Coordinates from ORCA-job run
  C   -0.67028355482527     -0.20104297045915     -0.22076962777188
  C   0.75362857984435     -0.72064468718616      0.07558636551546
  Cl  -1.66116696024502     -1.59705449896452     -0.74762781211440
  H   1.14891784937593     -1.18152611062899     -0.83352378908374
  H   0.68572734806834     -1.48867937242743      0.85064372610685
  C   -1.26608838412078      0.37762465591317      0.98543456148791
  N   -1.72096220016133      0.82662938514923      1.97153802368600
  C   -0.64029280024228      0.79480314894097     -1.29403119527978
  N   -0.58683093894267      1.58608814681280     -2.16131879920846
  C   1.62880988832198      0.36289671856539      0.51308437255304
  N   2.32754117292675      1.23990558428469      0.85998417410900
