11
Coordinates from ORCA-job run
  C   -0.60701475400055     -0.04979729415810     -0.21460269126078
  C   0.93688994539664     -0.10524960571915     -0.21808494556828
  Cl  -1.26223830847699     -1.71187333688702     -0.30028619841909
  H   1.25871771415372     -0.61234556191820     -1.13146546597464
  H   1.32392529869966      0.91834697954053     -0.23484065114486
  C   -1.09581789466516      0.59861068460459      1.00428127511624
  N   -1.45979980662691      1.13117580922995      1.98664497105697
  C   -1.05284989256731      0.70056005303665     -1.39186375937285
  N   -1.36525268046897      1.30805057355598     -2.34802060150558
  C   1.45040266633168     -0.80859754853777      0.95264444217365
  N   1.87103771222419     -1.36788075274746      1.89459362489924
