11
Coordinates from ORCA-job run
  C   -0.61501957176218      0.00008271604852     -0.19592750969191
  C   0.70815254294880     -0.51461277904222      0.41359861737116
  Cl  -0.94432548785958     -0.86749610934938     -1.72439159640721
  H   0.86095251576404     -0.02561227806787      1.38077618830428
  H   0.61232386410595     -1.59065986647570      0.58067146379175
  C   -1.70243857527365     -0.26642199514630      0.74980911144237
  N   -2.54339471243130     -0.49843322165998      1.53712325195601
  C   -0.53249266822496      1.43767440789016     -0.46385248460049
  N   -0.44578625638723      2.59431913365049     -0.65307353665284
  C   1.84270439762217     -0.24272156705321     -0.46252797885038
  N   2.76032395149793     -0.02611844079452     -1.16120552666273
