11
Coordinates from ORCA-job run
  C   -0.62187872147547     -0.07105073257852     -0.16547766471984
  C   0.74880807528911     -0.39299372791347      0.47103199447487
  Cl  -0.95317938503865     -1.23144381954920     -1.48491792768075
  H   0.72239421726945     -1.42218775902151      0.83847436854750
  H   0.90400391501717      0.27583100519612      1.32340470932704
  C   -1.65865834179863     -0.20367528907742      0.86167877200090
  N   -2.45447980572351     -0.31883497252261      1.71869763852040
  C   -0.62978830842253      1.29023456835209     -0.70568606013918
  N   -0.61034807947720      2.39067894169977     -1.11797578796638
  C   1.83599580738892     -0.22913339257541     -0.48804928278812
  N   2.71613062697133     -0.08842482200983     -1.25118075957644
