11
Coordinates from ORCA-job run
  C   -0.61707880929338     -0.08580254892172     -0.17382136146179
  C   0.75582672825947     -0.37068715434668      0.47563637630543
  Cl  -0.89060558031279     -1.23361929197357     -1.51745545114300
  H   0.75834838679352     -1.40448392061381      0.83090896933488
  H   0.87911101440853      0.29263113803463      1.33738831673243
  C   -1.66133970572792     -0.27340730112155      0.83706775316927
  N   -2.46166928525565     -0.43243782593219      1.68278587684034
  C   -0.66534234348653      1.28346951056999     -0.69136674878537
  N   -0.67719613420617      2.38932979962736     -1.08917066199965
  C   1.84828562483594     -0.16372658797899     -0.46894817881525
  N   2.73166010398499     -0.00126581734347     -1.22402489017729
