11
Coordinates from ORCA-job run
  C   -0.60558596572146     -0.08881165374470     -0.20921051041520
  C   0.93963116522551     -0.09774346200337     -0.20564468681902
  Cl  -1.21162910182375     -1.76954551097070     -0.13518509061001
  H   1.29527285423722      0.93096720242792     -0.32000383749208
  H   1.28040748277848     -0.67986888004405     -1.06585234155581
  C   -1.11679087095787      0.65974244758175      0.94119588858232
  N   -1.49705793647761      1.27310791891574      1.86882611519208
  C   -1.06745609510024      0.53300676429693     -1.45324263431151
  N   -1.38851771648299      1.04158205667821     -2.46286715803863
  C   1.46898816777687     -0.67053940883498      1.02733555354345
  N   1.90173801654584     -1.13189747430274      2.01564870192440
