11
Coordinates from ORCA-job run
  C   -0.61995237813374     -0.11559838167092     -0.14202038757849
  C   0.76739391837645     -0.27831316929298      0.51872483374838
  Cl  -0.92191574956117     -1.49354865716966     -1.24041511656486
  H   0.90928068280656      0.53439096299359      1.23790960616513
  H   0.77867787830536     -1.22718510454358      1.06138522908320
  C   -1.64102037407011     -0.10800275747688      0.90933241326027
  N   -2.42307335409932     -0.10982092758024      1.78649216604911
  C   -0.68223215329428      1.13353104701658     -0.90419079700146
  N   -0.71085089044715      2.14942416175502     -1.49425045823040
  C   1.83850441720070     -0.25415525280594     -0.47163671842772
  N   2.70618800291668     -0.23172192122500     -1.26133077050317
