15
Coordinates from ORCA-job run
  C   -0.70012461104528     -0.05744396382201      0.36388038039741
  C   0.82642436472487      0.00405089196106      0.48461637508152
  Br  -1.41394287416830     -0.15286206435027      2.16749811094051
  H   1.11477866349997      0.81000732619505      1.15950944566106
  N   -1.16853290981863     -1.13763431181434     -0.38767540654687
  H   -0.85392015569314     -1.06588938185096     -1.34821056567049
  H   -2.17643983188689     -1.21341533101090     -0.35154508162288
  N   -1.15878408968334      1.34319869386094     -0.16332582688950
  O   -0.47019097487080      2.30681569753897      0.14838200329859
  O   -2.18359953824382      1.34946846080321     -0.82694740549911
  N   1.48678165822842      0.36757775056504     -0.84088600358108
  O   0.80268188538010      0.29992607477212     -1.85724821760070
  O   2.65998536179539      0.69457572922823     -0.76439062163097
  C   1.37972640220617     -1.26780399751072      0.92749137085261
  N   1.85315664957528     -2.27957157456543      1.28985144280992
