15
Coordinates from ORCA-job run
  C   -0.66382754529407      0.00645068888595      0.28988161547840
  C   0.85951396512113     -0.08836059510656      0.44365179327314
  Br  -1.46319747370397     -0.59582606199899      2.02366009197573
  H   1.19280449573762      0.65095758378094      1.17512635040794
  N   -1.09522209278921     -0.64591121169436     -0.85669367066655
  H   -0.89504105048144     -1.63824436193627     -0.84904950523117
  H   -2.06345165293641     -0.45629737258821     -1.07929251920158
  N   -1.07960790103239      1.48564885403183      0.21898604478551
  O   -1.98708112390132      1.74936821589385     -0.55665259983718
  O   -0.50622227021253      2.25030569236356      0.97585078146172
  N   1.46760207202104      0.31164684368737     -0.89783560576467
  O   1.28870951555532      1.48085353226779     -1.20888021265967
  O   2.04281941730698     -0.55005263480694     -1.54546881782744
  C   1.28406627435120     -1.43469344180565      0.79326967305969
  N   1.61713537025808     -2.52584573097433      1.07344658074613
