15
Coordinates from ORCA-job run
  C   -0.71582761785032      0.02099241889895      0.24281583052763
  C   0.70905564718118     -0.53616768350257      0.16781266718790
  Br  -1.24344638566659      0.15457676113106      2.14853332853833
  H   0.71057967679274     -1.49212583358655      0.70232173599182
  N   -1.57375916779863     -0.78137440217809     -0.53316638319417
  H   -1.58796568620951     -1.74473543540850     -0.22159958131296
  H   -2.51588299903603     -0.40550632555232     -0.53074140966696
  N   -0.81798030772055      1.41401482377453     -0.38123179534620
  O   -1.92065160008847      1.93641179145963     -0.31719937486583
  O   0.17461960898492      1.83801943466643     -0.95594271711083
  N   1.78150071966974      0.27762558747376      0.89041738690524
  O   2.87675381274269     -0.26783840240115      0.90497962380495
  O   1.47821849664552      1.34879788584691      1.38887339890933
  C   1.15055189193713     -0.76431705300862     -1.20396530975134
  N   1.49423391041619     -1.00037356761348     -2.30190740061690
