15
Coordinates from ORCA-job run
  C   -0.76282112320849      0.05079381974341      0.33736236433156
  C   0.77810759653162      0.06105026350147      0.49015025250209
  Br  -1.46644712940253      0.10475989508828      2.14981097866612
  H   1.10470491692648      0.87212233491768      1.14002828426688
  N   -1.38488145735705     -0.98826831482366     -0.36564046269502
  H   -1.34565348092309     -1.87244128642653      0.12160197534872
  H   -1.05139215142741     -1.05498384639954     -1.31810937026166
  N   -1.12142037263620      1.40685433389188     -0.32256278454332
  O   -2.04767175196451      1.42230733120349     -1.11241232319932
  O   -0.42944054955944      2.35496851693487      0.03112955791085
  N   1.46578931866571      0.32791107101937     -0.84183561603133
  O   2.63741211427504      0.66355226935566     -0.76886066413998
  O   0.80169212429937      0.17466222576427     -1.86223180610469
  C   1.24096115833547     -1.23092458313866      0.97447673131323
  N   1.58006078744503     -2.29236403063200      1.34709288263587
