19

C	-0.16257	0.110612	-1.532055
C	0.0	0.0	0.0
Cl	-0.099282	-1.677737	-2.262538
H	1.095785	0.0	0.0
C	-1.481798	0.63875	-2.057451
H	-1.630816	1.64674	-1.671042
H	-1.474773	0.659075	-3.150952
H	-2.309134	0.009242	-1.728229
N	0.946542	0.858487	-1.957167
H	1.062405	0.874487	-2.961367
H	1.807523	0.568784	-1.441344
C	-0.671435	-1.1575	0.695752
H	-0.550747	-1.041582	1.779086
H	-1.74539	-1.193252	0.480248
H	-0.216616	-2.103587	0.409691
N	-0.507906	1.279614	0.563396
H	0.080484	1.996461	0.142187
H	-0.233344	1.270118	1.543789
F	2.777946	0.0	0.0
