19

C	-0.058985	-0.047388	-1.528789
C	0.0	0.0	0.0
Cl	-1.763116	-0.372901	-2.146604
H	1.09952	0.0	0.0
C	0.423831	1.27042	-2.098707
H	-0.211291	2.094307	-1.779859
H	0.471214	1.197719	-3.186452
H	1.430044	1.405103	-1.686602
N	0.817821	-1.087439	-2.050564
H	1.702498	-0.905378	-1.549104
H	0.481516	-1.986231	-1.721388
C	-0.529089	-1.239185	0.701698
H	-0.10354	-2.161315	0.299448
H	-1.62193	-1.305729	0.627162
H	-0.254698	-1.192424	1.760131
N	-0.529009	1.242666	0.554526
H	-1.451608	1.083788	0.944409
H	0.082441	1.536338	1.306155
F	2.731739	0.0	0.0
