19

C	-0.449575	0.020763	-1.456148
C	0.0	0.0	0.0
F	-0.006498	-1.227133	-2.008382
H	1.101136	0.0	0.0
N	-1.871529	0.087863	-1.541468
H	-2.237977	-0.620277	-0.91235
H	-2.163067	-0.123956	-2.48849
C	0.237952	1.082437	-2.282218
H	1.317125	1.004539	-2.136562
H	-0.103181	2.076282	-1.99171
H	0.00457	0.926363	-3.3399
N	-0.563396	-1.218315	0.612863
H	-0.072982	-2.00206	0.194274
H	-0.294678	-1.213006	1.591382
C	-0.481594	1.217839	0.771538
H	-0.091364	2.137649	0.33298
H	-1.572351	1.264747	0.791771
H	-0.103161	1.168238	1.797348
Cl	3.59997	0.0	0.0
