19

C	-0.33715	0.037074	-1.491239
C	0.0	0.0	0.0
F	-1.687733	0.391284	-1.682946
H	1.104126	0.0	0.0
N	0.456789	1.087086	-2.082293
H	0.457941	0.989434	-3.091475
H	1.416799	1.000715	-1.752417
C	-0.171511	-1.318039	-2.154093
H	0.860061	-1.657976	-2.032749
H	-0.856001	-2.038626	-1.70615
H	-0.393891	-1.229499	-3.221921
N	-0.540299	-1.214763	0.634826
H	0.16013	-1.944942	0.546996
H	-0.611003	-1.030689	1.629882
C	-0.530081	1.23178	0.709107
H	-0.104237	1.294773	1.714949
H	-1.619763	1.175518	0.781955
H	-0.260077	2.133383	0.161124
Cl	3.525665	0.0	0.0
