19

C	-0.45306	-0.031574	-1.455303
C	0.0	0.0	0.0
F	-1.869812	-0.338973	-1.432528
H	1.095409	0.0	0.0
N	-0.263307	1.220959	-2.097936
H	-0.825787	1.936265	-1.65572
H	-0.53131	1.151311	-3.071489
C	0.220414	-1.138219	-2.229085
H	-0.14765	-1.154645	-3.260214
H	0.000198	-2.088749	-1.747893
H	1.298482	-0.97012	-2.215792
N	-0.428923	-1.252582	0.628131
H	-1.407262	-1.183362	0.886366
H	0.119236	-1.388513	1.468536
C	-0.48612	1.24617	0.738993
H	-0.215256	1.161964	1.794268
H	-1.576157	1.345964	0.669381
H	-0.008512	2.151368	0.356146
Cl	3.584187	0.0	0.0
