19

C	-0.393901	-0.006985	-1.48113
C	0.0	0.0	0.0
F	-0.138587	1.317273	-1.974788
H	1.098068	0.0	0.0
N	0.410842	-0.946585	-2.174367
H	1.380563	-0.850186	-1.882187
H	0.345461	-0.780037	-3.171705
C	-1.866371	-0.240421	-1.745917
H	-2.46474	0.555903	-1.297754
H	-2.159343	-1.206471	-1.338131
H	-2.051815	-0.233872	-2.824081
N	-0.454402	-1.242883	0.632742
H	-1.316285	-1.067403	1.141844
H	0.24592	-1.529936	1.30776
C	-0.470685	1.24849	0.736998
H	-0.112511	2.155813	0.252169
H	-1.565891	1.290199	0.798083
H	-0.073599	1.223388	1.755503
Cl	3.553988	0.0	0.0
