16

C	-0.312126	0.038323	-1.501075
C	0.0	0.0	0.0
Cl	-2.086918	0.295223	-1.799785
H	1.098974	0.0	0.0
N	0.414213	1.131069	-2.075405
H	0.36453	1.107982	-3.088472
H	1.390827	1.067806	-1.773716
C	-0.013741	-1.27269	-2.113037
N	0.256143	-2.304536	-2.609099
C	-0.517678	-1.228729	0.736424
H	-0.20328	-1.172939	1.779493
H	-1.607578	-1.290786	0.697563
H	-0.084211	-2.13203	0.304575
C	-0.46524	1.23175	0.628925
N	-0.838053	2.183935	1.207018
Br	3.419892	0.0	0.0
