16

C	-0.498167	-0.009051	-1.456798
C	0.0	0.0	0.0
Cl	0.112899	-1.467136	-2.29733
H	1.095474	0.0	0.0
N	-1.947569	-0.054532	-1.500194
H	-2.30905	0.765353	-1.020506
H	-2.256448	-0.017655	-2.465727
C	0.036582	1.153083	-2.194669
N	0.328268	2.106707	-2.81769
C	-0.466157	-1.213776	0.807172
H	-0.096	-1.109818	1.828625
H	-1.552778	-1.305505	0.815071
H	-0.026301	-2.116367	0.384201
C	-0.489431	1.232766	0.613945
N	-0.957802	2.199279	1.092533
Br	3.432574	0.0	0.0
