16

C	-0.509494	0.016407	-1.451296
C	0.0	0.0	0.0
Cl	0.351682	-1.327804	-2.359871
H	1.094669	0.0	0.0
N	-1.930601	-0.114847	-1.506368
H	-2.255276	-0.075403	-2.46534
H	-2.208436	-1.001874	-1.104951
C	-0.136117	1.257874	-2.139564
N	0.091705	2.249515	-2.726604
C	-0.440176	-1.242958	0.779399
H	0.086006	-1.243548	1.735091
H	-1.515164	-1.254828	0.979351
H	-0.145032	-2.144617	0.241157
C	-0.478424	1.204998	0.675322
N	-0.856642	2.154571	1.254691
Br	3.43916	0.0	0.0
