16

C	-0.344566	-0.044714	-1.499815
C	0.0	0.0	0.0
Cl	0.025239	1.61225	-2.221753
H	1.097443	0.0	0.0
N	0.413476	-1.090639	-2.085037
H	0.305734	-1.106572	-3.088698
H	1.396334	-0.972206	-1.838416
C	-1.782065	-0.243615	-1.733266
N	-2.930437	-0.415289	-1.914622
C	-0.475482	-1.262034	0.725116
H	-1.566602	-1.331602	0.741554
H	-0.10722	-1.23413	1.752399
H	-0.061622	-2.140367	0.231641
C	-0.528337	1.18894	0.653427
N	-0.975467	2.099825	1.245005
Br	3.439587	0.0	0.0
