16

C	-0.300536	-0.053909	-1.513004
C	0.0	0.0	0.0
Cl	-0.045699	1.635031	-2.22381
H	1.097455	0.0	0.0
N	0.55497	-1.028982	-2.078854
H	1.518754	-0.858193	-1.779527
H	0.49536	-1.042385	-3.088766
C	-1.706821	-0.368932	-1.800162
N	-2.825623	-0.654766	-2.018328
C	-0.466011	-1.274645	0.709819
H	-0.100935	-1.257092	1.738391
H	-0.03996	-2.141527	0.205812
H	-1.556178	-1.355764	0.721142
C	-0.552632	1.177003	0.651787
N	-1.028717	2.074054	1.242315
Br	3.442127	0.0	0.0
