16

C	-0.537937	-0.015512	-1.454416
C	0.0	0.0	0.0
Cl	0.136255	-1.448051	-2.288148
H	1.095587	0.0	0.0
N	-1.981892	-0.072271	-1.598792
H	-2.320727	-0.909225	-1.138054
H	-2.384207	0.737506	-1.136904
C	-0.067411	1.179367	-2.168651
N	0.285623	2.147101	-2.731423
C	-0.437531	-1.21209	0.826772
H	-0.07937	-2.128331	0.357835
H	0.03088	-1.13835	1.808418
H	-1.521121	-1.262599	0.963467
C	-0.49814	1.224317	0.624151
N	-0.989518	2.174982	1.111941
Br	3.428321	0.0	0.0
