18

C	0.0	0.0	0.0
C	-0.36508	0.187993	-1.501923
F	1.355186	0.0	0.0
H	-1.303239	0.732496	-1.526237
N	-0.360137	1.232622	0.823741
O	-0.337326	1.098127	2.04719
O	-0.422563	2.315166	0.238008
C	-0.635173	-1.150184	0.631799
N	-0.599628	-2.225615	1.143103
C	-0.579543	-1.177258	-2.146798
H	-0.728693	-1.057541	-3.224795
H	-1.459483	-1.657856	-1.716684
H	0.287548	-1.8288	-1.99348
C	0.70954	0.970861	-2.258431
H	1.627513	0.390912	-2.380781
H	0.952169	1.906608	-1.754552
H	0.325019	1.211746	-3.255574
H	-2.232628	0.0	0.0
