18

C	0.0	0.0	0.0
C	-0.530862	0.005083	-1.424928
F	1.356266	0.0	0.0
H	-1.624056	-0.013414	-1.246631
N	-0.333929	1.247856	0.83746
O	-0.67358	1.085177	2.00187
O	-0.067772	2.327885	0.316343
C	-0.472197	-1.169531	0.7684
N	-0.463375	-2.192805	1.353384
C	-0.088121	-1.293011	-2.100582
H	-0.43545	-2.170496	-1.550907
H	-0.528056	-1.337863	-3.100479
H	1.000464	-1.353285	-2.203943
C	-0.13918	1.217738	-2.261875
H	-0.385566	1.003987	-3.306942
H	0.931806	1.442461	-2.203337
H	-0.692649	2.105996	-1.95911
H	-2.870162	0.0	0.0
