14

C	-0.580889	0.072724	-1.396318
C	0.0	0.0	0.0
Br	0.176073	1.494182	-2.468199
H	1.091648	0.0	0.0
H	-1.659204	0.222521	-1.393675
H	-0.340501	-0.952412	0.42559
N	-0.399031	-1.248585	-2.100855
O	0.718122	-1.571753	-2.465306
O	-1.420569	-1.936226	-2.193564
C	-0.491723	1.158571	0.862665
H	-1.585175	1.199716	0.919596
H	-0.096447	1.049914	1.874494
H	-0.125453	2.109349	0.47167
Cl	3.597526	0.0	0.0
