14

C	-0.45222	0.087142	-1.445103
C	0.0	0.0	0.0
Br	0.12166	-1.393857	-2.534287
H	1.092924	0.0	0.0
H	-0.075468	0.991363	-1.919609
H	-0.322359	0.937004	0.467835
N	-1.962571	0.217321	-1.482726
O	-2.668495	-0.749955	-1.746885
O	-2.372794	1.33189	-1.153853
C	-0.549743	-1.195684	0.763488
H	-0.174623	-1.163687	1.788255
H	-0.210187	-2.132733	0.319836
H	-1.643047	-1.205549	0.800661
Cl	3.507523	0.0	0.0
