14

C	-0.59564	0.045106	-1.387897
C	0.0	0.0	0.0
Br	0.133271	1.471376	-2.471439
H	1.092082	0.0	0.0
H	-1.674567	0.1891	-1.380028
H	-0.314198	0.926848	0.493305
N	-0.406927	-1.274579	-2.094762
O	0.725723	-1.627983	-2.388476
O	-1.437863	-1.93292	-2.26401
C	-0.509668	-1.211337	0.780229
H	-1.602513	-1.279962	0.789229
H	-0.107484	-2.137169	0.362764
H	-0.155216	-1.144897	1.810646
Cl	3.538415	0.0	0.0
