14

C	-0.431883	-0.051541	-1.445869
C	0.0	0.0	0.0
Br	-2.342135	-0.431728	-1.672707
H	1.094611	0.0	0.0
H	0.095555	-0.828562	-1.992734
H	-0.296647	-0.965884	0.423879
N	-0.143042	1.217147	-2.204775
O	0.683533	1.125325	-3.10891
O	-0.736115	2.239198	-1.872595
C	-0.547599	1.136577	0.850266
H	-0.240498	0.970033	1.885499
H	-1.638375	1.194553	0.814154
H	-0.141343	2.0976	0.53721
Cl	3.445223	0.0	0.0
