18

C	0.0	0.0	0.0
C	-0.516004	0.090995	-1.453135
Cl	1.80236	0.0	0.0
H	-1.608625	-0.012224	-1.35444
C	-0.478586	1.195794	0.803993
H	-0.138827	1.102908	1.837977
H	-1.572651	1.202447	0.782548
H	-0.08632	2.13126	0.400626
C	-0.465493	-1.300005	0.634954
H	-1.559284	-1.302978	0.63394
H	-0.089778	-2.164128	0.082956
H	-0.103092	-1.362541	1.664091
C	-0.024117	-1.043291	-2.250868
N	0.377468	-1.94095	-2.89233
N	-0.241054	1.325871	-2.173253
H	0.70939	1.626308	-1.989127
H	-0.879775	2.037524	-1.843402
Cl	-3.780545	0.0	0.0
