11
Coordinates from ORCA-job run
  C   -0.39186857276358     -0.29165201024571      0.41290038205653
  C   0.71104533422829      0.17098554806480     -0.52590764635730
  Cl  0.15198229891753     -0.34147338468757      2.08600740883722
  H   1.09746405193179      1.13070592352473     -0.17829995581945
  H   -0.79731372275530     -1.26644620973850      0.15009301704979
  H   0.29125030769470      0.31772763412985     -1.52649592306695
  N   -1.54707452025672      0.67404076794399      0.30383733534848
  O   -1.27363827809874      1.86829143046841      0.33653286347236
  O   -2.66195964510343      0.17539287289863      0.18994599071836
  C   1.78250630843155     -0.81732575386667     -0.59396833819108
  N   2.63560643777392     -1.62024681849195     -0.65364513404794
