11
Coordinates from ORCA-job run
  C   -0.49756139191236     -0.40483424732786      0.47923429568730
  C   0.97425964600429     -0.34503534050805      0.11295547998986
  Cl  -0.69583422219983     -0.63559998862138      2.21534819380733
  H   1.43957989554747      0.49065167806221      0.63845368594624
  H   -1.04022502632009     -1.19027558745238     -0.04233140336098
  H   1.45751497496257     -1.27072062344768      0.43463376599092
  N   -1.17426435859357      0.88814915849705      0.08591853894770
  O   -0.57336553496829      1.92494886872198      0.34040688518549
  O   -2.27459757008130      0.78087977043419     -0.44406125933359
  C   1.13905743598885     -0.18065511878896     -1.32983657889416
  N   1.24643615157225     -0.05750856956911     -2.49172160396611
