11
Coordinates from ORCA-job run
  C   -0.52642015544246     -0.38862831062587      0.45401817549460
  C   0.93684920743694     -0.45094402529681      0.05726962851198
  Cl  -0.72030015849849     -0.74507502839427      2.16996329952219
  H   1.32308704840538     -1.44622462851885      0.29018115910416
  H   -1.15671575814323     -1.06835956323325     -0.11563487764877
  H   1.49810855545024      0.28393714115463      0.63653875403452
  N   -1.07792949622107      0.99414291019795      0.19075007708948
  O   -2.23434056915702      1.04177929453976     -0.21368590747230
  O   -0.33587610790239      1.94099988664892      0.42284289072012
  C   1.09508029270675     -0.18458711756134     -1.37087632383692
  N   1.19745714136535      0.02195944108914     -2.52136687551905
