16

C	-0.610666	-0.022826	-1.391633
C	0.0	0.0	0.0
F	-0.411072	-1.265956	-1.911133
H	1.089764	0.0	0.0
C	-2.038532	0.311149	-1.476645
N	-3.183966	0.55739	-1.568405
N	0.151221	0.925814	-2.351562
O	-0.434303	1.928957	-2.741026
O	1.261725	0.536868	-2.668991
N	-0.484011	-1.193991	0.756598
O	-1.633667	-1.584933	0.529725
O	0.291163	-1.689016	1.566261
N	-0.437902	1.190691	0.742786
O	-0.505933	2.226171	0.078689
O	-0.63316	1.095622	1.950826
F	2.415562	0.0	0.0
