16

C	-0.553972	0.030309	-1.4099
C	0.0	0.0	0.0
F	0.035504	-0.931138	-2.168931
H	1.08745	0.0	0.0
C	-2.011979	-0.14264	-1.498264
N	-3.161729	-0.37668	-1.561831
N	-0.184625	1.347197	-2.113758
O	-0.824209	1.575448	-3.135989
O	0.754548	1.983566	-1.66756
N	-0.476069	-1.249312	0.656514
O	-1.282335	-1.16707	1.582671
O	-0.02292	-2.290874	0.191164
N	-0.505262	1.146907	0.774084
O	-0.036346	1.298638	1.895284
O	-1.34262	1.885382	0.240689
F	2.416058	0.0	0.0
