16

C	-0.461182	-0.000738	-1.436986
C	0.0	0.0	0.0
F	0.003422	1.095558	-2.092355
H	1.090635	0.0	0.0
C	0.004308	-1.208911	-2.127669
N	0.420164	-2.160918	-2.675508
N	-1.993792	0.09742	-1.608296
O	-2.533658	-0.628005	-2.433361
O	-2.524953	0.974983	-0.940355
N	-0.494433	-1.201578	0.689199
O	-1.427548	-1.822257	0.163227
O	0.059695	-1.509082	1.737976
N	-0.438496	1.197817	0.759067
O	-1.149667	1.038389	1.747229
O	-0.012641	2.269472	0.347247
F	2.410883	0.0	0.0
