16

C	-0.63888	-0.017191	-1.378933
C	0.0	0.0	0.0
F	-0.401512	-1.245703	-1.930151
H	1.088674	0.0	0.0
C	-2.08063	0.263531	-1.430274
N	-3.234138	0.476491	-1.512308
N	0.050352	0.985902	-2.327904
O	1.246907	0.8094	-2.477321
O	-0.665899	1.806376	-2.891088
N	-0.478	-1.211389	0.744793
O	-1.690329	-1.43957	0.719784
O	0.361588	-1.882826	1.331296
N	-0.447983	1.176342	0.752094
O	-0.537646	1.091554	1.972913
O	-0.624964	2.197934	0.08338
F	2.42381	0.0	0.0
