16

C	-0.57333	0.002536	-1.40417
C	0.0	0.0	0.0
F	-0.218615	-1.182005	-1.991963
H	1.088582	0.0	0.0
C	-2.032269	0.159853	-1.518702
N	-3.201982	0.222972	-1.613596
N	0.075664	1.093626	-2.295042
O	1.254031	1.329028	-2.108102
O	-0.650879	1.570266	-3.161801
N	-0.510831	-1.219846	0.699476
O	-1.734411	-1.307798	0.835069
O	0.308208	-2.05256	1.070085
N	-0.472866	1.169136	0.740792
O	-0.740811	2.168487	0.06575
O	-0.479162	1.109977	1.965752
F	2.426254	0.0	0.0
