13

C	0.0	0.0	0.0
C	-0.539961	0.294658	-1.419581
Cl	1.794493	0.0	0.0
H	-1.471807	0.846662	-1.283272
H	0.204241	0.921883	-1.916415
C	-0.378742	1.079659	0.92408
N	-0.527613	1.999082	1.639966
C	-0.419414	-1.301998	0.526117
N	-0.602023	-2.379991	0.955985
N	-0.714477	-0.956577	-2.136195
H	-1.634079	-1.304348	-1.869309
H	-0.74196	-0.766281	-3.130551
Br	-3.512162	0.0	0.0
