13

C	0.0	0.0	0.0
C	-0.538141	0.290479	-1.419052
Cl	1.794595	0.0	0.0
H	-1.493849	0.798883	-1.282561
H	0.18239	0.957069	-1.898503
C	-0.381538	1.082317	0.919752
N	-0.545236	2.00152	1.632721
C	-0.42238	-1.300975	0.52549
N	-0.610868	-2.380144	0.950065
N	-0.649147	-0.957114	-2.153825
H	-0.653569	-0.758023	-3.146444
H	-1.560564	-1.343715	-1.918981
Br	-3.52519	0.0	0.0
