13

C	0.0	0.0	0.0
C	-0.525866	0.248157	-1.425363
Cl	1.794728	0.0	0.0
H	-0.045108	1.164011	-1.781371
H	-1.601118	0.416617	-1.303593
C	-0.410952	1.079396	0.905545
N	-0.605538	2.002263	1.606208
C	-0.416447	-1.30861	0.513326
N	-0.623755	-2.388288	0.926672
N	-0.222401	-0.897427	-2.262386
H	0.234119	-0.619792	-3.117995
H	-1.080653	-1.383072	-2.48782
Br	-3.665405	0.0	0.0
