16
Coordinates from ORCA-job run
  C   -0.46957317357152      0.20580690981074     -0.31940654723248
  C   0.82781201784678     -0.14574817741819      0.41605910556630
  F   -0.13969793745767      0.68687539072159     -1.55133811148615
  H   0.55364461919376     -0.52758321570989      1.40176187283218
  C   -1.44769458672595     -0.93025429878259     -0.44936659693254
  H   -2.31498152964953     -0.58642493827990     -1.01622318507712
  H   -1.76838421655723     -1.26756468430613      0.53585743068937
  H   -0.96261687117503     -1.74897351940087     -0.97777591494545
  N   -1.13609723877503      1.33802466951810      0.44597989326043
  O   -1.34869583924193      1.09516900631878      1.63143799983588
  O   -1.41825182423894      2.36003277885355     -0.16046298984102
  C   1.63553891055629      1.07683277533335      0.60714058946067
  N   2.32637281056636      2.01888164373988      0.73036206863750
  N   1.50402366372493     -1.19202112208156     -0.33043302097141
  H   2.26292465720805     -1.57599298877268      0.21821028564320
  H   1.89467653829664     -0.80806022954418     -1.18280287943936
