16
Coordinates from ORCA-job run
  C   -0.56580359273062     -0.06337800003689     -0.47177207768569
  C   0.95801919757262     -0.13184616902782     -0.32715372685416
  F   -0.91374479245431     -0.67290101800753     -1.65209335083912
  H   1.38166888252796      0.21766967795656     -1.27521847111051
  C   -1.34808848898117     -0.63478731484791      0.67022982568219
  H   -1.07387746277581     -0.12700120312913      1.59378695036465
  H   -2.41266947133525     -0.51042987896878      0.48339060774645
  H   -1.11851989179566     -1.69807214540698      0.75460315085310
  N   -0.92618904274102      1.41058282286404     -0.68728880313534
  O   -2.07429800530387      1.74788230485708     -0.42522402839001
  O   -0.06016769686798      2.13228327642580     -1.17906626399053
  C   1.34754808796907     -1.53212469965251     -0.15028831280871
  N   1.67308755977862     -2.64731834787962      0.01819447901060
  N   1.35945108187293      0.67569343614161      0.82064995824055
  H   1.65209616396026      1.58959736247388      0.50097796186383
  H   2.12148747130425      0.24514989623822      1.32627210105270
