16
Coordinates from ORCA-job run
  C   -0.51229032722859     -0.15274767987423     -0.52828411722666
  C   0.98782750111042     -0.03167257163415     -0.24996846808440
  F   -0.67625125744824     -0.95074592406205     -1.62979195595114
  H   1.43083088152178      0.33384047423053     -1.17998536534620
  C   -1.34764800577748     -0.66006137851776      0.60833693741318
  H   -2.39257509108888     -0.70049378472075      0.30348870180866
  H   -1.26821995275531     -0.00179286355192      1.47179915867540
  H   -1.01164560782407     -1.66570746037613      0.86730783415478
  N   -0.95551074567808      1.24199294866620     -0.96610999563050
  O   -0.34753428144804      1.70873776172100     -1.92331843308264
  O   -1.87612634530871      1.77459780093127     -0.35875124296703
  C   1.54018038996213     -1.36500914490995      0.03981212583523
  N   1.98521121074389     -2.40985719094053      0.34041479229650
  N   1.19676490075595      0.95632733888843      0.79353538205057
  H   2.10605707777705      1.38819778784079      0.69855735431944
  H   1.14192965268617      0.53639388630924      1.71295729173482
