16
Coordinates from ORCA-job run
  C   -0.38378132014151      0.25932508311612     -0.30045383743434
  C   0.89072440823170     -0.14571151349004      0.46856546952171
  F   -0.01215333475919      0.75905782370943     -1.51202211902671
  H   0.58009945086303     -0.49659088518185      1.45628526719404
  C   -1.38951440265529     -0.84617960714609     -0.49156687632729
  H   -0.94836552593276     -1.63543769332361     -1.10064838591275
  H   -2.25815764457118     -0.45114470084483     -1.02154432166383
  H   -1.70691492831581     -1.24880722966416      0.46982848420282
  N   -1.05053212439644      1.38199736417441      0.47508188246470
  O   -1.22485319211494      2.45369363952545     -0.08411929487195
  O   -1.36288470762873      1.08372943270019      1.62582103707872
  C   1.72226027415842      1.05309127945527      0.65861086832067
  N   2.37477645683510      2.01896086430833      0.79498928402242
  N   1.67806510215148     -1.17671942005703     -0.17263524399880
  H   1.21671189739828     -2.07490387642620     -0.13017749888335
  H   1.87451959087785     -0.93636056085540     -1.13601471468607
