16
Coordinates from ORCA-job run
  C   -0.44481067923871      0.24233695672721     -0.32582651972204
  C   0.79980693913499     -0.19996614909116      0.45116442621561
  F   -0.03239612456387      0.82749827938547     -1.48574203337134
  H   0.46063287239134     -0.66677847850141      1.37820153121857
  C   -1.42822310199398     -0.85796737317541     -0.61947363820783
  H   -2.25197877693398     -0.44819668152985     -1.20720074870393
  H   -1.81750815368649     -1.27483367326327      0.30915644954113
  H   -0.92124238313558     -1.63604635289198     -1.18726414884571
  N   -1.14378973191022      1.31268849095239      0.49785690620283
  O   -1.40921120784062      0.97841796882703      1.64969779270021
  O   -1.40374995103865      2.37803431126976     -0.04027419154721
  C   1.60791010712922      0.98595409634723      0.80382508837490
  N   2.29647476600623      1.90414549018203      1.05408333470786
  N   1.50733842611395     -1.18489692591551     -0.34810959234871
  H   2.22881044076496     -1.62846290621264      0.20616197294391
  H   1.95193655880141     -0.73092705310986     -1.13725662915823
