16
Coordinates from ORCA-job run
  C   -0.50773764493663     -0.07863087402888     -0.43910456021965
  C   0.94102096566941     -0.32341399733678     -0.00320902511905
  F   -0.52992833052832     -0.26971793508399     -1.79418316256994
  H   1.16816869076639     -1.34083414624147     -0.36216840805400
  C   -1.54910695090641     -0.94062993497034      0.21961763453678
  H   -2.52162280746567     -0.72657577257905     -0.22741703663456
  H   -1.30886662458602     -1.99142917927374      0.04643912417728
  H   -1.59036540395797     -0.74530552070539      1.28963495803283
  N   -0.82712517948445      1.38667738113040     -0.19306389107270
  O   -0.88079548041807      1.70285317126513      0.98960569182043
  O   -1.00233877079654      2.10799758203617     -1.16225521574921
  C   1.08426927002496     -0.34233145518417      1.45451299169110
  N   1.25462057011647     -0.42109747541036      2.61306341011032
  N   1.77705718454113      0.71887139287438     -0.57853354840306
  H   1.75851722647764      0.64433768284999     -1.58885938338972
  H   2.73423328548408      0.61922908065807     -0.26507957915684
