16
Coordinates from ORCA-job run
  C   -0.49220529119003      0.19096338569106     -0.29381208594710
  C   0.85220070462846     -0.11906296604897      0.37261383572857
  F   -0.24209100540311      0.69495137644173     -1.53525787643235
  H   0.64149880352597     -0.52261224711190      1.36527614003776
  C   -1.43319839348912     -0.97961490889594     -0.38697041741263
  H   -0.94507279858711     -1.77543726893734     -0.94675120757839
  H   -2.33969048790363     -0.66382606482667     -0.90704587514876
  H   -1.69206238243198     -1.33650540978088      0.60957304819713
  N   -1.16060199212659      1.29078049506491      0.51581635061009
  O   -1.50926874558672      2.30731406426034     -0.06461617806469
  O   -1.30492732509068      1.02961760465338      1.70753267625293
  C   1.62253343062749      1.13063597765215      0.54047900086027
  N   2.28312904369463      2.09657624740537      0.64317656920199
  N   1.52910338873182     -1.13065076758542     -0.42008322707498
  H   2.32848687722723     -1.49091686437618      0.08556644764540
  H   1.86216617337338     -0.72221265360564     -1.28549720087525
