16
Coordinates from ORCA-job run
  C   -0.47314098608930     -0.17625768791790     -0.50957409439381
  C   1.04679135382055     -0.19542165143937     -0.22840610804749
  F   -0.70652418513023     -0.97685621609739     -1.59211192255101
  H   1.51974793503128     -0.04772787441815     -1.20519595199667
  C   -1.37453525094104     -0.57148261204706      0.62327370873683
  H   -1.19717440710481      0.03685789665321      1.50842955910775
  H   -1.19351440073728     -1.62134417470835      0.85696147277929
  H   -2.41535171691326     -0.44570075261402      0.32491650869229
  N   -0.75238623317280      1.24901654721793     -0.96870829415207
  O   -0.26311836724355      1.56459279463009     -2.04854255637712
  O   -1.37697382101927      1.98398927873959     -0.20911065698004
  C   1.40318581348620     -1.53553280153644      0.25353433568660
  N   1.65283283426489     -2.60596316277240      0.66511796481051
  N   1.54995909084682      0.81076289599803      0.67762521497302
  H   1.49470848492298      1.73686375658331      0.27635493592924
  H   1.08349385597882      0.79420376372891      1.57443588378269
