16
Coordinates from ORCA-job run
  C   -0.47798708455677      0.19613638772987     -0.31382452081588
  C   0.83870523099715     -0.13438009821813      0.39682356258970
  F   -0.18235806216905      0.62800164770790     -1.57227282423506
  H   0.59072173687798     -0.47894324412132      1.40295530883490
  C   -1.46405639624315     -0.93921148330895     -0.37096804797539
  H   -2.34575537565033     -0.61421634516400     -0.92672300593592
  H   -1.75814113006854     -1.23503341113781      0.63570505588996
  H   -0.99722508302374     -1.78089895210725     -0.87932641760819
  N   -1.11675264853167      1.36034410953074      0.42672336462178
  O   -1.29673529229405      1.16379007215617      1.62601002570470
  O   -1.41047225674683      2.36073138579383     -0.20952692394833
  C   1.65662542348116      1.08987705101947      0.52034710966855
  N   2.35478856225175      2.03203436550601      0.59033420519457
  N   1.48919084351743     -1.21064514136773     -0.32983794481556
  H   2.26338479178387     -1.57649645067248      0.20984734691295
  H   1.85506674037477     -0.86008989334631     -1.20726629408278
