16
Coordinates from ORCA-job run
  C   -0.50416187947394      0.16687235872580     -0.28977354766861
  C   0.86976133081624     -0.09119906084876      0.33711149864224
  F   -0.31307882647901      0.53832624764197     -1.58741565814405
  H   0.70677025899121     -0.38152227468779      1.37725437844947
  C   -1.45865873475906     -0.99398416565689     -0.21600114473808
  H   -1.67055980932298     -1.24341490322437      0.82335742554884
  H   -2.38712534678254     -0.72067586719472     -0.72103021151188
  H   -1.00596990999270     -1.84964870889157     -0.71361649957729
  N   -1.12105163066387      1.35278751448038      0.43521512488460
  O   -1.21079511541556      1.21522802630703      1.65267696825274
  O   -1.48595905008262      2.31131315866730     -0.22815714473149
  C   1.65985344337986      1.15743562141277      0.33328346266269
  N   2.32756621188845      2.12390074548474      0.34072257336049
  N   1.49432488300193     -1.19289206461808     -0.37406010421459
  H   1.78347406402071     -0.88674318348282     -1.29561378693627
  H   2.31661011087388     -1.50778344411498      0.12504666572117
