16
Coordinates from ORCA-job run
  C   -0.40720929674935      0.25241556804595     -0.27528575010854
  C   0.91621165821618     -0.12365814411602      0.42276648489862
  F   -0.11137942857450      0.79857655327836     -1.48764939487972
  H   0.66512944357283     -0.51438298582935      1.41241463146706
  C   -1.37848547190727     -0.88564389970360     -0.45223172999603
  H   -1.64044740348809     -1.32202904053328      0.51096909882700
  H   -0.93417535677079     -1.64325615776268     -1.09783924621726
  H   -2.28252838612974     -0.51185304484446     -0.93634620035837
  N   -1.07796625205741      1.32728655169225      0.56193403002181
  O   -1.31965737073365      2.40546494855684      0.04175263623104
  O   -1.32239026887411      0.98758564928395      1.71746049661848
  C   1.70907868458480      1.10145979562683      0.61139064112459
  N   2.33001938214389      2.08819341637189      0.74566218340339
  N   1.71185609353117     -1.10384840803839     -0.28405054582617
  H   1.84987034260181     -0.83221060162065     -1.24926917470212
  H   1.29207363063423     -2.02210020040763     -0.24167816050378
