16
Coordinates from ORCA-job run
  C   -0.50560337149697     -0.06859871920750     -0.44325916903442
  C   0.93625364052245     -0.33704953518122      0.00181164259609
  F   -0.52051534579016     -0.25153785334127     -1.79961388046905
  H   1.15099281721565     -1.35562243028356     -0.36160168874448
  C   -1.56457605016582     -0.91874803848166      0.20261285895921
  H   -1.33907288832712     -1.97201131937567      0.02465196982569
  H   -1.61070223989340     -0.72935032505671      1.27349143327481
  H   -2.53042807900179     -0.68715818436585     -0.25009222383021
  N   -0.80517021899068      1.39977197599517     -0.19100453291856
  O   -0.96193431909906      2.12942428839093     -1.15713198122040
  O   -0.86319630414150      1.70984766924134      0.99310400024994
  C   1.06784604329484     -0.36733270467683      1.46046994223950
  N   1.22854457746483     -0.45554146949543      2.61973076711658
  N   1.79157055751175      0.69621517067454     -0.56089874857512
  H   1.77900488366867      0.62800801345384     -1.57177355630431
  H   2.74498629722831      0.58068346170987     -0.24149683316528
