16
Coordinates from ORCA-job run
  C   -0.48215805137362     -0.02183391874391     -0.37915065547663
  C   0.97741695839263     -0.39158949629602     -0.01805391364466
  F   -0.56176217432961      0.02313737272403     -1.75114444823626
  H   1.03950836636797     -1.47082526017398     -0.20379699870327
  C   -1.50367364395299     -0.97771551805533      0.16528092261681
  H   -2.49952840358540     -0.68663884418835     -0.16275819848955
  H   -1.48182377271385     -0.98762401962789      1.25557563966586
  H   -1.27814587110416     -1.97708269251373     -0.21113363421599
  N   -0.79613958232611      1.40473403912629      0.07015190287856
  O   -1.93408918470927      1.64316923148908      0.45949104361120
  O   0.11029292101987      2.22769244942626     -0.04089326150496
  C   1.15926152541686     -0.19333417370661      1.42546961664026
  N   1.26295171007150     -0.03313094048851      2.58363140154898
  N   2.04708380920081      0.22896059671393     -0.76559517318066
  H   1.96207893407476     -0.02399043908576     -1.74190638113480
  H   1.97972645955061      1.23507161340049     -0.68816786237490
