16
Coordinates from ORCA-job run
  C   -0.53016734640708     -0.07961852633158     -0.49953295192237
  C   0.92534151966855     -0.39031498935560     -0.12144134178664
  F   -0.66491280980248     -0.31641958845896     -1.83161179557994
  H   1.11952196545232     -1.35172258565638     -0.61054781147496
  C   -1.58382897132130     -0.83977768433518      0.26404404782151
  H   -1.56248405588307     -0.58240283477057      1.32279318503886
  H   -2.56102113505152     -0.59595328707000     -0.15620629641259
  H   -1.40962350312806     -1.91168616767716      0.15062479199359
  N   -0.78059805503936      1.40437871421558     -0.29190860144848
  O   -0.29012202576771      1.88388017219978      0.72816397962074
  O   -1.48259906161566      1.97952175945344     -1.10869285946926
  C   1.08822489161501     -0.60022346370747      1.32862038710297
  N   1.27168393418299     -0.78535234499720      2.47404485104861
  N   1.81606654864238      0.59679785556493     -0.70166592306850
  H   1.91534606514942      1.39111277242573     -0.08165880761871
  H   2.73017203930557      0.19778019850064     -0.86502485384483
