16
Coordinates from ORCA-job run
  C   -0.58785132712752     -0.10650184290134     -0.43092987411580
  C   0.90886784556310     -0.38321308356265     -0.22373405399161
  F   -0.88023962642563     -0.39448278945226     -1.72682753972876
  H   1.06336979913643     -1.35032187546395     -0.71496047539647
  C   -1.52694061355061     -0.84884770597509      0.48440804985539
  H   -2.55270850704275     -0.63133164332650      0.18162786694420
  H   -1.35282334841727     -1.92253299366323      0.38850137421703
  H   -1.37722750958165     -0.55167364367677      1.52200552089215
  N   -0.82924999702460      1.38201268759970     -0.24686251026751
  O   -1.58065225652409      1.94046430900179     -1.02964295365097
  O   -0.26789465636627      1.88337362328923      0.72518502191399
  C   1.24982190985762     -0.55831720659530      1.19924818534100
  N   1.57701812736824     -0.70943891793727      2.31724582143570
  N   1.70238459445777      0.60799885370730     -0.92540961403624
  H   1.85347401380460      1.41922190518583     -0.33867205946225
  H   2.60165155187260      0.22459032377050     -1.18318275994985
