16
Coordinates from ORCA-job run
  C   -0.49617538925687      0.19192844648588     -0.28023181626023
  C   0.86116359435879     -0.11838368599917      0.36004814013674
  F   -0.26950123858781      0.74775813526736     -1.50365260789026
  H   0.66815083957278     -0.56313736492836      1.33855533854605
  C   -1.41599916856826     -0.99230315573079     -0.40868943055470
  H   -0.91969146670425     -1.75629049682170     -1.00432245485181
  H   -2.33428629096106     -0.67400142120035     -0.90602876769807
  H   -1.65674347205447     -1.39243630294661      0.57585793835476
  N   -1.17701965492846      1.24609672253263      0.57821451495661
  O   -1.30084757592360      0.93711172905785      1.76078883054068
  O   -1.55402979760197      2.27605571265892      0.04078185721019
  C   1.60741693218501      1.13993384554938      0.56557015528421
  N   2.21835741063045      2.13619803107227      0.68509770500881
  N   1.54694771574403     -1.08702180950201     -0.47770294332474
  H   1.86370029424504     -0.63980182591344     -1.32995356968336
  H   2.35755726785067     -1.45270655958187      0.00566711022511
