16
Coordinates from ORCA-job run
  C   -0.50789152531106     -0.07456763607875     -0.44228490239511
  C   0.93755989264983     -0.33135892423548     -0.00194453293210
  F   -0.52611104418769     -0.25766789213501     -1.79841015211705
  H   1.15910263862736     -1.34802926761007     -0.36646366449828
  C   -1.55724189956877     -0.93319190729454      0.20800037600070
  H   -1.60150546658836     -0.74202873456686      1.27867451151432
  H   -2.52675662986763     -0.71107063424783     -0.24159212896383
  H   -1.32310286708025     -1.98480282143202      0.03147611715369
  N   -0.81849491203040      1.39146815575970     -0.18921420540509
  O   -0.98386759843784      2.11965161258610     -1.15499998967628
  O   -0.87741430841709      1.70137297647921      0.99488692635139
  C   1.07535388988786     -0.35837590974675      1.45625327803181
  N   1.25659465471474     -0.41966530575075      2.61422429266450
  N   1.78310756193951      0.70896660855644     -0.56657465870213
  H   2.73672550066717      0.60519299296975     -0.24381769735922
  H   1.77394211300260      0.63710668674686     -1.57721356966731
