16
Coordinates from ORCA-job run
  C   -0.42141294931867      0.23083966654171     -0.27208253881680
  C   0.93757486869960     -0.09151223715880      0.38298308313993
  F   -0.19063872214670      0.68088378774507     -1.53705309387819
  H   0.74000354955625     -0.40361880023739      1.41194677520995
  C   -1.39721909775056     -0.91658422280557     -0.30957872712605
  H   -0.98787759717699     -1.71906127743161     -0.92354565866760
  H   -2.32908705251490     -0.57823602308868     -0.76627184364655
  H   -1.60171122043458     -1.28216770748618      0.69624769269212
  N   -1.05146176278640      1.36774779757881      0.51273674872776
  O   -1.32229937477876      2.40300599525687     -0.07589498345885
  O   -1.23596688150955      1.11790589198255      1.70190796108573
  C   1.73597398947233      1.14335329314903      0.43422209082011
  N   2.36059533704573      2.13654060335047      0.46029988312055
  N   1.69755838043849     -1.12522241893539     -0.28615664869114
  H   1.78710218774728     -0.92717100332652     -1.27476879048158
  H   1.27886634545741     -2.03570334513439     -0.15499195002937
