16
Coordinates from ORCA-job run
  C   -0.59006151904598     -0.10764802254957     -0.42769532254306
  C   0.90493545760672     -0.39446432454921     -0.22079336019532
  F   -0.88940226972239     -0.41384194285950     -1.71784463114658
  H   1.04928898065335     -1.37020695852190     -0.69792533335149
  C   -1.53232970620906     -0.82754039543519      0.50233604900084
  H   -1.37644101152722     -0.51624898806875      1.53479694661954
  H   -1.36735393990766     -1.90389304820898      0.42170086077374
  H   -2.55738998234477     -0.60599951157686      0.20013088003365
  N   -0.81820186505995      1.38514003870543     -0.26646695558320
  O   -0.24893803160529      1.89681343830114      0.69558172463587
  O   -1.56797921657136      1.93758261483070     -1.05502468725666
  C   1.24872129714329     -0.55190356660351      1.20374873112599
  N   1.57708327969118     -0.69126231048030      2.32289861438804
  N   1.70497216253118      0.57877868365410     -0.94001138259518
  H   1.86086352633559      1.39939752235231     -0.36783185170897
  H   2.60223283803236      0.18529677101009     -1.18960028219722
