16
Coordinates from ORCA-job run
  C   -0.43308806414798     -0.22028981720394     -0.52148789266932
  C   1.07669104071237     -0.13812345307018     -0.16352221941919
  F   -0.57604101525540     -1.20572317445044     -1.44843886204010
  H   1.59460027741880      0.05712735094915     -1.11136911554825
  C   -1.37486288183420     -0.44544371004711      0.62808829521110
  H   -1.31455807931200      0.36634285728661      1.34953913995027
  H   -1.12536034503530     -1.39318503317320      1.10843865404932
  H   -2.39670592336832     -0.50417537426083      0.24933279164606
  N   -0.77188750354902      1.08676689119205     -1.22270210605207
  O   -0.85265741441446      1.07787359296676     -2.44269309447642
  O   -0.88984744324952      2.06678560874810     -0.48797551548029
  C   1.48088044623500     -1.47346019983289      0.29439722311407
  N   1.77292406783202     -2.53434059780757      0.70229509612226
  N   1.49452557850838      0.84590847157733      0.80869565307920
  H   1.11446516477258      0.64085182180820      1.72384540057923
  H   1.20092209468707      1.77408476531796      0.53255655193413
