16
Coordinates from ORCA-job run
  C   -0.57590638858357     -0.17506724132617     -0.44838261360932
  C   0.94961988383154     -0.19097231389190     -0.32207187848932
  F   -0.93485034593256     -1.11809874440860     -1.37502339714547
  H   1.32979372131404     -0.03850639833081     -1.33546533941321
  C   -1.33789701511118     -0.38311324029521      0.82556878587128
  H   -1.08529566812255     -1.36628293031254      1.22669153511943
  H   -2.40732510249027     -0.34402910160415      0.62262477221635
  H   -1.09880636293815      0.39278319049949      1.55092941633414
  N   -0.91369354324994      1.17135103672529     -1.08571432204651
  O   -0.36150118228755      1.39811910191852     -2.15691000445571
  O   -1.70576941979570      1.90427322680597     -0.50643333685597
  C   1.38453753767251     -1.51593641334707      0.14881609629406
  N   1.72275112661013     -2.55098837336225      0.58951314309641
  N   1.36621061855461      0.92299500978335      0.51112689468504
  H   1.36742616069298      0.66874845631800      1.49089558792977
  H   2.29870597983563      1.22472473482808      0.26283466046901
