16
Coordinates from ORCA-job run
  C   -0.51913134324927     -0.15898836048699     -0.52006526206943
  C   0.98514528938795     -0.08406002450092     -0.24768139714585
  F   -0.71657885074803     -1.00437862777172     -1.57973247786532
  H   1.44054904637917      0.21492267527186     -1.19532269866908
  C   -1.37219265935473     -0.57384985753619      0.64064110315678
  H   -1.26567714909052      0.12486023678472      1.46878934029939
  H   -1.07535447674806     -1.57708845696416      0.95181397720985
  H   -2.41841613558406     -0.58911035544549      0.33772803697275
  N   -0.90653249987006      1.22855789165630     -1.02809902064860
  O   -1.80295199230948      1.82863908956834     -0.44814993781167
  O   -0.28282169348674      1.62055902477901     -2.00838421188819
  C   1.48426378629343     -1.42193682756649      0.10988352571986
  N   1.88791303068654     -2.46721448319954      0.46268046507480
  N   1.23549210264648      0.94702685163412      0.74353593803001
  H   2.16134995171596      1.33629899095062      0.62698713112111
  H   1.16494359333142      0.57776223282650      1.68337548851359
