16
Coordinates from ORCA-job run
  C   -0.54073770749482     -0.14964317740722     -0.46064643809576
  C   0.98285401119540     -0.20275143983957     -0.22684238090284
  F   -0.85117506686814     -1.10404697212196     -1.38067916342235
  H   1.45858855341478      0.09862709507592     -1.17419481905359
  C   -1.38802837809454     -0.30364530341194      0.77110875688338
  H   -1.18378381107822      0.49802202794196      1.47745740427546
  H   -1.15316888832463     -1.25901129517300      1.24305406174372
  H   -2.43916206406610     -0.29766072471130      0.47639013266096
  N   -0.88017019667878      1.18457914639936     -1.11889280911354
  O   -1.67867222312153      1.17238025745147     -2.04257116946935
  O   -0.34555946305423      2.17858453325772     -0.63005779893653
  C   1.33980505382055     -1.60708407100478      0.01161382283439
  N   1.65553366745002     -2.71653925658676      0.22654719145018
  N   1.37949047719740      0.57932266979516      0.93524337415827
  H   1.30718923819331      1.56331105034371      0.71123733802697
  H   2.33799679750951      0.36555545999123      1.18123249696063
