16
Coordinates from ORCA-job run
  C   -0.46455673210759     -0.11098958208185     -0.45685105844810
  C   0.96876538000172     -0.44535306227803      0.00982292313847
  F   -0.48771896336866     -0.35536260018654     -1.80137701392640
  H   1.14273644205277     -1.45706777814345     -0.37775060365213
  C   -1.58262061986204     -0.85018778899177      0.22485163286411
  H   -2.52800444450463     -0.59466421076601     -0.25768284230152
  H   -1.41708915134721     -1.92452572806301      0.12142622625692
  H   -1.62774164030649     -0.59083382799040      1.28126907498901
  N   -0.66265722268484      1.38294873277404     -0.28401076872228
  O   -0.82085672466575      2.06952465005076     -1.28356339245217
  O   -0.61195340108400      1.77388942464894      0.87900293598364
  C   1.06185102059243     -0.52043525666379      1.47046205675460
  N   1.14397570831051     -0.61661712519235      2.63714097917648
  N   2.00521989443450      0.41589485316027     -0.51922540556329
  H   1.95374372050041      1.34379828927963     -0.11688550711458
  H   1.92590673403886      0.48098101044355     -1.52662923698278
