16
Coordinates from ORCA-job run
  C   -0.47873232649411     -0.18040945606705     -0.49631137243911
  C   1.04910576358729     -0.23792411019772     -0.21878001159452
  F   -0.76140601480837     -1.15137579782736     -1.40618100274041
  H   1.53206208213937     -0.09456748481481     -1.19400855228006
  C   -1.37464257121598     -0.31287098369383      0.70323083452795
  H   -2.41635620698601     -0.27793874130453      0.37968299942036
  H   -1.18861228351085     -1.27781087268447      1.17808328771467
  H   -1.20071678427800      0.49261239861635      1.41327355466346
  N   -0.73203525639917      1.15002127523364     -1.18942359501372
  O   -0.88197117362125      1.14448190753031     -2.40282333473876
  O   -0.71565274687208      2.13942626178847     -0.45800473675278
  C   1.35106084959956     -1.60408758602947      0.22729612561903
  N   1.56494322609337     -2.68694365140691      0.62588416333423
  N   1.60768753354430      0.70513703234539      0.72282481576809
  H   1.26018447507342      0.53743680922834      1.65841194386272
  H   1.38508143414852      1.65581299928362      0.45684488064885
