16
Coordinates from ORCA-job run
  C   -0.47650136052388     -0.11676703441092     -0.44308897616978
  C   0.97198282768126     -0.43885770027389     -0.01592299415190
  F   -0.53560163802071     -0.36587773386511     -1.78561911594181
  H   1.14263229214449     -1.45058454030814     -0.40495806912634
  C   -1.56975726922214     -0.86151320708049      0.27179169418597
  H   -1.40184109265837     -1.93505040349456      0.16216249815490
  H   -2.53057948602145     -0.61050901229402     -0.18192190060764
  H   -1.58402470245594     -0.60340871660474      1.32954773230041
  N   -0.68060067648971      1.37646940358630     -0.26993171090741
  O   -0.87712874160088      2.05713006869065     -1.26661487096949
  O   -0.59286220098954      1.77315445724830      0.88880315761773
  C   1.10707000814631     -0.50708014215443      1.44176298797828
  N   1.22435582777443     -0.59376919100271      2.60623642410012
  N   1.98617529218181      0.42848428130975     -0.57685061817016
  H   1.87642955944352      0.49177213833276     -1.58141763538847
  H   1.94125136061081      1.35640733232123     -0.17397860290441
