16
Coordinates from ORCA-job run
  C   -0.55238525959023     -0.12823246700776     -0.49014272678067
  C   0.96606263219982     -0.14625748975827     -0.29752246946593
  F   -0.85821475133624     -0.96383583241842     -1.53169288075830
  H   1.38889411350822      0.11988176152288     -1.26970387159932
  C   -1.36744394418184     -0.48350780362590      0.71666545185553
  H   -1.17356890688625      0.21056319330521      1.53274212079921
  H   -1.11849483553634     -1.50224529159643      1.01910608871047
  H   -2.42701946228779     -0.43379969731582      0.46906123273092
  N   -0.87869411981968      1.27877552868163     -0.98780096051362
  O   -0.28259991812707      1.62778133980057     -2.00099436151848
  O   -1.70685042775942      1.93506873443075     -0.36862923601971
  C   1.39640869856782     -1.51186325705599      0.04348999402969
  N   1.71924070245570     -2.59135229522931      0.37581246309434
  N   1.33124103886130      0.87225067361360      0.67117238016458
  H   1.29067336059605      0.51175727182396      1.61618202961357
  H   2.27075107933595      1.20501563082930      0.50125474565772
