16
Coordinates from ORCA-job run
  C   -0.44070843404746      0.23364793581946     -0.23739569549428
  C   0.95662242587743     -0.08536225963718      0.33352378348843
  F   -0.28332067785996      0.76969071994569     -1.47992821208143
  H   0.81667495978094     -0.46876589294369      1.34774745061360
  C   -1.38310068157920     -0.93989667454748     -0.30447019528101
  H   -2.34344811229143     -0.60487741996177     -0.70052734686768
  H   -0.97778007752638     -1.69095577477819     -0.98270316792163
  H   -1.53301288866664     -1.37142405466672      0.68457546556615
  N   -1.06548165318108      1.29822960604944      0.64713352522356
  O   -1.39414066415191      2.35916511730850      0.13910859275644
  O   -1.18540073736333      0.96830926207627      1.82503241860319
  C   1.72011173137253      1.16861792780270      0.42855284852797
  N   2.31630314341874      2.17755956573696      0.49073048875091
  N   1.71501238811930     -1.04937603968991     -0.43470381951575
  H   1.32881336388099     -1.97912515463304     -0.34545400392568
  H   1.75185591421745     -0.78543686388102     -1.41122213244278
