16
Coordinates from ORCA-job run
  C   -0.45635366317841     -0.18861071814210     -0.52137940008309
  C   1.05216048397996     -0.21985150314240     -0.17805619853447
  F   -0.65964138446045     -1.04635458215071     -1.56411944271173
  H   1.56588521753867     -0.11404364147047     -1.14014580440674
  C   -1.41002187843248     -0.50280684978950      0.59439462932531
  H   -1.25650129966755      0.15250915355172      1.44953726526088
  H   -1.26068881372120     -1.54121036774410      0.89324472311971
  H   -2.43527208132174     -0.37662048790726      0.24540682399835
  N   -0.68937744330229      1.21283700870613     -1.06785772667061
  O   -0.25079053998088      1.43197404182028     -2.19169719003365
  O   -1.22344017813577      2.02888625576897     -0.32069421302106
  C   1.36397907459050     -1.54995005821528      0.35935025868446
  N   1.57859547058323     -2.61046199528445      0.81408066091659
  N   1.54013311189603      0.80248882234782      0.71764623394277
  H   1.05659789787085      0.79807825237859      1.60522451211029
  H   1.48573602574153      1.72313666927275      0.30406486810299
