16
Coordinates from ORCA-job run
  C   -0.50844918720906     -0.21434196023323     -0.45241156893481
  C   1.02752199040512     -0.30422536932946     -0.23493726791063
  F   -0.86948421433617     -1.26912647589339     -1.23183776657136
  H   1.47003862139515     -0.28619790370334     -1.23927902979129
  C   -1.35121799989568     -0.17249115651160      0.79144135277633
  H   -1.11550539658216      0.70084956441889      1.39556825231208
  H   -2.40504244660047     -0.13173829910762      0.51048238567744
  H   -1.17786920966010     -1.08375558493484      1.36665578903923
  N   -0.74524002060517      1.03868708197270     -1.28198959505444
  O   -0.96060251694352      0.90261973837180     -2.47775571583721
  O   -0.65006406961723      2.10290547241115     -0.67153186564968
  C   1.30119590465245     -1.62558885809312      0.34437213993606
  N   1.50562697189903     -2.66240324885843      0.85462410652573
  N   1.66275219756728      0.71066369165339      0.57410895167627
  H   1.35416318066422      0.65765539727322      1.53636078907871
  H   1.46117619486628      1.63548791056388      0.21612904272756
