16
Coordinates from ORCA-job run
  C   -0.46888216322763     -0.10265682142094     -0.45424492024251
  C   0.97271971363599     -0.43692738202577     -0.01514665910424
  F   -0.50725829402741     -0.30911803089403     -1.80465914636083
  H   1.15004942495337     -1.43618787431297     -0.43240402932255
  C   -1.57159079418698     -0.87077593110013      0.22085540190713
  H   -1.60495756893119     -0.64096556569636      1.28453922966638
  H   -1.39799019343976     -1.94024404501885      0.08575479584011
  H   -2.52543583246578     -0.61060284821436     -0.24198436495497
  N   -0.67966431627266      1.38422297892998     -0.23688749400525
  O   -0.86163642046521      2.09575182854014     -1.21466700684445
  O   -0.61548826981431      1.74343589869034      0.93559400642609
  C   1.08556393212366     -0.55016680940782      1.44167233078939
  N   1.18395004397946     -0.67601227221113      2.60428594290908
  N   1.99524483124886      0.44712247501759     -0.53378957456622
  H   1.94322000842051      1.36210724715315     -0.10342924763869
  H   1.90115589846908      0.54101715197117     -1.53748926449847
