16
Coordinates from ORCA-job run
  C   -0.48353192801374     -0.22765360907965     -0.48042207591212
  C   1.03424104561081     -0.27842754035112     -0.19152490132642
  F   -0.75779936897932     -1.17080277622328     -1.43055741028278
  H   1.51117853918733     -0.30049237231140     -1.17723236362883
  C   -1.40042183187773     -0.40234049264886      0.69457520120211
  H   -2.43474806609235     -0.27317211311247      0.37584164326159
  H   -1.26990289663649     -1.41211244888538      1.08570918780886
  H   -1.19139168972843      0.32433356232494      1.47769806872622
  N   -0.69413450362732      1.12313717263868     -1.15191966727726
  O   -1.28194914765398      1.99406986994165     -0.51685516838297
  O   -0.19337544520433      1.24683896570784     -2.26501256832713
  C   1.32673957052538     -1.54712413025647      0.48652069709643
  N   1.54820784492701     -2.54618955672808      1.06130553763394
  N   1.58799717680385      0.82522110264452      0.55779802521730
  H   1.12800028204810      0.95984175385993      1.44790756088428
  H   1.57089041871120      1.68487261247917      0.02616823330678
