16
Coordinates from ORCA-job run
  C   -0.47238243117217     -0.11318552121972     -0.44910729316412
  C   0.97290117203547     -0.43505980735486     -0.01091748453076
  F   -0.51880369519290     -0.35194464093636     -1.79386342975746
  H   1.14978128237914     -1.44279554078654     -0.40761160347632
  C   -1.56930778606425     -0.86648826111671      0.25130418103070
  H   -1.39208394710493     -1.93870159952363      0.14535222285159
  H   -2.52622010638107     -0.62270118994445     -0.21419586403827
  H   -1.59877648602371     -0.60775736660499      1.30843816943796
  N   -0.68086044676314      1.37825239816726     -0.26578099323818
  O   -0.85659681251282      2.06862935135878     -1.25994224541820
  O   -0.61437393195597      1.76456856686335      0.89802992440489
  C   1.09267302298929     -0.51937358640925      1.44736150562192
  N   1.19411661771150     -0.62627513676536      2.61155422271359
  N   1.99060244076823      0.43934362774143     -0.55374158185257
  H   1.89257675376428      0.50882815728252     -1.55917260578122
  H   1.93775435352303      1.36466054924853     -0.14570712480356
