15

C	0.0	0.0	0.0
C	-0.57381	-0.154006	-1.414093
Br	1.95028	0.0	0.0
H	-1.634187	-0.365422	-1.228652
H	-0.325183	0.947669	0.429058
C	-0.39206	-1.105957	0.872536
N	-0.601539	-2.036162	1.55861
C	0.05025	-1.291974	-2.20026
H	-0.543479	-1.473818	-3.100936
H	1.073695	-1.050671	-2.497755
H	0.062429	-2.21487	-1.615983
N	-0.397882	1.125148	-2.108473
H	-0.430478	0.960064	-3.107845
H	-1.206112	1.698669	-1.884744
Cl	-3.591318	0.0	0.0
