15

C	0.0	0.0	0.0
C	-0.554225	0.036185	-1.455418
Br	1.947644	0.0	0.0
H	0.296434	-0.136303	-2.121083
H	-0.300946	0.887507	0.558519
C	-0.390249	-1.186286	0.759632
N	-0.607104	-2.121498	1.436291
C	-1.132951	1.425621	-1.732909
H	-1.459137	1.481454	-2.775621
H	-0.390792	2.21473	-1.564264
H	-2.009556	1.585209	-1.10159
N	-1.46886	-1.076828	-1.650423
H	-1.703769	-1.128092	-2.63551
H	-2.343524	-0.88657	-1.148471
Cl	-4.079615	0.0	0.0
