12

C	-0.419134	-0.047302	-1.447542
C	0.0	0.0	0.0
Br	-2.346457	-0.194224	-1.699868
H	1.09353	0.0	0.0
H	0.029942	-0.90289	-1.946343
H	-0.297151	-0.953177	0.449466
N	0.034185	1.151571	-2.239
O	-0.002679	2.243917	-1.688238
O	0.376736	0.927439	-3.396395
C	-0.578658	1.073535	0.794203
N	-1.069746	1.87894	1.492617
Cl	3.260433	0.0	0.0
