12

C	-0.597399	0.006665	-1.394238
C	0.0	0.0	0.0
Br	0.229803	1.311593	-2.552355
H	1.091195	0.0	0.0
H	-1.664234	0.219892	-1.408415
H	-0.318051	-0.912042	0.516859
N	-0.4758	-1.345034	-2.047767
O	-1.322175	-1.59625	-2.905484
O	0.433601	-2.082362	-1.685875
C	-0.512506	1.152707	0.732916
N	-0.966783	2.069147	1.309203
Cl	3.308157	0.0	0.0
