12

C	0.0	0.0	0.0
C	-0.434443	-0.177276	-1.465498
F	1.383797	0.0	0.0
H	0.023824	0.65715	-2.009273
H	-0.358303	0.941517	0.42187
H	0.065298	-1.088728	-1.810767
C	-0.42853	-1.131499	0.836932
N	-0.650709	-2.096555	1.468333
N	-1.835377	-0.25141	-1.770206
H	-2.300308	-1.017106	-1.297389
H	-2.353972	0.563819	-1.461774
Cl	-4.516799	0.0	0.0
