12

C	0.0	0.0	0.0
C	-0.434681	-0.227219	-1.433339
F	1.390422	0.0	0.0
H	-0.133564	0.668323	-2.001222
H	-0.369592	0.947481	0.393213
H	-1.523618	-0.293731	-1.431199
C	-0.416396	-1.11197	0.873017
N	-0.663978	-2.020574	1.57167
N	0.170496	-1.463442	-1.916065
H	1.141096	-1.309576	-2.15255
H	-0.316328	-1.789014	-2.738432
Cl	-3.505342	0.0	0.0
