12

C	0.0	0.0	0.0
C	-0.446726	-0.266604	-1.447981
F	1.383721	0.0	0.0
H	-0.02892	0.553891	-2.042108
H	-0.356581	0.965827	0.365695
H	0.077556	-1.179801	-1.750806
C	-0.433051	-1.075113	0.908094
N	-0.649419	-2.006845	1.588107
N	-1.849169	-0.402169	-1.72398
H	-2.39355	0.410664	-1.460641
H	-2.2835	-1.149894	-1.1958
Cl	-4.537937	0.0	0.0
