12

C	0.0	0.0	0.0
C	-0.413889	-0.179683	-1.457643
F	1.388823	0.0	0.0
H	-1.487706	-0.034168	-1.534293
H	-0.365437	0.936743	0.421596
H	0.103394	0.612739	-2.011188
C	-0.381948	-1.138635	0.854817
N	-0.494123	-2.086588	1.537451
N	-0.046634	-1.475025	-2.02005
H	-0.706511	-2.165762	-1.68442
H	0.870438	-1.743464	-1.685533
Cl	-3.38935	0.0	0.0
