15

C	0.0	0.0	0.0
C	-0.548694	0.093788	-1.441657
Br	1.917795	0.0	0.0
H	0.09517	-0.566283	-2.02812
H	-0.35167	1.120062	-1.764808
N	-0.476264	1.131796	0.901105
O	-1.362508	1.841995	0.443547
O	0.053943	1.230646	1.998955
N	-0.482508	-1.304904	0.622403
O	-0.144253	-2.310127	0.012655
O	-1.188874	-1.242565	1.617023
N	-1.909088	-0.259815	-1.664788
H	-2.073996	-1.248788	-1.54491
H	-2.615653	0.22617	-1.111328
Cl	-4.634393	0.0	0.0
