15

C	0.0	0.0	0.0
C	-0.6479	-0.073283	-1.36397
Br	1.909361	0.0	0.0
H	-1.731471	-0.021768	-1.165337
H	-0.341783	0.829592	-1.893463
N	-0.460702	1.289136	0.694824
O	-0.303478	2.298358	0.019112
O	-0.912033	1.2235	1.824449
N	-0.408093	-1.191339	0.87987
O	-1.199615	-1.983055	0.384439
O	0.102326	-1.267307	1.989426
N	-0.218613	-1.265222	-2.084958
H	-0.928018	-1.976562	-1.962981
H	-0.159875	-1.047881	-3.070385
Cl	-3.817482	0.0	0.0
