15

C	0.0	0.0	0.0
C	-0.637279	-0.15088	-1.425244
Br	1.914609	0.0	0.0
H	-1.220948	-1.070014	-1.373723
H	0.198968	-0.29915	-2.112868
N	-0.448795	1.32395	0.619666
O	-1.323843	1.292043	1.4679
O	0.071747	2.319912	0.1285
N	-0.377949	-1.126483	0.981831
O	-0.06947	-0.945558	2.15124
O	-0.874496	-2.136918	0.506092
N	-1.502454	0.887151	-1.894049
H	-1.086256	1.803883	-1.816159
H	-2.391726	0.837769	-1.389045
Cl	-3.932565	0.0	0.0
