12

C	0.0	0.0	0.0
C	-0.546965	-0.048767	-1.411939
Br	1.941188	0.0	0.0
H	-0.282308	-0.985321	-1.898827
H	-0.331523	-0.910267	0.501377
H	-1.644783	0.044937	-1.318104
C	-0.415856	1.147892	0.804688
N	-0.611155	2.054364	1.525304
N	-0.048862	1.035229	-2.290707
O	0.173572	2.134543	-1.789265
O	0.061441	0.764912	-3.485926
Cl	-3.405665	0.0	0.0
