12

C	0.0	0.0	0.0
C	-0.520813	-0.155809	-1.416039
Br	1.951656	0.0	0.0
H	-0.247596	-1.12842	-1.820677
H	-0.3366	-0.867067	0.568923
H	-1.616362	-0.039378	-1.361812
C	-0.404713	1.213805	0.708813
N	-0.576787	2.178825	1.356128
N	0.02837	0.852881	-2.355103
O	0.353092	0.455271	-3.475446
O	0.096314	2.016913	-1.970221
Cl	-3.368522	0.0	0.0
