12

C	0.0	0.0	0.0
C	-0.536494	-0.195253	-1.402092
Br	1.938836	0.0	0.0
H	-0.161429	0.545971	-2.104995
H	-0.335755	-0.813958	0.640407
H	-1.638233	-0.173998	-1.320712
C	-0.415071	1.289515	0.54546
N	-0.605174	2.35921	0.991193
N	-0.157563	-1.528387	-1.933737
O	0.023461	-1.61396	-3.147325
O	-0.106702	-2.467054	-1.142888
Cl	-3.395841	0.0	0.0
