16

C	-0.486384	-0.033496	-1.43763
C	0.0	0.0	0.0
F	-1.887829	-0.096838	-1.450933
H	1.089416	0.0	0.0
N	-0.210527	1.311464	-2.128495
O	0.526981	2.119325	-1.579666
O	-0.718929	1.428777	-3.240307
N	0.113691	-0.989532	-2.249022
H	-0.401045	-1.090187	-3.112809
H	0.227789	-1.856507	-1.741099
N	-0.30293	-1.214143	0.723656
O	-0.531313	-1.128099	1.941821
O	-0.095669	-2.299147	0.139382
C	-0.52892	1.139272	0.719322
N	-0.940381	2.078625	1.294667
H	2.334613	0.0	0.0
