16

C	-0.520116	0.017362	-1.421484
C	0.0	0.0	0.0
F	0.058933	1.07197	-2.080065
H	1.090181	0.0	0.0
N	0.04575	-1.202524	-2.209771
O	1.012025	-1.800524	-1.764579
O	-0.509605	-1.417238	-3.28958
N	-1.914963	0.123261	-1.548946
H	-2.165134	-0.000212	-2.524151
H	-2.334983	-0.617424	-0.999012
N	-0.438196	-1.142892	0.742981
O	-1.052891	-2.058985	0.144713
O	-0.066202	-1.204335	1.929193
C	-0.354795	1.221922	0.6894
N	-0.629108	2.20806	1.26711
H	2.321511	0.0	0.0
