16

C	-0.546349	-0.011937	-1.413676
C	0.0	0.0	0.0
F	-0.057191	1.090044	-2.068488
H	1.090017	0.0	0.0
N	0.083052	-1.177226	-2.230969
O	-0.439719	-1.359443	-3.332398
O	1.047181	-1.775868	-1.783609
N	-1.946179	-0.008683	-1.510699
H	-2.297097	-0.786124	-0.96363
H	-2.208527	-0.131908	-2.482575
N	-0.418626	-1.126469	0.777265
O	-0.06956	-1.133482	1.972055
O	-0.972144	-2.094186	0.194926
C	-0.358001	1.235573	0.664976
N	-0.639452	2.242236	1.203477
H	2.324911	0.0	0.0
