16

C	-0.542987	-0.029268	-1.414263
C	0.0	0.0	0.0
F	-0.069136	1.074375	-2.074975
H	1.090011	0.0	0.0
N	0.104247	-1.191987	-2.223862
O	-0.403611	-1.377709	-3.331959
O	1.066277	-1.785289	-1.762228
N	-1.943626	-0.047601	-1.51527
H	-2.282147	-0.827639	-0.964232
H	-2.198729	-0.184999	-2.48743
N	-0.412774	-1.121554	0.788207
O	-0.951935	-2.100108	0.213707
O	-0.064206	-1.113616	1.98343
C	-0.361704	1.240585	0.653705
N	-0.647246	2.245875	1.192009
H	2.323678	0.0	0.0
