16

C	-0.493948	0.006828	-1.434962
C	0.0	0.0	0.0
F	-1.894663	0.149299	-1.44671
H	1.090027	0.0	0.0
N	-0.039777	1.29333	-2.144811
O	0.656939	2.097622	-1.541432
O	-0.407527	1.386646	-3.312951
N	-0.040661	-1.034601	-2.234165
H	-0.147395	-1.912015	-1.747778
H	-0.498972	-1.002552	-3.133651
N	-0.319276	-1.197378	0.736752
O	-0.334694	-1.104484	1.976463
O	-0.327605	-2.294725	0.134922
C	-0.47822	1.154068	0.734141
N	-0.854325	2.100506	1.321177
H	2.321154	0.0	0.0
