16

C	-0.551181	0.026165	-1.414626
C	0.0	0.0	0.0
F	0.084366	1.093666	-2.054846
H	1.089467	0.0	0.0
N	-0.100979	-1.159059	-2.27123
O	-0.781408	-1.367307	-3.275773
O	0.934708	-1.726745	-1.970774
N	-1.94655	0.107008	-1.48441
H	-2.253694	0.125677	-2.448145
H	-2.273724	0.916384	-0.973921
N	-0.434233	-1.141315	0.777167
O	-0.789273	-2.170883	0.179352
O	-0.279573	-1.050486	2.005791
C	-0.390058	1.226735	0.660953
N	-0.686807	2.268293	1.120781
H	2.372344	0.0	0.0
