16

C	-0.497388	-0.131921	-1.435237
C	0.0	0.0	0.0
F	-0.248162	1.070778	-2.05048
H	1.08799	0.0	0.0
N	0.321223	-1.157339	-2.233123
O	0.588059	-0.868706	-3.394837
O	0.546278	-2.215029	-1.668695
N	-1.837195	-0.543198	-1.546047
H	-2.412004	-0.144431	-0.817427
H	-2.202774	-0.337864	-2.467016
N	-0.512041	-1.095025	0.881939
O	-1.6416	-0.94275	1.368601
O	0.225605	-2.049747	1.097269
C	-0.483495	1.261107	0.531736
N	-0.793472	2.305083	0.976938
H	2.52598	0.0	0.0
