14

C	0.0	0.0	0.0
C	-0.461715	0.176469	-1.441754
Br	1.970231	0.0	0.0
H	-0.054291	1.121273	-1.822936
H	-0.278326	-0.99112	0.362299
H	-1.54935	0.275193	-1.369467
N	-0.495693	0.970765	0.932418
H	-0.408656	1.892262	0.51467
H	-1.49958	0.777529	1.004914
C	-0.115538	-0.977	-2.373963
H	0.962533	-1.088686	-2.508432
H	-0.514019	-1.91417	-1.975414
H	-0.570665	-0.821002	-3.355871
Cl	-3.656865	0.0	0.0
