14

C	0.0	0.0	0.0
C	-0.521637	0.095801	-1.417293
Br	2.045457	0.0	0.0
H	-1.593172	-0.123684	-1.315432
H	-0.203108	-0.984224	0.417104
H	-0.04946	-0.68489	-2.019558
N	-0.50991	0.982037	0.837072
H	-0.321408	0.856194	1.817188
H	-0.358718	1.929398	0.532976
C	-0.343165	1.461896	-2.066398
H	-0.974781	2.205996	-1.576383
H	0.699139	1.792302	-2.039868
H	-0.661034	1.422288	-3.110936
Cl	-4.003237	0.0	0.0
