16

C	-0.216694	0.223871	-1.495726
C	0.0	0.0	0.0
F	-0.521629	-1.062207	-2.090351
H	1.095478	0.0	0.0
H	-0.440162	-0.945357	0.339648
N	-1.333136	1.02477	-1.979285
H	-1.382418	1.879567	-1.428736
H	-2.175217	0.487502	-1.799671
N	0.964354	0.804317	-1.952889
H	1.827928	0.548732	-1.449312
H	0.944932	1.293327	-2.83782
C	-0.454836	1.196274	0.832299
H	-1.542679	1.335417	0.851474
H	0.010455	2.096069	0.425781
H	-0.103587	1.097739	1.864076
F	2.810618	0.0	0.0
