15

C	0.0	0.0	0.0
C	-0.505941	-0.005883	-1.434593
F	1.350818	0.0	0.0
H	-1.582293	-0.194368	-1.394266
H	-0.37519	-0.923407	0.478302
N	-0.599931	1.071708	0.778003
O	-1.750971	1.391574	0.245381
O	-0.366101	1.038949	2.010688
N	0.172438	-0.961076	-2.278836
H	-0.330274	-1.836761	-2.266626
H	1.114786	-1.110076	-1.942118
N	-0.360077	1.337341	-2.085778
O	-1.18187	1.621007	-2.952682
O	0.60372	2.03358	-1.765603
H	-2.809278	0.0	0.0
