15

C	0.0	0.0	0.0
C	-0.322051	0.038479	-1.511913
F	1.353513	0.0	0.0
H	0.384384	0.759178	-1.924546
H	-0.415416	-0.816901	0.576731
N	-0.384254	1.285678	0.671738
O	-0.34431	2.308063	-0.011881
O	-0.576368	1.242106	1.883802
N	-1.629232	0.194839	-1.993055
H	-2.330044	0.065451	-1.158593
H	-1.729305	1.135999	-2.353785
N	0.235998	-1.299834	-2.021163
O	0.968142	-1.265359	-3.010432
O	-0.131059	-2.327269	-1.453346
H	-2.981795	0.0	0.0
