15

C	0.0	0.0	0.0
C	-0.328149	0.072174	-1.504788
F	1.353531	0.0	0.0
H	0.326828	0.850814	-1.899496
H	-0.412038	-0.834493	0.554187
N	-0.384787	1.26418	0.712917
O	-0.330628	2.310961	0.068592
O	-0.591163	1.174564	1.919968
N	-1.648121	0.141693	-1.956923
H	-2.352523	0.036916	-1.112428
H	-1.800529	1.031193	-2.414437
N	0.32826	-1.212161	-2.055972
O	0.058866	-2.277674	-1.504187
O	1.028839	-1.099002	-3.062097
H	-3.048325	0.0	0.0
