15

C	0.0	0.0	0.0
C	-0.344841	0.051668	-1.500418
F	1.353607	0.0	0.0
H	0.298542	0.830109	-1.915474
H	-0.408495	-0.827688	0.567404
N	-0.38944	1.271375	0.698447
O	-0.548344	1.198905	1.914181
O	-0.392818	2.306158	0.034266
N	-1.671683	0.103758	-1.930167
H	-1.839567	0.979616	-2.408616
H	-2.380009	0.01223	-1.073886
N	0.31125	-1.236341	-2.049434
O	0.100392	-2.290947	-1.452978
O	0.941941	-1.138506	-3.101448
H	-3.096918	0.0	0.0
