16

C	-0.372673	-0.078917	-1.483325
C	0.0	0.0	0.0
Cl	-2.084729	-0.544049	-1.701992
H	1.102193	0.0	0.0
N	-0.258327	1.371115	-2.088583
O	0.513061	2.135849	-1.520678
O	-0.806496	1.560954	-3.16825
N	0.496259	-0.928826	-2.170346
H	1.459513	-0.819174	-1.845963
H	0.399736	-0.850422	-3.174333
N	-0.367357	-1.265081	0.752067
O	-0.266524	-2.329761	0.162935
O	-0.665676	-1.118721	1.934161
C	-0.586277	1.133326	0.690934
N	-1.067629	2.045665	1.251063
Br	3.30085	0.0	0.0
