16

C	-0.433975	0.001101	-1.44529
C	0.0	0.0	0.0
Cl	0.222371	-1.443165	-2.206455
H	1.089406	0.0	0.0
N	-1.991608	0.00209	-1.637049
O	-2.598798	0.73857	-0.872842
O	-2.469653	-0.60397	-2.593429
N	0.058373	1.164449	-2.097741
H	-0.117274	1.115152	-3.09323
H	-0.349	2.001205	-1.697103
N	-0.485257	-1.188255	0.779974
O	0.317873	-1.745766	1.511542
O	-1.673574	-1.534667	0.622401
C	-0.331344	1.150672	0.82173
N	-0.290523	1.907826	1.742241
Br	3.040617	0.0	0.0
