17

C	0.0	0.0	0.0
C	-0.534858	0.221293	-1.43626
Cl	1.755675	0.0	0.0
H	-1.569109	0.565012	-1.294406
N	-0.376335	1.262917	0.832487
O	-0.476676	1.132094	2.039656
O	-0.477254	2.308583	0.204135
N	-0.509804	-1.114563	0.69817
H	-1.5352	-1.034811	0.682319
H	-0.2193	-1.968339	0.240021
C	-0.579471	-1.099174	-2.210665
H	-0.858519	-0.90324	-3.24742
H	0.393532	-1.600179	-2.206804
H	-1.342591	-1.743857	-1.774071
C	0.218303	1.210399	-2.201801
N	0.824673	1.93723	-2.899785
Cl	-3.479519	0.0	0.0
