17

C	0.0	0.0	0.0
C	-0.358492	0.176594	-1.508901
Cl	1.779919	0.0	0.0
H	0.286754	0.97166	-1.890387
N	-0.409016	1.309842	0.70293
O	-0.083576	2.342452	0.127973
O	-1.0038	1.223739	1.766019
N	-0.557189	-1.07764	0.710563
H	-0.43957	-1.938157	0.189521
H	-1.548804	-0.907365	0.879549
C	-1.815031	0.516159	-1.797645
H	-1.958191	0.561232	-2.879575
H	-2.073024	1.487883	-1.377423
H	-2.523597	-0.195155	-1.377342
C	0.023515	-1.069202	-2.177888
N	0.305647	-2.079451	-2.707748
Cl	-4.486413	0.0	0.0
