17

C	0.0	0.0	0.0
C	-0.537971	0.172265	-1.424424
Cl	1.798039	0.0	0.0
H	-1.584584	0.484731	-1.2958
N	-0.305145	1.307022	0.817177
O	-0.497123	2.346574	0.20298
O	-0.291817	1.177998	2.035848
N	-0.526424	-1.130282	0.625349
H	-0.26477	-1.122453	1.604823
H	-1.552275	-1.049246	0.552812
C	-0.516913	-1.155954	-2.186413
H	-1.195561	-1.858135	-1.706626
H	-0.85257	-0.985364	-3.211591
H	0.489313	-1.58004	-2.207107
C	0.181473	1.186498	-2.191222
N	0.740804	1.929981	-2.908527
Cl	-3.495489	0.0	0.0
