17

C	0.0	0.0	0.0
C	-0.554708	0.36682	-1.38514
Cl	1.754222	0.0	0.0
H	-1.596428	0.670326	-1.212762
N	-0.318055	1.186169	0.988156
O	-0.317858	0.889246	2.177379
O	-0.491204	2.304177	0.523241
N	-0.535039	-1.20414	0.468055
H	-1.560813	-1.1056	0.423457
H	-0.258009	-1.337534	1.43404
C	-0.552968	-0.849522	-2.316047
H	-1.228667	-1.605696	-1.921835
H	-0.902925	-0.544402	-3.305008
H	0.450297	-1.271577	-2.4081
C	0.174652	1.462823	-2.018065
N	0.736099	2.286992	-2.638085
Cl	-3.512428	0.0	0.0
