14

C	0.0	0.0	0.0
C	-0.228027	-0.041337	-1.570075
Cl	1.782674	0.0	0.0
H	0.492017	0.688139	-1.959426
H	-0.346482	-0.896929	0.493906
C	-0.594716	1.160282	0.647394
N	-0.730067	2.039074	1.435693
C	-1.561359	0.272113	-2.245972
H	-2.307694	-0.483574	-2.025943
H	-1.365637	0.324329	-3.335561
H	-1.956647	1.223628	-1.892961
C	0.216526	-1.34845	-2.067568
N	0.49486	-2.411344	-2.482428
H	-2.198109	0.0	0.0
