14

C	0.0	0.0	0.0
C	-0.548602	0.048217	-1.423856
Cl	1.782531	0.0	0.0
H	-1.661758	0.131658	-1.151884
H	-0.367527	-0.912566	0.470173
C	-0.430059	1.148352	0.808719
N	-0.550943	2.092714	1.498772
C	-0.298788	-1.253868	-2.173804
H	-0.844017	-2.055337	-1.665896
H	-0.676143	-1.180125	-3.196059
H	0.763874	-1.509904	-2.216441
C	-0.068421	1.202807	-2.15596
N	0.317467	2.11623	-2.79053
H	-2.752626	0.0	0.0
