14

C	0.0	0.0	0.0
C	-0.659493	0.056217	-1.362528
Cl	1.782317	0.0	0.0
H	-1.830007	0.105247	-0.886346
H	-0.337791	-0.918207	0.489569
C	-0.406693	1.151481	0.820266
N	-0.64207	2.089239	1.492076
C	-0.519493	-1.241177	-2.115255
H	-0.919714	-1.149525	-3.132436
H	-1.095286	-1.998612	-1.578188
H	0.516633	-1.580325	-2.197293
C	-0.275176	1.216391	-2.110822
N	0.036196	2.138523	-2.776993
H	-2.771102	0.0	0.0
