16

C	0.0	0.0	0.0
C	-0.229566	0.090091	-1.563994
Cl	1.793488	0.0	0.0
H	0.506051	0.837705	-1.875465
N	-0.413723	1.265985	0.705765
O	-0.432557	2.28581	0.027356
O	-0.555633	1.198715	1.916334
C	-0.515267	-1.183431	0.660387
N	-0.626884	-2.237853	1.172237
C	-1.539255	0.48127	-2.247896
H	-1.301505	0.598511	-3.314765
H	-1.902196	1.420151	-1.843292
H	-2.304436	-0.266846	-2.091324
C	0.236127	-1.181228	-2.132965
N	0.593466	-2.167096	-2.663737
F	-2.26045	0.0	0.0
