16

C	0.0	0.0	0.0
C	-0.23741	0.014531	-1.565769
Cl	1.793435	0.0	0.0
H	0.516141	0.723469	-1.92183
N	-0.406962	1.305146	0.642219
O	-0.432113	2.286678	-0.089638
O	-0.535164	1.30573	1.85622
C	-0.518338	-1.139983	0.730111
N	-0.620291	-2.149978	1.327009
C	-1.543551	0.409541	-2.257855
H	-2.323542	-0.315689	-2.069951
H	-1.881331	1.370212	-1.884779
H	-1.310262	0.483539	-3.32997
C	0.180887	-1.29837	-2.071825
N	0.476443	-2.323934	-2.564244
F	-2.261386	0.0	0.0
