13

C	0.0	0.0	0.0
C	-0.5134	-0.147839	-1.43044
Cl	1.78316	0.0	0.0
H	-1.608082	-0.171956	-1.3042
H	-0.366634	0.953354	0.379561
C	-0.415759	-1.104112	0.868734
N	-0.567711	-2.004969	1.606029
C	-0.063042	-1.412888	-2.036391
N	0.284803	-2.378809	-2.608527
N	-0.142246	1.026587	-2.203692
H	-0.786939	1.134156	-2.975928
H	0.796574	0.932151	-2.57424
Br	-3.531836	0.0	0.0
