13

C	0.0	0.0	0.0
C	-0.486805	0.255917	-1.456498
Cl	1.780923	0.0	0.0
H	0.316827	-0.087181	-2.114877
H	-0.343416	0.782145	0.677919
C	-0.432588	-1.305732	0.497236
N	-0.672675	-2.376907	0.914231
C	-0.572299	1.726704	-1.650914
N	-0.642346	2.879073	-1.868392
N	-1.660992	-0.513983	-1.761751
H	-2.475223	-0.271463	-1.177756
H	-1.923367	-0.378725	-2.730853
Br	-4.391139	0.0	0.0
