15

C	-0.514	0.017396	-1.420464
C	0.0	0.0	0.0
F	-0.122926	-1.129238	-2.099278
H	1.093391	0.0	0.0
H	-0.309539	0.939854	0.477445
N	-1.960685	0.036843	-1.470827
H	-2.305909	0.736294	-0.825986
H	-2.277481	0.272444	-2.404801
C	0.052224	1.158953	-2.194313
N	0.34713	2.099124	-2.833762
C	-0.500839	-1.208925	0.780405
H	-0.236743	-2.123877	0.247806
H	0.009619	-1.23447	1.746326
H	-1.581428	-1.207324	0.945708
H	2.975563	0.0	0.0
