15

C	-0.29405	0.102517	-1.481298
C	0.0	0.0	0.0
F	-1.638426	0.44508	-1.743542
H	1.093979	0.0	0.0
H	-0.376812	-0.944	0.402306
N	0.545549	1.115021	-2.042536
H	0.577871	1.037903	-3.051798
H	1.489091	0.99307	-1.655985
C	-0.133497	-1.222292	-2.143295
N	-0.008087	-2.268977	-2.662483
C	-0.52754	1.198607	0.774583
H	-1.619552	1.249209	0.761998
H	-0.134376	2.123754	0.351223
H	-0.190314	1.134735	1.812589
H	2.931722	0.0	0.0
