15

C	-0.318596	0.105387	-1.492408
C	0.0	0.0	0.0
F	-0.472746	1.466106	-1.822001
H	1.093657	0.0	0.0
H	-0.294403	-1.006874	0.321347
N	0.713881	-0.446666	-2.305084
H	1.601278	-0.438154	-1.789149
H	0.498252	-1.369798	-2.648907
C	-1.622651	-0.517928	-1.836239
N	-2.644083	-1.045472	-2.076129
C	-0.616584	1.066301	0.884849
H	-0.246098	2.051842	0.602384
H	-1.710599	1.078856	0.826929
H	-0.330907	0.887028	1.92519
H	2.987297	0.0	0.0
