15

C	-0.32167	0.068901	-1.489419
C	0.0	0.0	0.0
F	-0.401223	1.429063	-1.843631
H	1.093288	0.0	0.0
H	-0.405062	0.877419	0.508793
N	0.672675	-0.556825	-2.295647
H	1.568213	-0.569968	-1.797169
H	0.410053	-1.471656	-2.628059
C	-1.660303	-0.490036	-1.820717
N	-2.711331	-0.962185	-2.046551
C	-0.447996	-1.301294	0.652192
H	-0.025453	-1.363083	1.658208
H	-0.060709	-2.158721	0.093733
H	-1.536006	-1.39806	0.721129
H	2.97436	0.0	0.0
