16
Coordinates from ORCA-job run
  C   -0.67124668769487     -0.04983647026387     -0.33141360605711
  C   0.70383187218547     -0.06674201306080      0.35594773648114
  F   -0.50549040321705      0.60822943214892     -1.54746764225780
  H   0.62470108608825     -0.56674791632376      1.32269583102906
  C   -1.15834487762429     -1.40859060940776     -0.61985207499993
  N   -1.61966941565341     -2.46606763514007     -0.83813945535041
  C   -1.69236549753673      0.70864113867582      0.49355351021780
  H   -1.87005807935203      0.19875928739441      1.44230470646875
  H   -2.62988971149272      0.75956627231477     -0.06153540836860
  H   -1.31655576259500      1.71208662258818      0.68532457365543
  N   1.19257126703218      1.25486392290745      0.48228189988791
  H   1.37486865517739      1.64603349999540     -0.43371087456589
  H   2.04256108628370      1.28233329452804      1.02918622518885
  N   1.62441780110433     -0.98279900367194     -0.46339404558583
  O   1.60131320154790     -2.17659645402970     -0.17683568133785
  O   2.29935546574687     -0.45213336865509     -1.33994569440551
