16
Coordinates from ORCA-job run
  C   -0.65010945972772     -0.01031642411719     -0.43303476739192
  C   0.72126565478491     -0.15241463954341      0.23331960232956
  F   -0.52215813454666      0.65066889567284     -1.63533789459048
  H   0.58669850007089     -0.70202337984256      1.17632711198001
  C   -1.22671179538988     -1.34839239397899     -0.66108613961337
  N   -1.76087101766733     -2.39004173152713     -0.74971060621088
  C   -1.61377249367979      0.78494683807875      0.44021289640854
  H   -2.59747350060575      0.78396482332706     -0.03003059825217
  H   -1.69905017944620      0.34531723660604      1.43542719590972
  H   -1.28342791262541      1.82122309152054      0.52183522901633
  N   1.40950668959263      1.10135902663395      0.33820165546071
  H   0.79442613966972      1.85818400638372      0.59473830828347
  H   2.16508502780338      1.03369815146598      1.00598596874935
  N   1.65067146244588     -1.04995913793401     -0.56360977502241
  O   1.29972384361369     -1.46904978073630     -1.65941622397713
  O   2.72719717570764     -1.25816458200928     -0.01182196307933
