16
Coordinates from ORCA-job run
  C   -0.59615859017299      0.58255258514973     -0.17722272136843
  C   0.92437978220760      0.29505626805647     -0.07806143890328
  F   -0.82348456144397      1.81981218030067      0.40720933864162
  H   1.44517806878085      1.18800218802727     -0.42639221244239
  C   -0.89130442066357      0.69177605170097     -1.61778396912856
  N   -1.09473323932787      0.75129671900272     -2.77302469782706
  C   -1.50819821972044     -0.43276112178692      0.48149039348917
  H   -1.32809270434247     -0.44981219316354      1.55564017995194
  H   -2.54369966267704     -0.14285353691693      0.29865259802397
  H   -1.35001377394532     -1.43284101618135      0.07622564792618
  N   1.41744319604034     -0.86364700177724     -0.74520354144607
  H   0.92226744096258     -1.70404268657786     -0.48296920689530
  H   1.42629763823585     -0.74426768201398     -1.74830693264276
  N   1.26167950504770      0.17870623349204      1.38381479240448
  O   1.64544400086612      1.19250321242477      1.95665147528775
  O   1.09399554015262     -0.92848019973684      1.89028029492874
