16
Coordinates from ORCA-job run
  C   -0.67574420320289      0.51600244730947      0.04388468004320
  C   0.87183858497169      0.42804251584359      0.06546019036542
  F   -1.05486259172551      1.38562108549135      1.05580718914722
  H   1.25351770592834      1.44968012172646      0.09306681810686
  C   -1.02497143658823      1.13210895106183     -1.24956062793724
  N   -1.26759388267069      1.60521508203148     -2.29681119692855
  C   -1.41988442534489     -0.79077102478239      0.23165585746197
  H   -1.20638992998094     -1.20055281994049      1.21794935642121
  H   -1.14001415799134     -1.52152864158802     -0.52791769771557
  H   -2.49022494671230     -0.59740484360465      0.15043503379244
  N   1.50153991233786     -0.31215720048028     -0.97758257513588
  H   1.13902456783871     -1.25162684098058     -1.05940771144227
  H   1.45500779327534      0.17357728469188     -1.86249602845798
  N   1.26651909004847     -0.18358006934551      1.38247657408028
  O   1.26024339445684     -1.41168478592710      1.43044660448291
  O   1.53399452535953      0.58105873849295      2.30259353371596
