16
Coordinates from ORCA-job run
  C   -0.80533436896886      0.43482249459536      0.09662250969872
  C   0.73810476691329      0.50359736494792      0.07324439097083
  F   -1.29198690735420      1.23344621499616      1.11640074725255
  H   1.03569511046964      1.54061200831875      0.27669111871348
  C   -1.25625213487966      1.03792125150194     -1.17281489651435
  N   -1.61082370191970      1.54335745662361     -2.17166291052693
  C   -1.33562792190430     -0.97455599537793      0.25357261131143
  H   -1.08010040197692     -1.34473266935686      1.24747528797683
  H   -0.90434309532213     -1.61957785039143     -0.51190199234163
  H   -2.42157999778467     -0.96868413552803      0.15631232236210
  N   1.21848984903761     -0.06310887574323     -1.15671169738886
  H   1.38994198363953      0.66369554419376     -1.83841330792263
  H   2.07322056432619     -0.57907869659571     -0.98900227411093
  N   1.28497814802994     -0.28151769429161      1.24789929276532
  O   0.84756499362414      0.02732381353791      2.34927065037495
  O   2.12005311407010     -1.15352023143061      1.02401814737913
