16
Coordinates from ORCA-job run
  C   -0.67518189796422      0.00236869892337     -0.32746131968729
  C   0.69927371805291     -0.11938920006335      0.35110582929003
  F   -0.47636286168480      0.69256368984504     -1.52010830283609
  H   0.59299682450020     -0.64250601041015      1.30290205703980
  C   -1.24078748078995     -1.31443461189122     -0.66324865912537
  N   -1.75253649402574     -2.33246258873750     -0.94703449604301
  C   -1.64649111267457      0.78877548703483      0.53072128990842
  H   -1.21085409644563      1.76012615150021      0.75805435402410
  H   -1.85216586731055      0.25493104152839      1.46045456901403
  H   -2.58087304742798      0.91707448265727     -0.01724585271553
  N   1.26723439703587      1.16599886271679      0.51538820067219
  H   1.46907149078004      1.57440849747161     -0.38886689440639
  H   2.11898709310894      1.12580871344157      1.05865935948654
  N   1.55951467936209     -1.06344871542833     -0.49996820742154
  O   1.47002554382213     -2.26137812013526     -0.24503896981707
  O   2.25814911166124     -0.54843637845327     -1.36731295738281
