16
Coordinates from ORCA-job run
  C   -0.72076760001597      0.44502382165595     -0.21127696640961
  C   0.76526435751997      0.46127319986182      0.19749021496790
  F   -1.09076000242993      1.77771132939543     -0.30769999796112
  H   0.85456619613410      1.10681965540100      1.07231096741607
  C   -0.86910139942570     -0.16211883257773     -1.54511067693147
  N   -0.99128742930792     -0.65870782132273     -2.60213550162156
  C   -1.63358912018983     -0.23005910849025      0.79348281156549
  H   -1.46788268880347     -1.30694541941918      0.82524903667163
  H   -1.46155394558526      0.18827178613564      1.78608949870695
  H   -2.66658637318375     -0.04213705478056      0.49855842771294
  N   1.59167233052179      0.90408642985758     -0.85678211927697
  H   2.52522081382904      1.12771778081081     -0.54068163734323
  H   1.63550333671184      0.22825218699996     -1.61001331531033
  N   1.10319538771940     -0.93846483216292      0.71257732914923
  O   1.39037192623389     -1.77801826085467     -0.13823661404769
  O   1.03573421027180     -1.12370486051016      1.92517854271176
