16
Coordinates from ORCA-job run
  C   -0.66119739922182      0.02806027251901     -0.35375574729454
  C   0.69186219628135     -0.14718950396549      0.35512905259518
  F   -0.45184036421999      0.91442415031214     -1.40714663171921
  H   0.57800574013092     -0.82848768969761      1.19996689706610
  C   -1.15138164820192     -1.23756109132438     -0.92337666383761
  N   -1.61523834443853     -2.22307019082866     -1.36195434476812
  C   -1.70033240326733      0.62057259079062      0.57771954820612
  H   -1.91217355502841     -0.06703794730694      1.39868467989703
  H   -2.61971902960210      0.79656384586935      0.01782384672786
  H   -1.32135171145899      1.55910321755202      0.97831320206526
  N   1.18875958839167      1.11502356989847      0.75690781889889
  H   1.40331122825994      1.67822224655724     -0.05675865375767
  H   2.02140959629756      1.02009663704256      1.32256822249882
  N   1.62853530895606     -0.89546151282061     -0.60401060090139
  O   2.33518633181304     -0.21129200031792     -1.33759761630591
  O   1.58516446530855     -2.12196659427980     -0.56251300937082
