16
Coordinates from ORCA-job run
  C   -0.72688817107753      0.46149554055983     -0.21183765004467
  C   0.80799077044576      0.34655392446770     -0.26399157951358
  F   -1.02946648359826      1.67394256593246      0.39174245342610
  H   1.20095635771065      1.16384140071228     -0.86979357760384
  C   -1.20114587510985      0.51376639601755     -1.60527576521775
  N   -1.59329345954978      0.56153631823734     -2.71073581158640
  C   -1.42911869663164     -0.64490073491432      0.54955993755521
  H   -1.27500446569148     -1.60780398720315      0.06222657697464
  H   -1.06341697365670     -0.68467546124025      1.57497172106523
  H   -2.49816251816232     -0.42940155518235      0.55932209751552
  N   1.19933146374743     -0.91604879424711     -0.77232082977499
  H   2.16350587200434     -0.91280963144024     -1.07621488187068
  H   1.07210986950919     -1.64011721210950     -0.07592166359003
  N   1.33178240393714      0.63954837014058      1.14230187424338
  O   1.70221424644315      1.78365408450748      1.37740322437703
  O   1.33860565967991     -0.30658122423831      1.92956387404483
