16
Coordinates from ORCA-job run
  C   -0.71011179291858      0.44698205680280     -0.24608736268038
  C   0.76033636171438      0.45849217150819      0.21597421549738
  F   -1.06359576356101      1.78007229710256     -0.38491990573786
  H   0.82407737380817      1.11891119124894      1.08181138223537
  C   -0.81321731220214     -0.18875862638344     -1.57091008672675
  N   -0.89412224351733     -0.70928235677155     -2.62024681450506
  C   -1.66519580299037     -0.19812662319719      0.73895460470146
  H   -2.68513662792455     -0.00347637375065      0.40488225941508
  H   -1.51389776533731     -1.27628948401645      0.79623097084548
  H   -1.52232242097595      0.23655158255328      1.72941410881673
  N   1.62836029715635      0.87558576566563     -0.81494906658304
  H   2.55178403295514      1.09607425106283     -0.46827040210138
  H   1.69327625141456      0.18652689411909     -1.55444624074936
  N   1.06873834368376     -0.93449300395576      0.76787551291107
  O   1.38757627820846     -1.78998792893014     -0.05533515060461
  O   0.95345079048640     -1.09778181305812      1.98002197526588
