16
Coordinates from ORCA-job run
  C   -0.61081337872208      0.58016673544923     -0.12385522048126
  C   0.91514925491734      0.30576441140705     -0.12367135172816
  F   -0.81307082263356      1.79473830266163      0.51511298893584
  H   1.40667647894724      1.21112138819790     -0.48259684268263
  C   -0.99071184313354      0.73480668203192     -1.54016443250990
  N   -1.26183247235603      0.82900892059655     -2.67903294797016
  C   -1.47537155763334     -0.46550630704296      0.55102851752850
  H   -2.52137962570593     -0.17607760141658      0.44266803541911
  H   -1.22954863889453     -0.52199376685299      1.61052965155890
  H   -1.33797316304297     -1.44826796087442      0.09877239349877
  N   1.37660567242450     -0.83289541754718     -0.84621865136060
  H   1.32020832539560     -0.69114798830104     -1.84505847235898
  H   0.90629602945019     -1.68387714149195     -0.57227673237888
  N   1.34288962903822      0.15984597025609      1.31165048487681
  O   1.20517922965515     -0.95757079118945      1.80472485747419
  O   1.76569688229373      1.16088456411620      1.87938772217846
