16
Coordinates from ORCA-job run
  C   -0.64309480770158      0.36954784172676     -0.25600557442467
  C   0.80025050863453      0.37510043263457      0.30463269016931
  F   -0.90441656249816      1.71633757359236     -0.51455537871396
  H   0.78720538254984      1.00811851156355      1.19329658617286
  C   -0.68650630079725     -0.33953218995281     -1.54377729995734
  N   -0.71586230944907     -0.90187121250690     -2.57442325514781
  C   -1.69025841133436     -0.14931849765551      0.70509545730721
  H   -1.58362244735479     -1.22269507362285      0.86347075646318
  H   -2.67961761731235      0.05058640897423      0.29115430325777
  H   -1.59185398802201      0.36165454345617      1.66415489319399
  N   1.83253304041498      0.79248633422583     -0.58427678667208
  H   1.72774167194846      1.77303344498482     -0.80704283778818
  H   1.83750253013654      0.24138278802591     -1.43417505797158
  N   1.10715201946389     -1.01236838503150      0.78502961686760
  O   0.88797727531513     -1.25765923561478      1.96881452515155
  O   1.51387001600622     -1.80380328479985     -0.06139263790785
