16
Coordinates from ORCA-job run
  C   -0.66007193482415     -0.07747788029469     -0.34858657111314
  C   0.68633101060118     -0.03587536779145      0.39255396395907
  F   -0.42038729121811      0.37071164919015     -1.64498585578692
  H   0.54892568609210     -0.37248674574835      1.42144655458762
  C   -1.19494375497116     -1.44588949781385     -0.43892906385781
  N   -1.69327845213768     -2.50694228846652     -0.50629200092339
  C   -1.67696386995340      0.84095739485842      0.30012551099615
  H   -2.59044267074838      0.83630849436014     -0.29592748804689
  H   -1.91109502777725      0.49795809014949      1.30969366609707
  H   -1.26535253109152      1.84771436992842      0.34518545972187
  N   1.22686586535739      1.27017841535679      0.33064975580498
  H   2.05576891837003      1.35338147106470      0.90365018983588
  H   1.46024425295925      1.50358567016160     -0.62655063434440
  N   1.59622288255723     -1.10341309537426     -0.23107334583515
  O   1.51136908832352     -2.23474948812518      0.23884791056246
  O   2.32580782846093     -0.74396119145541     -1.14980805165739
