16
Coordinates from ORCA-job run
  C   -0.67772476542157     -0.08162244833505     -0.31206907547560
  C   0.70829483960660     -0.03083909458637      0.35158934579509
  F   -0.52062930112155      0.39954408635127     -1.60939772066891
  H   0.63630345885203     -0.39043054785098      1.37942067963339
  C   -1.19316903208413     -1.45731528215630     -0.40350156557529
  N   -1.67573663366734     -2.52591768538780     -0.46661551328352
  C   -1.67117118911337      0.80311782945395      0.41495438055790
  H   -2.61745200582470      0.79521183964039     -0.12746115205869
  H   -1.27493350483490      1.81600190905714      0.46016009635178
  H   -1.84095325585909      0.43275419255215      1.42774438129788
  N   1.22241474344458      1.28556086880783      0.28651565163621
  H   1.39754759453721      1.54180481351004     -0.67732525120807
  H   2.08120036013205      1.37182518655407      0.81318275616833
  N   1.59847968646746     -1.06950503141616     -0.34563375536846
  O   2.26807325289983     -0.67872412143960     -1.29673122013549
  O   1.55945575198687     -2.21146651475458      0.10416796233345
