16
Coordinates from ORCA-job run
  C   -0.66231059123534      0.52716143571279     -0.26315660842567
  C   0.84834800481452      0.22817968447259     -0.26680883325312
  F   -0.82809481402134      1.80805036662634      0.24447393502614
  H   1.34647296473110      0.94743566674682     -0.91789060293465
  C   -1.10287804581033      0.53274414442273     -1.66851065347611
  N   -1.46974929080273      0.54923051452067     -2.78358884123297
  C   -1.50541099563630     -0.42913856846376      0.55634373706382
  H   -1.45732774908127     -1.43748074629602      0.14445835112884
  H   -1.16632466443958     -0.43427397123076      1.59181901419118
  H   -2.54126947938966     -0.08948236081198      0.52091486337278
  N   1.09392517216676     -1.10577221604062     -0.67499575290442
  H   2.05612826378072     -1.23862532405005     -0.95533337889088
  H   0.87172479033472     -1.75602151549781      0.06866522749342
  N   1.37891551047433      0.55760762979811      1.12853923068140
  O   1.25907598815592     -0.32377930471984      1.97937178534068
  O   1.87877493595851      1.66416456481079      1.29369852681955
