16
Coordinates from ORCA-job run
  C   -0.70547805213758      0.45960126145884     -0.23424409940236
  C   0.77156251001773      0.44524694470091      0.20707430628363
  F   -1.03846868416353      1.79902199918941     -0.36272086305779
  H   0.85646329093183      1.10080832496963      1.07482851729192
  C   -0.83879258189704     -0.16996434567469     -1.55922407153255
  N   -0.94469427964855     -0.68959321971082     -2.60695929261338
  C   -1.65687560022116     -0.17355863839070      0.76213361846291
  H   -1.52184803192428     -1.25398135440783      0.81397408185601
  H   -1.49339591002374      0.25575378123850      1.75149338310071
  H   -2.67807329358148      0.03742634602357      0.44254808020851
  N   1.63122579641015      0.85343808530763     -0.83450162207563
  H   2.56299535377395      1.05772696372126     -0.50047025093064
  H   1.67410739891573      0.16647411442667     -1.57751891055542
  N   1.06430422802324     -0.95495678722014      0.74795115249394
  O   0.96386414107590     -1.12211292470123      1.96090477725377
  O   1.35310371444883     -1.81233055093101     -0.08426880678362
