16
Coordinates from ORCA-job run
  C   -0.60459933555150     -0.08173893968580     -0.36537667387738
  C   0.75384144727319     -0.09974091376882      0.37542304850811
  F   -0.37099441104753      0.38415786523803     -1.65412258724111
  H   0.59069522656309     -0.39419194321650      1.41278998887925
  C   -1.18477164997576     -1.42893872618666     -0.46795900743891
  N   -1.66531071480643     -2.49627173727260     -0.56552585748675
  C   -1.58113299021767      0.86341671528045      0.30817317808514
  H   -1.81596032639895      0.52318590839421      1.31855452465153
  H   -1.15043237998081      1.86450674969746      0.34723994416155
  H   -2.50217897069259      0.90285125444836     -0.27445267722251
  N   1.49833242710577      1.10957521743288      0.30134136900373
  H   1.46339676062756      1.52055850919501     -0.62113062367517
  H   1.23405163674655      1.77299309662859      1.01327470503258
  N   1.58725130648596     -1.20900410993224     -0.22507758627618
  O   2.18683582937217     -0.94087574724956     -1.25948066327877
  O   1.56397614449695     -2.29148319900281      0.35532891817491
