16
Coordinates from ORCA-job run
  C   -0.68968501775089     -0.05957921349963     -0.29021670768746
  C   0.72299989635876     -0.05821918879908      0.31607679174978
  F   -0.59161350915247      0.53858812643281     -1.54359779465650
  H   0.69755798091022     -0.51545794393448      1.30657766837964
  C   -1.20255830510902     -1.42607821312410     -0.48201390624070
  N   -1.68559519973226     -2.48822798658208     -0.61317665067947
  C   -1.65521614290321      0.74659471269698      0.55638429232592
  H   -2.62434919812946      0.77809541400902      0.05695415219518
  H   -1.26338906888716      1.75507284316020      0.67608869449854
  H   -1.77778030326837      0.28493081464717      1.53799075878302
  N   1.22626043424750      1.26355901235210      0.35706094017401
  H   2.10692904034556      1.30672129116677      0.85196187681500
  H   1.35761387561358      1.61370445019380     -0.58388673480389
  N   1.58861505455676     -1.01550125646861     -0.51522067744067
  O   1.57967965522219     -2.19512912419393     -0.17448823828812
  O   2.20953080767828     -0.52907373805693     -1.45549446512428
