16
Coordinates from ORCA-job run
  C   -0.72530176018849      0.43532961441764     -0.22106246269497
  C   0.75235001168764      0.47019930428745      0.21598287029362
  F   -1.11268866343263      1.76294356532106     -0.31843420442984
  H   0.81566944078345      1.10610517084490      1.10001339123418
  C   -0.83553958898370     -0.16754104621831     -1.56082789625871
  N   -0.91821419807575     -0.66127712217399     -2.62284519197821
  C   -1.64666869423218     -0.25752187576288      0.76329703279567
  H   -1.49739074214021      0.15747464816130      1.76115700170949
  H   -2.67682097903696     -0.08107357148261      0.45153326273310
  H   -1.46780589141454     -1.33247932400733      0.79251848754061
  N   1.59148970412251      0.93895323691898     -0.81696127117128
  H   2.51558928069017      1.17134365310020     -0.48004010809648
  H   1.65876494661899      0.27448333716334     -1.57839088575416
  N   1.10462063531259     -0.93069631921615      0.72005975919694
  O   1.42237955592858     -1.75471840741985     -0.13514200111361
  O   1.02056694236055     -1.13152486393375      1.92914221599366
