16
Coordinates from ORCA-job run
  C   -0.81981142680020      0.04759181586611      0.33326401651140
  C   0.67721268776615      0.37006608895285      0.49794160378973
  F   -1.20663126272863     -0.69348956375078      1.44106900936467
  H   0.81017854733744      0.96788934736566      1.40031796524242
  C   -1.54262463575119      1.33030484339455      0.36766105261622
  N   -2.13620251373784      2.34265348016540      0.39973152708390
  C   -1.17583874726351     -0.73174590600008     -0.91681638228702
  H   -0.62978760984760     -1.67437598002852     -0.93836543746605
  H   -0.95060927034927     -0.15035754328389     -1.81126721142271
  H   -2.24654967689169     -0.93869573793409     -0.89874094158146
  N   1.17539220314369      1.03470075514211     -0.64944876178005
  H   1.30437621014398      0.38386777574090     -1.41430361258822
  H   2.05156973396269      1.50158432382069     -0.45907867764711
  N   1.39102854693795     -0.94463368115977      0.81236625114417
  O   1.69986160616790     -1.64157059025653     -0.15399980644193
  O   1.59943560791014     -1.20378942803460      1.99166940546205
