16
Coordinates from ORCA-job run
  C   -0.82694585870319      0.31201258226561      0.07138458447361
  C   0.68554002165202      0.59867344024915      0.11714461298740
  F   -1.35959499206717      0.71011304433030      1.28939009936829
  H   0.83580411779514      1.67100781629279      0.24757426640947
  C   -1.39568118090010      1.17372034126762     -0.97890234396884
  N   -1.86658802262952      1.85791890122047     -1.80860376958094
  C   -1.19942505216841     -1.13736385227320     -0.16771779230795
  H   -2.28642666151341     -1.22235087211668     -0.13615026271845
  H   -0.76904413575543     -1.76736105023333      0.61029120585980
  H   -0.85481873079408     -1.46794732303205     -1.14785185201506
  N   1.32201631526758      0.11936596392530     -1.05393960036026
  H   1.41959318595831     -0.88800933119604     -1.02439837106734
  H   2.23354106588050      0.53760215651930     -1.18103563892573
  N   1.22359223941629     -0.01368311844372      1.41054149057829
  O   1.33373516477138      0.72682185064018      2.38051487696400
  O   1.50370252379008     -1.21152054941569      1.37075849430372
