16
Coordinates from ORCA-job run
  C   -0.78867674063280      0.40048266345806     -0.06258115975614
  C   0.74272513995641      0.53834047132771      0.02616947487407
  F   -1.33064720399781      1.12525984019012      0.98942808061629
  H   1.00755069920537      1.59071019533568     -0.08203462965898
  C   -1.20471004004314      1.04235155304580     -1.32119143283463
  N   -1.55343684274150      1.55694335345655     -2.31707115609698
  C   -1.31098293672194     -1.02022062304481      0.01066309190727
  H   -0.98770386506449     -1.49082542409368      0.93863168650949
  H   -0.96440228748381     -1.60363381601330     -0.84253108589066
  H   -2.40088335538931     -0.98633822781335     -0.01206040671467
  N   1.37482709916552     -0.26493481973320     -0.95443403256162
  H   2.33255902347287      0.01907378195600     -1.10874363953540
  H   1.35691518200300     -1.24096839513786     -0.68540684479284
  N   1.14551678939960      0.19789348569751      1.46130849223960
  O   1.28719185365538      1.13161834755653      2.24198498905322
  O   1.29415748521665     -0.99675238618777      1.71686857264199
