16
Coordinates from ORCA-job run
  C   -0.69677388129918     -0.12880629940957     -0.37364828312883
  C   0.69861503016724     -0.15759731388564      0.28898390791301
  F   -0.51440699145371      0.21097232958260     -1.70473251480310
  H   0.64610243694139     -0.74690960337190      1.21307783893533
  C   -1.36633185043735     -1.43913452230073     -0.30022009074635
  N   -1.94067655826710     -2.45096630572040     -0.14297494626256
  C   -1.58213753088829      0.92042801931901      0.27077972603135
  H   -1.10181730312847      1.89073156929186      0.15920081707460
  H   -2.55024113053479      0.92401508652455     -0.23138254859188
  H   -1.73948338773353      0.70056739633037      1.32963775159726
  N   1.22130630445286      1.16588736717701      0.45473399676194
  H   2.16726497674275      1.20755486201214      0.09575665335862
  H   1.22411769395330      1.42915453572749      1.42980070707486
  N   1.62207721744179     -0.97016146468554     -0.61595255977502
  O   2.70733909624417     -0.48642503148645     -0.91728657541619
  O   1.20504587779891     -2.06831062510481     -0.95577388002304
