16
Coordinates from ORCA-job run
  C   -0.83545645355355      0.29787616417955     -0.00465967208570
  C   0.66801059614165      0.62728223650829      0.05708205345834
  F   -1.42590371148475      0.84918206622665      1.12348805909996
  H   0.79050555684770      1.71086556854946      0.03984877522916
  C   -1.37739280953648      0.98759395339523     -1.18779702343468
  N   -1.82361599688044      1.53565539746210     -2.12508865386835
  C   -1.16734994267985     -1.18018710596525     -0.04935105342058
  H   -0.74721462314420     -1.68476440446622      0.81997010451490
  H   -2.25238719272795     -1.28871261346188     -0.03575404396289
  H   -0.78549205184115     -1.63490889733726     -0.96354295053662
  N   1.36086599221933      0.00485214504530     -1.00995397813622
  H   2.26960663742230      0.42230587232256     -1.15851071333912
  H   1.47488558268534     -0.98620675556071     -0.83557273773922
  N   1.16432131964262      0.21709014737214      1.44340787646387
  O   1.21074496797193      1.08771310645587      2.30438281075738
  O   1.47587212891749     -0.96563688072582      1.58305114699978
