16
Coordinates from ORCA-job run
  C   -0.78962500014665     -0.11855565553190      0.38572712470634
  C   0.71616547927132      0.15992083087027      0.55090095849281
  F   -1.08159643670002     -1.25568363194228      1.12602713363095
  H   0.92363366168439      0.34914074227634      1.60478482657745
  C   -1.50523842488004      1.01722080117143      0.99158781845440
  N   -2.09125103060716      1.91284489333081      1.47403563902314
  C   -1.25041956767907     -0.34033448648773     -1.04082875954228
  H   -0.71431684367659     -1.18150909855585     -1.47916894193399
  H   -1.09265607653873      0.55583998836813     -1.64131430570568
  H   -2.31773972853780     -0.56482353925033     -1.02734086512611
  N   1.11689491340111      1.24759445363214     -0.26401928199570
  H   2.00567572333245      1.62709857942802      0.03246606824072
  H   1.18339608521305      0.96442766614339     -1.23391988513852
  N   1.45412496704105     -1.14364679164640      0.25125178572240
  O   1.67199496380255     -1.38527306830612     -0.93582774276004
  O   1.76995731502014     -1.84426168349989      1.20563842735414
