16
Coordinates from ORCA-job run
  C   -0.71809669300100      0.40480900901904     -0.28983550993738
  C   0.72954508016552      0.50130853511514      0.23032528570057
  F   -1.12654408477478      1.71443142603871     -0.48880220268752
  H   0.72652815120166      1.19261221059149      1.07417330527800
  C   -0.73862748760578     -0.27945509062263     -1.59422429608180
  N   -0.75544271327157     -0.84035149389552     -2.62558397241284
  C   -1.68207861678287     -0.25225255182421      0.67833411019796
  H   -1.48171850049169     -1.31876508278577      0.78146975900460
  H   -2.69503774586901     -0.12084610380338      0.29618911676285
  H   -1.60257282385335      0.22357699242136      1.65670103791564
  N   1.61965758675465      0.92482817726499     -0.77936594559954
  H   2.51644589028332      1.20139561984378     -0.40388072131482
  H   1.74748989826615      0.21439029811592     -1.49026395075651
  N   1.07677792632486     -0.85638483090097      0.84171467676701
  O   0.93150175029585     -0.98178170653836      2.05518640467206
  O   1.45117238235805     -1.72751540803959      0.05886290249173
