16
Coordinates from ORCA-job run
  C   -0.69917611056028      0.31281881062640     -0.44491469271434
  C   0.83249572786019      0.19372029784246     -0.33591141491496
  F   -1.00697885938872      1.66585927959573     -0.47034930162104
  H   1.28373279038659      0.65356936762534     -1.21580154093537
  C   -1.08477105940697     -0.26634545982351     -1.74298536491494
  N   -1.40986960888756     -0.71588769804900     -2.77773440372854
  C   -1.47665905902202     -0.33682527865937      0.68211158954143
  H   -1.31217630984069     -1.41451923297506      0.69504110757601
  H   -1.18094592371706      0.09581365860726      1.63741849067666
  H   -2.53872678912756     -0.15029788543733      0.51845585792503
  N   1.22084326880806     -1.16118505452008     -0.19525385860348
  H   2.20074172471735     -1.29203916111138     -0.40659544926626
  H   1.03626940007601     -1.49241742270476      0.74364895991583
  N   1.27405002897503      1.08947407011254      0.82139684121541
  O   1.65714184352841      2.21997981623157      0.54357220635625
  O   1.20502893559922      0.59828189263918      1.94790097349232
