16
Coordinates from ORCA-job run
  C   -0.73229581876144     -0.06419096783649      0.42704274216850
  C   0.81419622741965     -0.04285921321732      0.52556702627267
  F   -1.18252653782835     -1.09586173368717      1.23841896390256
  H   1.07158736975419     -0.05352012823668      1.58559129721607
  C   -1.18767469238072      1.21240193729243      1.00807978761745
  N   -1.51240124337862      2.24736974021459      1.45863721579020
  C   -1.31165006189692     -0.25865828017503     -0.95964776541004
  H   -2.39943440478199     -0.21738138014083     -0.89075022818338
  H   -0.97729019909075      0.52190337851745     -1.64412163740132
  H   -1.01554580492426     -1.23016882036058     -1.35290573317170
  N   1.49883585409912      1.01238735404590     -0.14366010378929
  H   1.39511367151282      1.89364681621055      0.33845820321831
  H   1.23680271798109      1.09451494286867     -1.11540704458654
  N   1.31738030309947     -1.35306626731367     -0.01941474677666
  O   1.44014164435286     -1.41650733788412     -1.24077412946686
  O   1.54376097482386     -2.25001004029770      0.78488615260003
