16
Coordinates from ORCA-job run
  C   -0.77850508938149     -0.01522169687787      0.34494982907542
  C   0.72787095466230      0.25668015311174      0.59171838615353
  F   -1.24829796216893     -0.75088907892626      1.42298926777142
  H   0.82535800659587      0.63860708050087      1.60890015621127
  C   -1.43290216799618      1.30596993094081      0.36683803866396
  N   -1.91593194917064      2.37662403725935      0.36872910658650
  C   -1.12022210628458     -0.76127075228210     -0.92903923360710
  H   -0.75150289156539     -0.23506915821509     -1.81019049950101
  H   -2.20505748186750     -0.84671258943014     -1.00339735121383
  H   -0.68595354506435     -1.75970324945866     -0.90093688003732
  N   1.39901204721859      1.11267273168010     -0.32936108609962
  H   1.12167707745486      2.07749089345183     -0.21528296770547
  H   1.29016855616992      0.81356666558529     -1.28803146454010
  N   1.42814437727386     -1.07509340738216      0.59527700280920
  O   1.75132780649398     -1.51780462941676     -0.50484627278443
  O   1.59581436762968     -1.62184693054097      1.67968396821759
