17
Coordinates from ORCA-job run
  C   -0.52521847806582     -0.27140499549252      0.05019834978761
  C   0.64240654970494      0.41034282798387      0.06889316063793
  C   -1.67799613062293      0.20916924465477      0.89805672614697
  H   -2.43270643058968     -0.57323198360706      1.00533644672692
  H   -2.18276317626006      1.08071392061984      0.45958267983961
  H   -1.34949601926713      0.48859615216550      1.90419098193546
  C   -0.79281948610057     -1.49821807826258     -0.77614942543350
  H   -0.99645472548391     -2.36588199466289     -0.13727044412347
  H   0.02675668229603     -1.76089203016242     -1.44434640355510
  H   -1.68364219157353     -1.35125718813635     -1.39762859927375
  C   1.90549378300195      0.02945202211221     -0.64833005124929
  H   1.84883183557186     -0.94760394743441     -1.12157054077221
  H   2.15481416720309      0.76757188821801     -1.41963610719258
  H   2.73606013080925      0.00979299127655      0.06451624437161
  N   0.81415116699130      1.54432207551073      0.89521405845624
  H   -0.03549376308468      2.07113281947284      1.03703182149539
  H   1.54607608546991      2.15539627574389      0.56191110220217
