17
Coordinates from ORCA-job run
  C   -0.51598078743714     -0.29247936380298      0.00077674614269
  C   0.63878707416415      0.39507982200463     -0.14841903783075
  C   -1.61898931057403     -0.11841147755717     -1.01499604854177
  H   -2.16587262526552      0.82445366088473     -0.87874744405090
  H   -2.35180586165534     -0.92435432261169     -0.93324066251426
  H   -1.23035578847023     -0.13063224787512     -2.03827549141085
  C   -0.81642857269310     -1.23587555488362      1.13181052507454
  H   -1.74791871453703     -0.94608459992955      1.63155378807909
  H   -0.96402921186956     -2.25782763659134      0.76262543094905
  H   -0.03765642475380     -1.26541155427088      1.89327544782735
  C   1.85863453608555      0.28242961757323      0.71999763261099
  H   2.04430375977075      1.22011929620539      1.25680728649796
  H   2.73426633265373      0.08722576251893      0.09267070429132
  H   1.78793661115068     -0.51778460966848      1.45243247653193
  N   0.84499309800496      1.24657344546873     -1.25777472968061
  H   -0.00230045544812      1.67991711995823     -1.59518348506946
  H   1.54341634087406      1.95306264257696     -1.07531313890630
