17
Coordinates from ORCA-job run
  C   -0.50627594668091     -0.30798024418602      0.03302188260701
  C   0.61343636055135      0.41781023121215     -0.18617710406343
  C   -0.68812831868781     -1.29295141676246      1.15376777313964
  H   -0.84497606770394     -2.30600623663083      0.76446175180564
  H   0.15415551002314     -1.32761665516341      1.84408708885655
  H   -1.57902543163836     -1.04197043689300      1.74092279415326
  C   -1.69217244998065     -0.13619258906801     -0.88507615514995
  H   -2.25001386422857      0.78723350211071     -0.67816575816459
  H   -1.38646861936887     -0.10925424720517     -1.93585313774369
  H   -2.39568157452574     -0.96364821611808     -0.76870816116371
  C   1.90311944120434      0.31561324327022      0.57600318336540
  H   2.10826735899031      1.24245454868568      1.12431051455379
  H   2.72870630439599      0.16274434327674     -0.12644730751420
  H   1.91366256730737     -0.50709149614693      1.28658481564207
  N   0.70472135430341      1.30844853954906     -1.28053709995338
  H   -0.17936578901702      1.72600677448409     -1.53285930680294
  H   1.39503916505598      2.03040035558525     -1.13033577356749
