17
Coordinates from ORCA-job run
  C   -0.51736836441126     -0.28619083866366      0.05055897697303
  C   0.63078782073103      0.42795758543744      0.06809525455300
  C   -1.68254011272614      0.16329449805510      0.89855824723569
  H   -2.41692368128884     -0.63831822035933      1.00461408748964
  H   -2.20992806677140      1.02225766077409      0.46179984255010
  H   -1.36045386881313      0.44996807018295      1.90473489592920
  C   -0.75109297023269     -1.52031016917343     -0.77505069315393
  H   -1.64104595326215     -1.39604164183918     -1.40273003654132
  H   -0.93837722609703     -2.39095856141417     -0.13525691315630
  H   0.07904518810104     -1.76519132807918     -1.43693270926015
  C   1.90449203757836      0.08206409300805     -0.64792226608651
  H   2.73441638292907      0.08482747228238      0.06595242508872
  H   1.87492501448808     -0.89649259680978     -1.12060850932562
  H   2.13459912199467      0.82647081298754     -1.41907146662120
  N   0.77023483342367      1.56768611505879      0.89318245360176
  H   1.48368515797578      2.19887588730387      0.55717424598074
  H   -0.09445531361906      2.07010116124852      1.03290216474316
