17
Coordinates from ORCA-job run
  C   -0.55919948181615     -0.19527460670207     -0.03565694196375
  C   0.66004158133290      0.36950639491408      0.11590875598768
  C   -1.68674566065167      0.21929467735227      0.87830492908830
  H   -1.60719874231060     -0.23716689755068      1.87425069406556
  H   -1.71617535982638      1.30522132396970      1.01299884740436
  H   -2.65137291719032     -0.08611445797918      0.46653907041284
  C   -0.90093623759994     -1.24717557312332     -1.05339867792352
  H   -1.32076375994183     -2.13199086768404     -0.56109349442962
  H   -1.66580680064601     -0.88442395177066     -1.75039126520146
  H   -0.04576276889780     -1.57977486538064     -1.64096060063081
  C   1.86308612882084      0.13506679621873     -0.75144907336173
  H   2.24427283261620      1.09611940711350     -1.11135846604873
  H   1.64902349073471     -0.48442406915764     -1.61876871547729
  H   2.66837679284913     -0.34297187637947     -0.18159925324030
  N   0.88684996591239      1.36833515202167      1.09072800044807
  H   0.32018881013346      1.25656982748589      1.91897872300236
  H   1.86112212648106      1.43820358665187      1.34796746786804
