17
Coordinates from ORCA-job run
  C   -0.55603596612718     -0.20492969904367     -0.03118272566864
  C   0.68483647863244      0.28719533419332      0.18476942794216
  C   -1.67346854027460      0.16293219457836      0.91479539464645
  H   -2.52536614444128     -0.50896867824806      0.78822238860735
  H   -2.04458469044331      1.18292911631532      0.74607161311101
  H   -1.35403600215688      0.09546214280488      1.95966245221991
  C   -0.94009098595335     -1.10063965641588     -1.17548726442935
  H   -1.77365419434780     -0.66411384117664     -1.73769099149073
  H   -0.13005736988344     -1.27541336800551     -1.88292704801163
  H   -1.28439631913282     -2.07615075918588     -0.81185514495107
  C   1.92008815676774     -0.03605645760265     -0.60536114548337
  H   2.29412152061815      0.85223792181293     -1.12760282651942
  H   1.76134104711017     -0.81974750046444     -1.34189871563491
  H   2.70921073582786     -0.37051337102911      0.07569149855282
  N   0.96087321732132      1.10909051125414      1.30161497927516
  H   0.17686836719801      1.67928230393229      1.58413496873939
  H   1.77435068928496      1.69040380628062      1.15804313909487
