17
Coordinates from ORCA-job run
  C   -0.54243139814733     -0.24058022159750      0.00292650826970
  C   0.66832009871818      0.34627572702811      0.13763712661161
  C   -1.66538415498672      0.15792158207527      0.92985282988136
  H   -1.32554801038849      0.22115894545519      1.96855529045012
  H   -2.47602207920857     -0.57330368498455      0.89372173999825
  H   -2.10146692882716      1.13029276911558      0.66352638627288
  C   -0.88800303625669     -1.27569908307950     -1.03072509494363
  H   -1.75684741056360     -0.95429612589012     -1.61653265712404
  H   -0.08012242563110     -1.47605380125660     -1.73379679558589
  H   -1.16371321555074     -2.22566825200870     -0.55741392117877
  C   1.90869576788666      0.01592555695645     -0.64134643607259
  H   2.72820261495784     -0.19665941106770      0.05259247563870
  H   1.78697757329611     -0.84866929297132     -1.28899574175817
  H   2.21826141901830      0.86527745537265     -1.26152096516015
  N   0.90985044351985      1.29780002841070      1.15519072139448
  H   1.68299210750706      1.90860549966634      0.93266705969350
  H   0.09623863465641      1.84667230877569      1.39266147361264
