16
Coordinates from ORCA-job run
  C   0.99568409457928     -0.28834495365095      0.18498989443167
  C   -0.49793576313246     -0.52340510738748     -0.02335839282675
  H   1.14440864467898      0.13753159408190      1.18684444447993
  H   -0.62826272662441     -0.99624190901290     -1.00568271582068
  H   1.48026025718188     -1.26896755545284      0.18939880606141
  C   1.64191525175498      0.61611460407917     -0.86004495718632
  H   1.27602904921139      1.64278893922271     -0.79568936418526
  H   2.72628685987065      0.64660873530956     -0.73013249561648
  H   1.44015065288422      0.24955084481132     -1.87075111394960
  C   -1.30143490042058      0.77743937580987     -0.00176262288396
  H   -2.37106251067602      0.56666202912315     -0.09127644234641
  H   -1.14023295733346      1.30473294427937      0.94501191965225
  H   -1.02804514847605      1.45093615768296     -0.81794035192465
  N   -0.94412666048940     -1.50580928389406      0.96976620504306
  H   -1.92630614672236     -1.71433709998469      0.82541607560719
  H   -0.86632799628666     -1.09525931501709      1.89521111146459
