16
Coordinates from ORCA-job run
  C   0.63472026187232     -0.40527547542797     -0.80410631429987
  C   -0.74505094448399     -0.48491735935411     -0.12946972595753
  H   0.50173128628602     -0.04902989573811     -1.83317739683845
  H   -1.37371529118773     -1.12140729979092     -0.76486442505306
  H   1.03242870651420     -1.42500354945912     -0.88305411796205
  C   1.65070571299552      0.47889555039617     -0.08650434078683
  H   1.34692091390103      1.52768200972018     -0.08548559585050
  H   1.79147607851057      0.16580939570529      0.95114725159034
  H   2.62612130459619      0.42201517269433     -0.57517172042448
  C   -1.42020327509290      0.87599095988187     -0.02328261524668
  H   -2.43923306354605      0.75497429417476      0.34755664138085
  H   -0.88715405612047      1.52736063973855      0.67547448508248
  H   -1.45372848891461      1.37864072613991     -0.99334891651688
  N   -0.74837827604393     -1.10667912622628      1.19686898772318
  H   -0.23051305838193     -0.52901257133223      1.84927527633826
  H   -0.28512781090423     -2.00804347112233      1.15914252682124
