18

C	0.0	0.0	0.0
C	-0.520193	0.064299	-1.43686
Cl	1.75298	0.0	0.0
H	-1.607387	0.190877	-1.336491
N	-0.492673	1.172992	0.657384
H	-0.243853	1.05258	1.63926
H	-1.527954	1.060344	0.601672
N	-0.595551	-1.202503	0.688547
O	-0.341075	-1.287703	1.915645
O	-1.75611	-1.46789	0.155253
N	-0.364813	-1.217745	-2.180319
O	-1.042043	-1.315774	-3.206388
O	0.426593	-2.066831	-1.780243
C	0.081102	1.181859	-2.269605
H	-0.510677	1.316488	-3.176352
H	1.113792	0.960841	-2.54662
H	0.063645	2.097446	-1.678998
H	-2.818086	0.0	0.0
