18

C	0.0	0.0	0.0
C	-0.568842	-0.225308	-1.401409
Cl	1.79647	0.0	0.0
H	-1.662635	-0.283142	-1.217799
N	-0.44823	1.28954	0.418643
H	-1.476293	1.204641	0.412345
H	-0.18237	1.391898	1.394168
N	-0.579277	-1.099833	0.83847
O	-1.730767	-0.728129	1.323981
O	-0.271551	-2.271774	0.513698
N	-0.203117	-1.530976	-2.032719
O	-1.120447	-2.317065	-2.265909
O	0.961868	-1.688756	-2.396507
C	-0.238742	0.873348	-2.389155
H	-0.706914	0.650137	-3.35322
H	-0.623265	1.820638	-2.015119
H	0.84016	0.954114	-2.527488
H	-2.887656	0.0	0.0
