16

C	0.0	0.0	0.0
C	-0.604713	0.242718	-1.381674
Br	1.928202	0.0	0.0
H	-1.543454	0.783768	-1.226611
H	-0.339544	-0.954025	0.395536
N	-0.399396	1.016143	1.053062
O	-0.634765	2.15945	0.694081
O	-0.397606	0.591631	2.202739
C	-0.877468	-1.078801	-2.067523
H	0.024804	-1.688335	-2.138373
H	-1.258724	-0.905679	-3.07543
H	-1.654584	-1.582515	-1.493695
N	0.269207	1.112736	-2.244148
O	0.971915	0.557577	-3.090529
O	0.231356	2.32528	-2.054963
Br	-3.606716	0.0	0.0
