14

C	-0.349275	0.062884	-1.481008
C	0.0	0.0	0.0
Cl	-2.193237	0.391542	-1.677191
H	1.094304	0.0	0.0
H	-0.354757	-0.931248	0.447446
N	0.318704	1.185967	-2.052637
H	1.309621	1.103393	-1.824527
H	0.199359	1.207927	-3.058113
N	-0.025731	-1.18681	-2.083815
H	-0.202379	-1.159568	-3.080813
H	-0.557326	-1.94642	-1.676232
C	-0.500277	1.134918	0.761866
N	-0.887938	2.029604	1.414627
Br	3.502925	0.0	0.0
