14

C	-0.578064	0.018867	-1.414039
C	0.0	0.0	0.0
Cl	0.223972	1.406733	-2.289638
H	1.090561	0.0	0.0
H	-0.315945	0.903241	0.533199
N	-0.218587	-1.173211	-2.128709
H	-0.769838	-1.941403	-1.766564
H	-0.392732	-1.062831	-3.118801
N	-2.002832	0.213456	-1.351629
H	-2.224045	1.074149	-0.865135
H	-2.37666	0.279425	-2.292326
C	-0.506148	-1.167638	0.715159
N	-0.930535	-2.112438	1.266833
Br	3.585516	0.0	0.0
