14

C	-0.403241	0.070054	-1.479877
C	0.0	0.0	0.0
Cl	-0.165563	-1.553939	-2.223152
H	1.09225	0.0	0.0
H	-0.292231	0.953216	0.461482
N	-1.796328	0.406792	-1.616367
H	-1.987136	1.240005	-1.069787
H	-1.969963	0.615167	-2.593191
N	0.462517	0.970673	-2.21936
H	1.429091	0.67407	-2.084117
H	0.38989	1.887349	-1.781624
C	-0.594529	-1.08523	0.762065
N	-1.066386	-1.95384	1.395116
Br	3.506143	0.0	0.0
