14

C	-0.387236	-0.060759	-1.488077
C	0.0	0.0	0.0
Cl	0.003124	1.635535	-2.131733
H	1.092068	0.0	0.0
H	-0.368347	0.9032	0.49114
N	0.413409	-0.964856	-2.265608
H	1.396496	-0.759081	-2.092801
H	0.22675	-1.901661	-1.920047
N	-1.750631	-0.401233	-1.682108
H	-1.95473	-0.393204	-2.673808
H	-2.362946	0.243406	-1.199512
C	-0.478656	-1.182299	0.709404
N	-0.867192	-2.127478	1.287772
Br	3.504713	0.0	0.0
