18

C	0.0	0.0	0.0
C	-0.155045	-0.003892	-1.567267
F	1.396875	0.0	0.0
H	0.53829	-0.780469	-1.892386
N	-0.503512	1.22096	0.546243
H	-1.515914	1.198963	0.372885
H	-0.402869	1.18346	1.556025
C	-0.458235	-1.268081	0.675453
H	-1.548865	-1.301869	0.64908
H	-0.115399	-1.253747	1.715714
H	-0.047295	-2.149377	0.179017
N	0.211379	1.244773	-2.190538
H	-0.474213	1.94005	-1.913023
H	1.088002	1.520677	-1.761308
N	-1.457751	-0.456631	-2.161796
O	-1.649398	-1.671326	-2.151434
O	-2.177553	0.385023	-2.678835
Cl	-3.715602	0.0	0.0
