18

C	0.0	0.0	0.0
C	-0.391301	-0.06536	-1.494632
F	1.417063	0.0	0.0
H	-1.476212	-0.017819	-1.531128
N	-0.502252	1.114891	0.715127
H	-0.750399	1.867695	0.097543
H	-1.34773	0.846955	1.213877
C	-0.356849	-1.307989	0.717866
H	-0.100211	-1.181141	1.767207
H	0.202489	-2.134935	0.282788
H	-1.437313	-1.474215	0.640627
N	0.116602	-1.23562	-2.115635
H	-0.17012	-1.295737	-3.084172
H	1.123152	-1.215842	-2.077794
N	0.116817	1.197998	-2.196649
O	-0.477047	2.259602	-1.956333
O	1.110806	1.089648	-2.92321
Cl	-3.615498	0.0	0.0
