18

C	0.0	0.0	0.0
C	-0.31944	0.010541	-1.534885
F	1.385603	0.0	0.0
H	0.528264	0.492534	-2.027784
N	-0.474435	1.172932	0.664547
H	-1.455691	1.028903	0.894593
H	-0.451349	1.958436	0.024192
C	-0.487656	-1.236466	0.720902
H	0.034103	-2.118946	0.349922
H	-0.263813	-1.11604	1.782318
H	-1.564425	-1.354838	0.586722
N	-1.533027	0.635027	-1.856068
H	-1.763165	0.535275	-2.834577
H	-2.332154	0.33043	-1.288751
N	-0.181507	-1.43895	-2.044707
O	0.96504	-1.857463	-2.218891
O	-1.206659	-2.090307	-2.229801
Cl	-4.026117	0.0	0.0
