18

C	0.0	0.0	0.0
C	-0.457849	0.094526	-1.469206
F	1.381199	0.0	0.0
H	-1.542836	-0.020048	-1.48773
N	-0.455167	1.082257	0.829335
H	-0.181707	1.967836	0.41504
H	-1.47701	1.033949	0.840732
C	-0.457375	-1.318218	0.590063
H	-0.099653	-1.357713	1.621178
H	-0.032677	-2.15431	0.029547
H	-1.547429	-1.371683	0.578434
N	0.197784	-0.802412	-2.380332
H	-0.358399	-1.629315	-2.526065
H	1.114348	-1.047204	-2.030358
N	-0.210712	1.491935	-1.995448
O	0.937388	1.931151	-1.920909
O	-1.160201	2.090617	-2.497671
Cl	-3.694788	0.0	0.0
