18

C	0.0	0.0	0.0
C	-0.47666	0.085562	-1.459113
F	1.399498	0.0	0.0
H	-1.564732	0.183359	-1.447954
N	-0.43865	1.176651	0.689829
H	-1.448147	1.252037	0.555524
H	-0.280286	1.048191	1.683683
C	-0.427165	-1.311759	0.633432
H	-0.066556	-1.324927	1.666629
H	-1.517456	-1.365411	0.629581
H	0.003167	-2.169309	0.112088
N	-0.069883	-0.991014	-2.318084
H	0.870276	-1.285615	-2.086472
H	-0.712795	-1.762901	-2.206171
N	0.061989	1.362793	-2.051145
O	1.213697	1.332953	-2.482378
O	-0.676044	2.343769	-2.063483
Cl	-3.664622	0.0	0.0
