14

C	-0.400293	0.05851	-1.449529
C	0.0	0.0	0.0
Cl	-2.219526	-0.067771	-1.633403
H	1.095369	0.0	0.0
H	-0.162136	1.052399	-1.830294
H	-0.333148	-0.957794	0.427947
C	0.270667	-1.025876	-2.262251
H	0.037883	-0.937515	-3.325984
H	-0.046202	-2.013663	-1.918455
H	1.350505	-0.931942	-2.102496
N	-0.459357	1.172395	0.744267
H	-1.31598	0.967587	1.241948
H	0.257842	1.398973	1.423478
H	3.0277	0.0	0.0
