14

C	-0.409498	0.026171	-1.454049
C	0.0	0.0	0.0
Cl	-2.218682	0.175265	-1.623424
H	1.099115	0.0	0.0
H	-0.01727	0.939615	-1.906577
H	-0.338131	0.917571	0.497567
C	0.075256	-1.190267	-2.204553
H	1.161512	-1.228997	-2.088507
H	-0.185651	-1.142042	-3.264293
H	-0.355889	-2.085442	-1.7611
N	-0.450304	-1.217516	0.678108
H	-1.146435	-1.001926	1.381239
H	0.351649	-1.619465	1.149072
H	3.011426	0.0	0.0
