14

C	-0.325086	-0.01911	-1.48059
C	0.0	0.0	0.0
Cl	-2.136771	-0.01467	-1.776536
H	1.09624	0.0	0.0
H	0.020799	0.917652	-1.923299
H	-0.373392	0.924534	0.451343
C	0.29931	-1.195269	-2.197211
H	-0.104024	-2.137431	-1.821028
H	1.374923	-1.160266	-1.986957
H	0.124223	-1.14935	-3.274494
N	-0.449382	-1.155063	0.769763
H	-1.33741	-1.500352	0.425053
H	0.242538	-1.888542	0.68352
H	3.023007	0.0	0.0
