15

C	-0.26305	0.048197	-1.311042
C	-0.204974	0.088818	0.206575
F	0.230804	1.218761	-1.809592
H	0.766349	0.549874	0.408838
H	-1.001276	0.754007	0.563712
C	0.360743	-1.129718	-1.960395
N	0.188511	-2.037117	-2.705865
N	-1.744603	0.040883	-1.751643
O	-2.468325	-0.78712	-1.206481
O	-2.104084	0.843148	-2.605317
C	-0.250799	-1.274592	0.882351
H	0.621199	-1.832296	0.542994
H	-1.160978	-1.821096	0.637576
H	-0.196551	-1.153146	1.969206
F	1.950551	-0.780651	-1.062721
