17

C	-0.416269	-0.04486	-1.483857
C	0.0	0.0	0.0
Cl	0.102907	1.612148	-2.149648
H	1.091598	0.0	0.0
N	0.291073	-1.116546	-2.069515
H	1.282377	-1.069103	-1.83691
H	0.168381	-1.13356	-3.07323
C	-1.90924	-0.135432	-1.729055
H	-2.290221	-1.080504	-1.340095
H	-2.1035	-0.084739	-2.803224
H	-2.42969	0.691498	-1.24464
N	-0.463984	-1.275897	0.659519
O	0.321813	-2.213274	0.677301
O	-1.613076	-1.29187	1.10748
C	-0.564287	1.125755	0.724763
N	-1.021811	2.028467	1.3207
Cl	3.222345	0.0	0.0
