17

C	-0.490267	0.055889	-1.462395
C	0.0	0.0	0.0
Cl	0.08348	-1.391121	-2.349018
H	1.09141	0.0	0.0
N	-1.936391	0.011868	-1.487575
H	-2.304266	0.790709	-0.953862
H	-2.25527	0.09803	-2.446114
C	0.162052	1.262662	-2.126453
H	-0.088455	1.265565	-3.190059
H	1.24531	1.217533	-2.006373
H	-0.212165	2.182762	-1.672744
N	-0.529531	-1.204798	0.721929
O	-1.534247	-1.055454	1.417997
O	0.072452	-2.256381	0.549746
C	-0.472946	1.194532	0.693119
N	-0.840651	2.195954	1.186364
Cl	3.219076	0.0	0.0
