17

C	-0.521646	0.021515	-1.47179
C	0.0	0.0	0.0
Cl	-0.039819	-1.554195	-2.187348
H	1.091206	0.0	0.0
N	-1.943969	0.161169	-1.646742
H	-2.428134	-0.506334	-1.057003
H	-2.218515	1.092365	-1.352197
C	0.211489	1.130791	-2.200164
H	1.288263	1.010937	-2.078914
H	-0.065703	1.091952	-3.254205
H	-0.085094	2.101842	-1.791541
N	-0.491973	-1.222045	0.720408
O	-1.713295	-1.303925	0.900907
O	0.332357	-2.063168	1.049043
C	-0.523801	1.162844	0.699226
N	-0.954984	2.132235	1.203933
Cl	3.252717	0.0	0.0
