17

C	-0.398579	-0.044378	-1.515884
C	0.0	0.0	0.0
Cl	-0.220986	1.650466	-2.105002
H	1.09134	0.0	0.0
N	0.491181	-0.851256	-2.306481
H	0.425077	-1.804149	-1.962494
H	1.448421	-0.553081	-2.113283
C	-1.841829	-0.467291	-1.714318
H	-1.968903	-1.511891	-1.414905
H	-2.089947	-0.377968	-2.772077
H	-2.515948	0.159663	-1.126491
N	-0.426846	-1.288032	0.648897
O	-1.173165	-1.241635	1.625521
O	-0.005794	-2.324987	0.140099
C	-0.570829	1.108122	0.744799
N	-1.033702	2.01402	1.33275
Cl	3.189693	0.0	0.0
