17

C	-0.509909	0.017853	-1.452772
C	0.0	0.0	0.0
Cl	0.211192	-1.357952	-2.353197
H	1.091391	0.0	0.0
N	-1.941587	-0.182326	-1.463568
H	-2.288601	-0.066741	-2.408674
H	-2.388621	0.503668	-0.864421
C	-0.002654	1.290966	-2.121971
H	-0.254432	1.26179	-3.18497
H	-0.482384	2.161628	-1.668616
H	1.080316	1.371143	-2.007851
N	-0.506519	-1.214294	0.728914
O	-1.525734	-1.084001	1.408065
O	0.124848	-2.251762	0.573907
C	-0.490988	1.18523	0.695984
N	-0.873194	2.173074	1.204605
Cl	3.224026	0.0	0.0
