13
Coordinates from ORCA-job run
  C   -0.84196279502521      0.51778385968118      0.43183751378810
  C   0.53726619396764      0.64049554271714     -0.20529503533440
  Cl  -1.67150196229930      2.11306765780124      0.26156153715759
  H   1.06478177858176      1.48255619846316      0.25123316921734
  H   -0.74285249530099      0.35766235953504      1.50813261810743
  H   0.40563015984882      0.88636605059715     -1.26476071732084
  N   -1.69917692469551     -0.50952477529089     -0.08980339980090
  H   -1.44828044962104     -1.41438075826663      0.28414804575426
  H   -1.66481876961608     -0.53704110011304     -1.10122894168763
  C   1.35363256209789     -0.63881889518849     -0.04894019326111
  H   0.89025217003730     -1.47778430391183     -0.57174548043332
  H   2.35673231982842     -0.50864521160350     -0.45999326895140
  H   1.46129821219630     -0.91173662442052      1.00485415276489
