17

C	0.0	0.0	0.0
C	-0.457091	-0.007625	-1.466547
F	1.390607	0.0	0.0
H	-1.553008	0.038762	-1.401198
C	-0.313109	1.335239	0.608695
N	-0.451878	2.397852	1.091274
N	-0.559215	-1.094378	0.705231
H	-0.38292	-0.975961	1.699614
H	-1.593925	-0.939481	0.562078
C	-0.013605	-1.290661	-2.151177
H	-0.386695	-2.163147	-1.615247
H	-0.399011	-1.290444	-3.173052
H	1.078894	-1.350401	-2.194174
N	0.027573	1.150885	-2.216748
H	1.008205	1.296796	-2.00068
H	-0.47358	1.974673	-1.903063
H	-3.010158	0.0	0.0
