17

C	0.0	0.0	0.0
C	-0.468164	0.089991	-1.445732
F	1.391014	0.0	0.0
H	-1.555484	0.241135	-1.35391
C	-0.311912	1.280847	0.714229
N	-0.484964	2.245246	1.362714
N	-0.556272	-1.142043	0.63348
H	-1.591616	-0.984822	0.503968
H	-0.379116	-1.081265	1.6326
C	-0.18123	-1.208642	-2.192866
H	-0.707374	-2.049222	-1.740389
H	0.892395	-1.427553	-2.183224
H	-0.504624	-1.105768	-3.234232
N	0.14326	1.274765	-2.046381
H	1.1055	1.067633	-2.29058
H	-0.351845	1.502868	-2.899508
H	-3.04593	0.0	0.0
