17

C	0.0	0.0	0.0
C	-0.524085	-0.040132	-1.459886
F	1.408358	0.0	0.0
H	-0.464945	-1.101681	-1.750157
C	-0.325795	1.308808	0.616516
N	-0.482706	2.371326	1.089672
N	-0.531573	-1.043967	0.76462
H	-0.487242	-1.938016	0.300112
H	-0.191049	-1.076381	1.713082
C	0.400699	0.758419	-2.375607
H	1.42197	0.37555	-2.383552
H	-0.016543	0.720198	-3.382989
H	0.428008	1.807347	-2.06148
N	-1.87907	0.408059	-1.636573
H	-2.608009	0.043523	-0.967475
H	-1.92303	1.416461	-1.519702
H	-4.019699	0.0	0.0
