17

C	0.0	0.0	0.0
C	-0.390108	0.081475	-1.524986
F	1.377947	0.0	0.0
H	0.522332	-0.308508	-1.993815
C	-0.337799	1.227094	0.778568
N	-0.480892	2.183668	1.446569
N	-0.516508	-1.192619	0.58677
H	-0.265192	-1.203569	1.572184
H	-1.544177	-1.061149	0.536102
C	-0.600352	1.521483	-1.972375
H	0.247589	2.15794	-1.70094
H	-1.50729	1.919108	-1.512117
H	-0.725457	1.535377	-3.057085
N	-1.499579	-0.732937	-1.97116
H	-2.315982	-0.461533	-1.38819
H	-1.295293	-1.695657	-1.719815
H	-3.13721	0.0	0.0
