17

C	0.0	0.0	0.0
C	-0.228082	0.072117	-1.547538
F	1.419957	0.0	0.0
H	0.54031	0.77534	-1.899344
C	-0.352468	1.285003	0.64186
N	-0.499441	2.348214	1.117474
N	-0.579301	-1.090455	0.677055
H	-1.573321	-0.840149	0.815453
H	-0.576224	-1.856316	0.00605
C	-1.58794	0.561757	-1.995969
H	-1.691066	1.628557	-1.782286
H	-2.413504	0.08065	-1.449743
H	-1.681588	0.424031	-3.081506
N	0.038205	-1.286372	-2.036769
H	1.032896	-1.416017	-2.17228
H	-0.431367	-1.425617	-2.921376
H	-3.524668	0.0	0.0
