17

C	0.0	0.0	0.0
C	-0.451779	0.211611	-1.436928
F	1.418759	0.0	0.0
H	-1.537407	0.368475	-1.341898
C	-0.292468	1.216995	0.819945
N	-0.420083	2.115806	1.565521
N	-0.557262	-1.187581	0.531825
H	-1.594336	-1.008304	0.414293
H	-0.383574	-1.210209	1.533433
C	-0.176146	-1.027455	-2.282836
H	-0.720975	-1.892162	-1.903827
H	0.893413	-1.263908	-2.280223
H	-0.488213	-0.837086	-3.315572
N	0.178793	1.433741	-1.933691
H	-0.258136	1.694462	-2.808657
H	1.157655	1.247645	-2.119596
H	-3.01439	0.0	0.0
