17

C	0.0	0.0	0.0
C	-0.426977	0.121073	-1.481474
F	1.39996	0.0	0.0
H	-1.52441	0.146162	-1.471238
N	-0.457603	1.080881	0.819214
H	-1.470103	0.974831	0.896806
H	-0.27782	1.964502	0.353062
C	-0.443367	-1.316789	0.60164
H	-1.530702	-1.398246	0.562044
H	-0.112815	-1.335203	1.641625
H	0.018014	-2.1506	0.071185
N	0.022987	-0.950494	-2.368437
H	0.969919	-1.201029	-2.114316
H	-0.568287	-1.755113	-2.214931
C	0.057328	1.406938	-2.012038
N	0.4339	2.447039	-2.406449
Cl	-3.658172	0.0	0.0
