17

C	0.0	0.0	0.0
C	-0.316423	-0.119642	-1.517945
F	1.396173	0.0	0.0
H	0.33892	0.638366	-1.961072
N	-0.460136	1.292026	0.435654
H	-1.471879	1.310222	0.303076
H	-0.308736	1.363903	1.437537
C	-0.477762	-1.164242	0.839981
H	-1.569949	-1.197147	0.814656
H	-0.067433	-2.110231	0.481013
H	-0.155899	-1.012832	1.87539
N	-1.654847	0.107295	-1.999827
H	-1.850605	1.09937	-2.017037
H	-2.379298	-0.311193	-1.416675
C	0.180615	-1.423067	-2.003937
N	0.577139	-2.445993	-2.421123
Cl	-4.113452	0.0	0.0
