17

C	0.0	0.0	0.0
C	-0.36066	-0.050708	-1.503644
F	1.421858	0.0	0.0
H	0.440559	0.518365	-1.994703
N	-0.49263	1.202983	0.544803
H	-0.376599	2.000408	-0.061775
H	-0.132515	1.371844	1.472962
C	-0.471458	-1.181263	0.812516
H	-0.005813	-2.103614	0.464246
H	-0.202479	-1.027611	1.861685
H	-1.559655	-1.249607	0.738451
N	-1.630431	0.583079	-1.792657
H	-1.98587	0.277479	-2.688767
H	-2.353352	0.385209	-1.092929
C	-0.2078	-1.434279	-2.011933
N	-0.080921	-2.499386	-2.494504
Cl	-4.302534	0.0	0.0
