17

C	0.0	0.0	0.0
C	-0.173828	-0.193781	-1.528491
F	1.4347	0.0	0.0
H	0.441091	-1.077282	-1.757529
N	-0.527188	1.213146	0.402357
H	-0.579069	1.386521	1.390097
H	-0.293649	1.996471	-0.183425
C	-0.51748	-1.151183	0.815809
H	-1.610182	-1.142699	0.745228
H	-0.21713	-1.027824	1.860364
H	-0.111276	-2.097112	0.449991
N	0.348364	1.015531	-2.188639
H	1.357525	0.994265	-2.114637
H	0.092456	1.00431	-3.1678
C	-1.488556	-0.4978	-2.100221
N	-2.340445	-0.830995	-2.836902
Cl	-4.106305	0.0	0.0
