16
Coordinates from ORCA-job run
  C   0.98573294552000      0.10078643098223      0.19726716128966
  C   -0.54387591297630      0.13013693655772      0.35700441134652
  Cl  1.81204353576590     -0.32687830752217      1.70625426488885
  H   -0.73050212417130      0.83176919617812      1.17401842100183
  N   1.43131965768365      1.52433778343268     -0.17143771038449
  O   2.15874875842261      1.65020843989475     -1.14414894730633
  O   1.01362488307930      2.40684458463774      0.56190627543112
  C   1.38123841771994     -0.80722900838925     -0.86979352980574
  N   1.61191773718958     -1.60312883018057     -1.70335671489258
  C   -1.11131997714445     -1.24140145171882      0.69269120443879
  H   -2.19151767824094     -1.15219747127553      0.82540669710085
  H   -0.92409543050837     -1.94430572819944     -0.12412947495830
  H   -0.68614888327422     -1.65527258997856      1.60768635476937
  N   -1.04250238090289      0.69335710246736     -0.88703959855331
  H   -1.42968344706409     -0.01732383579757     -1.49373750574630
  H   -1.73598010109843      1.40929674891130     -0.72659130861995
