16
Coordinates from ORCA-job run
  C   0.94543076306412      0.35619885168609      0.35333059045397
  C   -0.55101822964707     -0.01058779799738      0.50398940228473
  Cl  1.36814455599839      1.63499468726906      1.49966697915615
  H   -0.66439058997718     -0.21078778228084      1.58078569040766
  N   1.17408671608482      0.85741006088241     -1.08616351692621
  O   1.24942323567536      2.05361359194192     -1.28505641984700
  O   1.21144645001690     -0.04438069877361     -1.91507445250627
  C   1.81749687557205     -0.78856675044946      0.57440681955866
  N   2.49041808669432     -1.72583284908109      0.79875055120185
  C   -0.94734155191190     -1.26262819877920     -0.26521860946217
  H   -0.90940264220481     -1.08483454323340     -1.33922190930443
  H   -0.30781922376111     -2.11143181876299     -0.02187813241959
  H   -1.97176977701233     -1.52588401192524      0.01187487377189
  N   -1.32230950797726      1.11980250439572      0.02405923838572
  H   -2.28741718339889      0.84840187053110     -0.11004754049653
  H   -1.29497797721541      1.89451288457693      0.67479643574156
