16
Coordinates from ORCA-job run
  C   0.87388679694257      0.47236814339828     -0.11543669514722
  C   -0.44144045396946     -0.14278043853768      0.41447994397740
  Cl  0.57810315850127      1.89773111786027     -1.10448007923988
  H   -0.11517790100830     -0.96691179897144      1.05697932938761
  N   1.56558257799887     -0.62382915583720     -0.95153140991168
  O   1.60132675087141     -0.51280436869734     -2.16463763626169
  O   1.96065099101395     -1.56852939556551     -0.27821448879627
  C   1.76765336144542      0.81260233183918      0.98353872044186
  N   2.49168952196796      1.07770345980276      1.87010641006662
  C   -1.31094026431560     -0.69541924336289     -0.71030079101056
  H   -0.82096722394981     -1.49840321105975     -1.26527539293152
  H   -1.58959340772538      0.09115457699823     -1.41479202624550
  H   -2.22457580825515     -1.10289349006740     -0.27241647892866
  N   -1.06060582058398      0.86025471120353      1.25864659565327
  H   -1.62180160006875      0.42375979628150      1.97721902211647
  H   -1.65379067886501      1.47499696471547      0.71511497682977
