16
Coordinates from ORCA-job run
  C   0.97632722540018      0.09851770448277      0.21600255911385
  C   -0.55562443585451      0.12069611022699      0.35197928776526
  Cl  1.77877049363067     -0.29715271731508      1.74877295146145
  H   -0.76091236172896      0.79452249641498      1.18828645037017
  N   1.42804842146577      1.51666070413809     -0.16204558086918
  O   2.26813405810130      1.62172769285708     -1.04246587677538
  O   0.91383170103775      2.41955389235298      0.48156715688969
  C   1.40186555921554     -0.82217109806856     -0.82781637012890
  N   1.66635995229782     -1.63080015380794     -1.63847930473579
  C   -1.11601677456446     -1.26339675095585      0.63832988075747
  H   -2.19440326940723     -1.18418078073289      0.79048225892464
  H   -0.67595647942802     -1.71012504138915      1.53026195183689
  H   -0.93490378867375     -1.93189863476948     -0.20788827964249
  N   -1.04027412997684      0.68086929145805     -0.89803404277789
  H   -1.62408092903370      0.03345684463089     -1.40794877886450
  H   -1.53216524248156      1.55172044047711     -0.76300426332529
