16
Coordinates from ORCA-job run
  C   0.96109637701943      0.08894822632205      0.24797257410074
  C   -0.57314102505573      0.11736336899745      0.33821063541855
  Cl  1.71091329923057     -0.29267891252004      1.81119747697722
  H   -0.80598794249505      0.76624339774754      1.18852908606163
  N   1.44037441655471      1.50003126104763     -0.12533834800151
  O   2.37733066158536      1.58537029487551     -0.90443928357106
  O   0.85431528575935      2.41974408524616      0.42909239891266
  C   1.42097780049661     -0.84189246285227     -0.77191545940857
  N   1.72813350651503     -1.65836820846399     -1.55914427099935
  C   -1.13882965600756     -1.27417835542939      0.57033640081533
  H   -0.70597035509764     -1.74975840757389      1.45052851815769
  H   -2.21824724868044     -1.19964868048636      0.71901034143549
  H   -0.95115969182815     -1.91185409138267     -0.29743896907069
  N   -1.02207356921395      0.67642245932185     -0.92491751994594
  H   -1.76553909848500      0.13388445617490     -1.33992110429308
  H   -1.31219276029753      1.63937156897553     -0.83176247658911
