15

C	-0.50736	0.059929	-1.435685
C	0.0	0.0	0.0
F	-0.034575	-1.037447	-2.085505
H	1.094281	0.0	0.0
C	-1.969054	0.089004	-1.565859
N	-3.140441	0.053442	-1.649838
N	0.061657	1.264904	-2.198237
O	-0.33478	1.34594	-3.355562
O	0.866163	1.980138	-1.626003
C	-0.477502	-1.221153	0.63159
N	-0.868659	-2.216237	1.118675
N	-0.476656	1.169523	0.807996
O	-0.133376	1.185712	1.981391
O	-1.163898	2.01295	0.233849
Br	3.255283	0.0	0.0
