15

C	-0.565714	0.070804	-1.413777
C	0.0	0.0	0.0
F	-1.902519	0.302405	-1.376557
H	1.093719	0.0	0.0
C	0.080264	1.034775	-2.304206
N	0.530528	1.814485	-3.059764
N	-0.368474	-1.322037	-2.055017
O	0.757233	-1.556244	-2.465118
O	-1.350008	-2.049639	-2.069619
C	-0.515945	-1.15457	0.715073
N	-0.927262	-2.110153	1.261349
N	-0.371196	1.257117	0.745859
O	-0.448677	2.284837	0.080851
O	-0.499601	1.16356	1.957985
Br	3.225135	0.0	0.0
