15

C	-0.419551	-0.003314	-1.465683
C	0.0	0.0	0.0
F	0.326786	0.834676	-2.19809
H	1.096207	0.0	0.0
C	-0.357878	-1.356123	-2.034291
N	-0.345562	-2.421041	-2.530775
N	-1.896632	0.438707	-1.625929
O	-2.665431	-0.003652	-0.784263
O	-2.157904	1.139984	-2.586969
C	-0.490287	-1.140652	0.750376
N	-0.849341	-2.076764	1.362745
N	-0.404572	1.276034	0.678861
O	-0.350597	1.282906	1.900234
O	-0.695621	2.22288	-0.046029
Br	3.22538	0.0	0.0
