12

C	-0.459922	0.010411	-1.455249
C	0.0	0.0	0.0
Br	0.356704	1.588559	-2.353144
H	1.093125	0.0	0.0
H	-0.341429	0.919882	0.484384
C	-0.032011	-1.188513	-2.178915
N	0.286779	-2.135305	-2.79872
C	-1.906168	0.168834	-1.596241
N	-3.072408	0.301358	-1.680794
C	-0.51584	-1.162518	0.695032
N	-0.893662	-2.113662	1.27569
H	2.590685	0.0	0.0
