12

C	-0.459472	0.008953	-1.454374
C	0.0	0.0	0.0
Br	0.362166	-1.557336	-2.372294
H	1.093066	0.0	0.0
H	-0.340275	-0.926092	0.472989
C	-1.904145	-0.151841	-1.599324
N	-3.069611	-0.286933	-1.684912
C	-0.032808	1.218159	-2.161052
N	0.288329	2.17575	-2.763353
C	-0.514656	1.153878	0.709724
N	-0.89226	2.097883	1.302096
H	2.591174	0.0	0.0
