12

C	-0.46053	0.017402	-1.453839
C	0.0	0.0	0.0
Br	0.345487	-1.556034	-2.370346
H	1.093092	0.0	0.0
H	-0.341598	-0.928341	0.467908
C	-1.909952	-0.123808	-1.594157
N	-3.078172	-0.242758	-1.670455
C	-0.020229	1.22461	-2.157337
N	0.314048	2.186094	-2.746183
C	-0.515072	1.149893	0.716376
N	-0.898821	2.090901	1.309325
H	2.589382	0.0	0.0
