12

C	-0.447334	0.000354	-1.440215
C	0.0	0.0	0.0
Br	-2.459702	-0.177801	-1.640696
H	1.095222	0.0	0.0
H	-0.301096	-0.937935	0.474757
C	-0.095753	1.239374	-2.130764
N	0.175782	2.233347	-2.696778
C	0.106483	-1.14967	-2.155436
N	0.542069	-2.069991	-2.742675
C	-0.519095	1.132	0.73677
N	-0.897874	2.058846	1.353753
H	2.55621	0.0	0.0
