12

C	-0.443584	-0.011157	-1.459964
C	0.0	0.0	0.0
Br	0.294425	1.573858	-2.399379
H	1.093179	0.0	0.0
H	-0.304804	-0.943853	0.46437
C	0.058113	-1.210091	-2.139397
N	0.432764	-2.159608	-2.722238
C	-1.895238	0.049998	-1.622963
N	-3.066525	0.088098	-1.728
C	-0.553832	1.121283	0.73025
N	-0.957166	2.034484	1.352275
H	2.588395	0.0	0.0
