13

C	-0.469785	0.02699	-1.459482
C	0.0	0.0	0.0
Cl	0.030595	-1.492498	-2.285095
H	1.093726	0.0	0.0
H	-0.406499	-0.909613	0.45471
C	-1.931644	0.113216	-1.545255
N	-3.106191	0.146913	-1.550855
C	0.114552	1.162414	-2.177492
N	0.543585	2.071687	-2.785487
N	-0.466334	1.235216	0.620319
H	-1.174658	1.069621	1.32408
H	0.337374	1.675241	1.049694
F	2.606414	0.0	0.0
