13

C	-0.464408	-0.03029	-1.462366
C	0.0	0.0	0.0
Cl	0.012583	1.501179	-2.279497
H	1.093521	0.0	0.0
H	-0.408825	0.91103	0.452519
C	0.146907	-1.154008	-2.178733
N	0.593484	-2.053207	-2.787674
C	-1.924774	-0.145943	-1.557875
N	-3.098727	-0.203869	-1.570749
N	-0.458451	-1.238233	0.619046
H	0.342717	-1.664243	1.067346
H	-1.183701	-1.086272	1.305284
F	2.604596	0.0	0.0
