13

C	-0.406665	0.028812	-1.461735
C	0.0	0.0	0.0
Cl	-2.230278	0.007575	-1.670948
H	1.093753	0.0	0.0
H	-0.384301	-0.932921	0.431277
C	0.071097	1.249198	-2.116561
N	0.43126	2.234871	-2.643048
C	0.103198	-1.148403	-2.170645
N	0.499661	-2.092758	-2.745263
N	-0.455766	1.213738	0.656722
H	0.329793	1.578652	1.180046
H	-1.226001	1.044875	1.288357
F	2.582896	0.0	0.0
