13

C	-0.463229	-0.05547	-1.461985
C	0.0	0.0	0.0
Cl	0.010991	1.463459	-2.303663
H	1.093628	0.0	0.0
H	-0.409622	0.918203	0.436866
C	0.151079	-1.189347	-2.159543
N	0.599656	-2.096593	-2.754972
C	-1.923356	-0.175757	-1.556729
N	-3.09715	-0.236739	-1.570369
N	-0.457654	-1.228165	0.639036
H	0.343279	-1.645365	1.096288
H	-1.185008	-1.066355	1.321089
F	2.604447	0.0	0.0
