13

C	-0.47279	0.021388	-1.458562
C	0.0	0.0	0.0
Cl	0.040002	-1.495816	-2.283833
H	1.093669	0.0	0.0
H	-0.404428	-0.908473	0.458435
C	-1.936785	0.095636	-1.542269
N	-3.112299	0.119218	-1.546067
C	0.102178	1.162371	-2.176449
N	0.532828	2.074996	-2.777395
N	-0.468009	1.23621	0.61906
H	-1.162297	1.067435	1.33471
H	0.339641	1.68351	1.036985
F	2.612686	0.0	0.0
