13

C	-0.407755	-0.034324	-1.460991
C	0.0	0.0	0.0
Cl	-2.233085	-0.015696	-1.667249
H	1.093702	0.0	0.0
H	-0.383954	0.934721	0.427956
C	0.097919	1.141233	-2.175241
N	0.492902	2.084252	-2.753249
C	0.069479	-1.256355	-2.112602
N	0.430085	-2.243236	-2.63642
N	-0.45558	-1.211033	0.661834
H	0.328741	-1.571195	1.190865
H	-1.22966	-1.039565	1.288379
F	2.582977	0.0	0.0
