13

C	-0.483253	0.036754	-1.456634
C	0.0	0.0	0.0
Cl	0.325621	-1.249935	-2.41353
H	1.097123	0.0	0.0
H	-0.380709	0.912543	0.479014
C	-1.931929	-0.186995	-1.547857
N	-3.097863	-0.325493	-1.603233
C	-0.177727	1.332355	-2.072098
N	0.043676	2.383515	-2.548127
N	-0.469539	-1.22995	0.621745
H	0.337967	-1.672577	1.041317
H	-1.15528	-1.054026	1.342541
F	2.605178	0.0	0.0
