17

C	-0.577459	-0.041985	-1.430257
C	0.0	0.0	0.0
Cl	0.240367	1.18022	-2.419729
H	1.091221	0.0	0.0
N	-0.250873	-1.392507	-2.076035
O	-1.027251	-1.802893	-2.93461
O	0.776483	-1.948556	-1.715488
C	-2.07155	0.176548	-1.462801
H	-2.576588	-0.6266	-0.919006
H	-2.278757	1.135	-0.98649
H	-2.433193	0.186966	-2.489161
C	-0.487836	-1.184431	0.721452
N	-0.953145	-2.078801	1.329013
N	-0.408508	1.244541	0.648452
H	0.368138	1.574432	1.213737
H	-1.212739	1.10352	1.250141
Br	3.449525	0.0	0.0
