17

C	-0.459309	-0.024456	-1.458528
C	0.0	0.0	0.0
Cl	-2.232034	-0.204211	-1.539397
H	1.091469	0.0	0.0
N	-0.098611	1.311062	-2.107481
O	-0.712628	1.622918	-3.123333
O	0.84139	1.919706	-1.616481
C	0.237017	-1.099235	-2.26323
H	1.317195	-0.953455	-2.161498
H	-0.026748	-2.081174	-1.868922
H	-0.06725	-1.037133	-3.309123
C	-0.401315	-1.260687	0.63699
N	-0.748437	-2.238418	1.189144
N	-0.506232	1.16821	0.703805
H	-1.248293	0.922247	1.343954
H	0.259744	1.583827	1.218109
Br	3.44913	0.0	0.0
