17

C	-0.548722	0.005593	-1.434833
C	0.0	0.0	0.0
Cl	0.131044	1.412023	-2.280028
H	1.095229	0.0	0.0
N	-0.073893	-1.23185	-2.191589
O	-0.447868	-1.331281	-3.356382
O	0.60463	-2.04822	-1.579844
C	-2.058211	0.037793	-1.509612
H	-2.403636	0.886857	-0.921626
H	-2.377923	0.133298	-2.546148
H	-2.466229	-0.885213	-1.088395
C	-0.523775	-1.152903	0.729148
N	-1.008596	-2.018411	1.358375
N	-0.473317	1.236227	0.667264
H	-0.545858	1.047241	1.660707
H	0.281539	1.908133	0.565585
Br	3.441289	0.0	0.0
