17

C	-0.432497	0.007054	-1.460167
C	0.0	0.0	0.0
Cl	-2.2005	0.086757	-1.590634
H	1.095003	0.0	0.0
N	0.138837	1.291807	-2.091939
O	-0.454577	1.789441	-3.039262
O	1.217951	1.662705	-1.661326
C	0.093132	-1.159693	-2.276649
H	-0.22608	-1.06201	-3.316947
H	-0.296164	-2.098603	-1.879694
H	1.184991	-1.175085	-2.228053
C	-0.475845	-1.23107	0.629934
N	-0.929711	-2.172677	1.179536
N	-0.469946	1.198052	0.667783
H	0.223122	1.579572	1.299408
H	-1.340355	1.048741	1.153122
Br	2.748087	0.0	0.0
