18

C	0.0	0.0	0.0
C	-0.27122	0.005584	-1.55166
Br	1.951112	0.0	0.0
H	0.298021	0.852599	-1.935497
N	-0.566169	1.245909	0.463364
H	-1.584784	1.062598	0.380029
H	-0.370166	1.322985	1.457702
C	-0.500878	-1.205571	0.777186
H	-0.231408	-1.076323	1.83118
H	-0.093017	-2.144797	0.412273
H	-1.591588	-1.177693	0.676904
N	-1.607633	0.006519	-2.011645
H	-2.314452	-0.118964	-1.235877
H	-1.799195	0.886368	-2.467413
N	0.42078	-1.180938	-2.243751
O	0.123986	-2.322131	-1.90087
O	1.161571	-0.911365	-3.191189
F	-3.128561	0.0	0.0
