18

C	0.0	0.0	0.0
C	-0.457588	0.008438	-1.470637
Br	2.076826	0.0	0.0
H	-1.556333	0.07649	-1.324112
N	-0.511105	1.047068	0.805691
H	-0.391069	1.93425	0.328735
H	-1.537342	0.821221	0.74787
C	-0.384882	-1.331332	0.626703
H	-1.477683	-1.35456	0.564943
H	0.058746	-2.172746	0.101093
H	-0.063683	-1.314195	1.669475
N	-0.066908	-1.144083	-2.204233
H	-0.551255	-1.163822	-3.092006
H	0.929445	-1.114368	-2.384413
N	-0.013114	1.293781	-2.168721
O	-0.473569	2.363306	-1.765988
O	0.771839	1.197832	-3.11549
F	-2.842409	0.0	0.0
