18

C	0.0	0.0	0.0
C	-0.494157	0.008215	-1.464401
Br	1.994735	0.0	0.0
H	-1.591147	0.083622	-1.302332
N	-0.516338	1.056631	0.811784
H	-1.541383	0.851964	0.745416
H	-0.370379	1.942672	0.340661
C	-0.424675	-1.320732	0.63033
H	-0.002365	-2.176256	0.108637
H	-1.517549	-1.312608	0.564291
H	-0.104176	-1.309138	1.67389
N	-0.122741	-1.148955	-2.202417
H	-0.617371	-1.163954	-3.084903
H	0.871835	-1.128724	-2.396988
N	-0.049187	1.287611	-2.174311
O	0.71567	1.180597	-3.135963
O	-0.481094	2.365715	-1.762916
F	-2.870411	0.0	0.0
