13
Coordinates from ORCA-job run
  C   0.64841718707236     -0.47968184090681      0.35834045399968
  C   -0.87233946994687     -0.55125704096875      0.38387015230052
  F   1.08427259342908     -1.80351611028916      0.36552995896601
  H   -1.21447322886749     -1.04489898770089      1.29321172418108
  H   1.00664672445135     -0.01527572703223      1.27984547411243
  H   -1.25381247761400     -1.05413994359580     -0.50274120506280
  C   1.19701539605683      0.21930868334788     -0.86113826969719
  H   0.81637033000635     -0.24722717757863     -1.77189731640184
  H   0.91996748934554      1.27529686567762     -0.86485475858187
  H   2.28576115780292      0.15127383355923     -0.86177773092332
  N   -1.41705128675631      0.83086799911335      0.39209787818966
  O   -1.18614220486997      1.49942793262897      1.39858458934603
  O   -2.01363221010979      1.22082151374523     -0.60907095042838
