13
Coordinates from ORCA-job run
  C   0.46752252382720     -0.43857785212205     -0.05384693396064
  C   -0.74140231922230      0.44389588795695      0.15243621662057
  F   0.14693118173037     -1.35107317845098     -1.05730663684632
  H   -1.04455981602283      0.92705368446331     -0.77489378216298
  H   0.65481316931958     -1.01735936242696      0.85290938684791
  H   -0.55850363723692      1.18291950819775      0.93469809594512
  C   1.68480277854270      0.34978178046840     -0.47766059427462
  H   2.51170920236417     -0.33308017534148     -0.67609010825538
  H   1.47671797546337      0.91127064639998     -1.39061812011895
  H   1.99172397289577      1.04577355509542      0.30605616530108
  N   -1.90709682209677     -0.37261155563039      0.60863915723108
  O   -2.95264386943937     -0.27233219368288     -0.02563242359367
  O   -1.73001434012497     -1.07366074492706      1.60130957726679
