13
Coordinates from ORCA-job run
  C   0.65516626131805     -0.45943698675285      0.37025530074296
  C   -0.86316744341224     -0.48311958994659      0.48275809741365
  F   1.05927451613581     -1.78789472531015      0.49174023601884
  H   -1.16561494255450     -0.87583660551808      1.45328229457380
  H   1.07436086597941      0.08576416209155      1.21889564505929
  H   -1.30563168237070     -1.05874692109685     -0.32804365641800
  C   1.15255075349640      0.09430109442449     -0.94221554641325
  H   0.89769763328422      1.15101424326988     -1.04359719745336
  H   2.23803633558941     -0.00214938174748     -0.99117822486544
  H   0.71411752668916     -0.45482955500928     -1.77783091116236
  N   -1.37259432864265      0.90886144140764      0.38243852427860
  O   -1.07143745926874      1.66502405994630      1.30484377879275
  O   -2.01275803624364      1.21704876424144     -0.62034834056748
