13
Coordinates from ORCA-job run
  C   0.55202689761441     -0.72547659114445      0.11248945114686
  C   -0.72866570475746     -0.29849823925304      0.81253406447852
  F   0.23776530738198     -1.68852558774109     -0.83887831697957
  H   -1.33486715322714     -1.17294456455536      1.04573335798310
  H   1.17883533577933     -1.21645909275002      0.86493944113008
  H   -0.50495670349491      0.28054705977047      1.70747688287560
  C   1.30304954222458      0.39827057218781     -0.56269339413566
  H   0.71065979297919      0.81141162544051     -1.38001737914735
  H   1.52856490340130      1.20043649980260      0.14225045578558
  H   2.23637716290808      0.01375594489631     -0.97526182335513
  N   -1.53887215912438      0.57848429522103     -0.07544007556963
  O   -2.25057322844215      0.02578344402374     -0.90980051596254
  O   -1.39034399324280      1.79321463410149      0.05666785175015
