8
Coordinates from ORCA-job run
  C   -0.10614032115249      0.02756846646718     -0.02697480084164
  C   1.15930400204182     -0.29923809535403      0.30019450016872
  H   1.78519697565292      0.39786327311817      0.84455802950015
  H   1.56766133126213     -1.26471247048353      0.02601842524919
  C   -0.67098025161346      1.30082629646087      0.32639322491671
  N   -1.13069111028904      2.34272485288290      0.61759779146376
  C   -0.95536063983880     -0.87989008294482     -0.74853577919872
  N   -1.64698998606307     -1.62514224014675     -1.33825139125818
