8
Coordinates from ORCA-job run
  C   -0.10558617135375      0.03291492944956     -0.02478137770969
  C   1.14737174856318     -0.36271626751851      0.27247738476724
  H   1.88832877112066      0.35495582991222      0.60419674692831
  H   1.43076374325082     -1.40493446897715      0.18693865374362
  C   -0.50490145400796      1.40955620407426      0.07932390543850
  N   -0.82721678341072      2.53648361116122      0.16637643198068
  C   -1.10603461041599     -0.90045518011431     -0.46393507076756
  N   -1.92272524374624     -1.66680465798727     -0.82059667438109
