8
Coordinates from ORCA-job run
  C   -0.10195767613706      0.03257880994722     -0.03833773863340
  C   1.09865487232408     -0.36607036584252      0.42516682332211
  H   1.48910699146843     -1.34525015984724      0.17435947553796
  H   1.69021957385388      0.28709327823567      1.05581837215244
  C   -0.63948659154980      1.32657538456995      0.28093677262273
  N   -1.07429003737370      2.38577068026593      0.54671172422402
  C   -0.90455117150657     -0.81395095455242     -0.87766557859852
  N   -1.55869596107926     -1.50674667277659     -1.56598985062735
