8
Coordinates from ORCA-job run
  C   -0.10787275730479      0.02839108179417     -0.02367917586780
  C   1.16640541632700     -0.30548493974181      0.25920883295255
  H   1.45833219542053     -1.34620283848419      0.33726087225961
  H   1.91624429543201      0.46133611274972      0.41331963569399
  C   -0.52043061053600      1.40060406706896     -0.13270887681959
  N   -0.85156703045286      2.52493055773663     -0.22102855141971
  C   -1.11916882704233     -0.97121663380371     -0.23199609136192
  N   -1.94294268184355     -1.79235740731977     -0.40137664543713
