8
Coordinates from ORCA-job run
  C   -0.10858614664572      0.03010848465464     -0.01318531197017
  C   1.18105765134624     -0.32677700819835      0.14419548246913
  H   1.47724861979436     -1.36691679648317      0.07707389780666
  H   1.94001178978050      0.42143418600914      0.33996137051767
  C   -0.52599750789259      1.40268653685567      0.07126488133013
  N   -0.86328839114939      2.52648897073227      0.14134014029183
  C   -1.13304721712297     -0.94351763076350     -0.27366967919953
  N   -1.96739879811043     -1.74350674280670     -0.48698078124572
