8
Coordinates from ORCA-job run
  C   -0.10926869677151      0.02602917221966     -0.01538245329566
  C   1.19052198087911     -0.27757301597215      0.16825840352765
  H   1.61844767820716     -1.16398414856045     -0.28478761186039
  H   1.82574058369104      0.36021993259186      0.77148332187693
  C   -0.70070279516321      1.19564610216904      0.57407020126692
  N   -1.18157623644107      2.15293245009762      1.05777903317178
  C   -0.97138896155798     -0.80512344735914     -0.80997624709327
  N   -1.67177355284354     -1.48814704518644     -1.46144464759396
