8
Coordinates from ORCA-job run
  C   -0.10862367673519      0.02972318276979     -0.01504326271857
  C   1.17990471532975     -0.32100300492433      0.16392686383916
  H   1.47637287661608     -1.36287004118949      0.13696451531963
  H   1.93755128658469      0.43396622067861      0.33758828928336
  C   -1.13128363462534     -0.95299796023382     -0.24693678873326
  N   -1.96438963160840     -1.76017858932616     -0.43655612707210
  C   -0.52654257753126      1.40437094280673      0.01709600136006
  N   -0.86398935803031      2.52998924941868      0.04396050872172
