8
Coordinates from ORCA-job run
  C   -0.10472360571203      0.03272501294128     -0.02915833912055
  C   1.14020275844994     -0.35238376233310      0.31329217449457
  H   1.88846049631075      0.38173272114996      0.58788217915028
  H   1.41034140602989     -1.40174026268461      0.31986351951543
  C   -1.11379253052206     -0.92227303243584     -0.39665512830003
  N   -1.93620958317922     -1.70691994997299     -0.69594251817047
  C   -0.48722399428519      1.41788558407568     -0.04454766243653
  N   -0.79605494709208      2.55197368925964     -0.05473422513270
