8
Coordinates from ORCA-job run
  C   -0.10474914084834      0.03454970632890     -0.02739418164284
  C   1.13684374614199     -0.37752406849543      0.29519863269753
  H   1.40032052677142     -1.42731413168502      0.24287823999830
  H   1.88905923981798      0.33500665511210      0.61243395207297
  C   -1.11959563240991     -0.89108186925703     -0.44989795936105
  N   -1.94692378099544     -1.65185004973476     -0.79398448084506
  C   -0.47758960691685      1.42107501582531      0.03452886694421
  N   -0.77836535156085      2.55613874190592      0.08723693013594
