8
Coordinates from ORCA-job run
  C   -0.10649886364961      0.03143116279320     -0.02329264109451
  C   1.15868144167237     -0.34695136153237      0.24382513210127
  H   1.89389732254607      0.37956230899224      0.56912772657689
  H   1.45888452287852     -1.38279402282745      0.13793008042552
  C   -1.10050219702238     -0.91232743477820     -0.45486845893334
  N   -1.91089172586409     -1.68789240303939     -0.80606091431324
  C   -0.52689313999242      1.39919731317242      0.11041200543333
  N   -0.86667736056846      2.51877443721953      0.22292706980408
