8
Coordinates from ORCA-job run
  C   -0.10358154072907      0.03216650066224     -0.03321272174984
  C   1.12873639328583     -0.34878129894090      0.35617454936577
  H   1.86334162655049      0.38790602035515      0.65880804812604
  H   1.40201191983468     -1.39709549961987      0.37355398293338
  C   -1.09568804775783     -0.92593177446733     -0.43727027011742
  N   -1.90412238948947     -1.71295593555778     -0.76685092497948
  C   -0.48923548878252      1.41623023631788     -0.06400679251069
  N   -0.80046247291212      2.54946175125061     -0.08719587106776
