8
Coordinates from ORCA-job run
  C   -0.10276930652087      0.03582615667924     -0.03108347090349
  C   1.12094962675443     -0.38876710315307      0.33973808134318
  H   1.35732468908150     -1.44620512192228      0.35128077151005
  H   1.88573138488948      0.32117199631587      0.63167849222248
  C   -1.13333842691100     -0.88631579355088     -0.42230692990548
  N   -1.97318728918765     -1.64404209703602     -0.74194288449761
  C   -0.44042442151291      1.43247398983749     -0.05468096846834
  N   -0.71228625659297      2.57585797282963     -0.07268309130080
