15

C	-0.477028	-0.138745	-1.433982
C	0.0	0.0	0.0
F	-0.2225	1.123684	-2.041454
H	1.097901	0.0	0.0
H	-0.337035	-0.889191	0.540996
N	0.233808	-1.17706	-2.076996
H	1.230146	-1.048023	-1.929349
H	0.021834	-1.162549	-3.068795
N	-1.894845	-0.337237	-1.614333
H	-2.35385	0.316232	-0.98706
H	-2.103693	-1.276126	-1.294724
N	-0.622612	1.18523	0.602338
H	-0.19136	1.990617	0.16466
H	-0.345654	1.213996	1.576579
Cl	3.580323	0.0	0.0
