15

C	-0.453371	-0.04184	-1.450021
C	0.0	0.0	0.0
F	-1.820412	-0.486715	-1.433671
H	1.092333	0.0	0.0
H	-0.324469	-0.943604	0.45892
N	-0.340411	1.225595	-2.046712
H	-0.809212	1.228533	-2.941106
H	-0.710942	1.917776	-1.409856
N	0.238836	-1.009398	-2.260519
H	1.221301	-0.749373	-2.239303
H	0.163436	-1.914829	-1.808887
N	-0.514565	1.182164	0.698796
H	-1.311091	0.93975	1.270044
H	0.213211	1.540195	1.301038
Cl	3.542703	0.0	0.0
