15

C	-0.453722	0.071102	-1.448542
C	0.0	0.0	0.0
F	-1.821359	0.517204	-1.42296
H	1.092334	0.0	0.0
H	-0.323843	0.934305	0.477936
N	0.240764	1.052375	-2.239766
H	1.22165	0.784752	-2.229128
H	0.174516	1.947906	-1.76803
N	-0.343755	-1.186062	-2.06938
H	-0.716722	-1.888916	-1.443831
H	-0.817897	-1.169199	-2.961279
N	-0.516884	-1.195886	0.673463
H	0.209178	-1.5655	1.271982
H	-1.314742	-0.962118	1.247819
Cl	3.550462	0.0	0.0
