15

C	-0.56392	0.077467	-1.403433
C	0.0	0.0	0.0
F	-0.109509	1.292208	-1.954078
H	1.093364	0.0	0.0
H	-0.327651	0.904813	0.535472
N	-0.141438	-0.993407	-2.241027
H	-0.940313	-1.505825	-2.595801
H	0.431014	-1.629045	-1.696916
N	-2.005815	0.140207	-1.353036
H	-2.26682	0.999543	-0.867809
H	-2.363714	0.225142	-2.298208
N	-0.424397	-1.25398	0.620494
H	-1.395275	-1.200866	0.908485
H	0.157389	-1.443964	1.415091
Cl	3.612	0.0	0.0
