15

C	-0.584624	-0.007496	-1.394793
C	0.0	0.0	0.0
F	-2.044259	-0.047891	-1.166694
H	1.090602	0.0	0.0
H	-0.333457	0.92954	0.484425
N	-0.301447	1.181501	-2.113376
H	-0.452038	1.04442	-3.103753
H	-0.879348	1.937818	-1.773119
N	-0.21457	-1.159584	-2.121142
H	-0.937812	-1.378869	-2.796589
H	-0.140212	-1.919389	-1.452282
N	-0.436336	-1.214652	0.69715
H	0.199429	-1.394259	1.463154
H	-1.371173	-1.091684	1.062468
Cl	3.663974	0.0	0.0
