13

C	-0.411945	0.024393	-1.464164
C	0.0	0.0	0.0
Cl	-2.180276	0.253668	-1.654029
H	1.095487	0.0	0.0
H	0.073823	0.883514	-1.926349
C	-0.018927	-1.206985	-2.140163
N	0.242986	-2.206469	-2.700182
C	-0.560299	-1.118306	0.733915
N	-0.990635	-2.050725	1.304246
N	-0.373271	1.303479	0.645277
O	-0.22031	2.307182	-0.042946
O	-0.736461	1.280299	1.816038
Cl	3.090874	0.0	0.0
