13

C	-0.450988	0.001475	-1.465113
C	0.0	0.0	0.0
Cl	0.06758	1.499085	-2.274415
H	1.091559	0.0	0.0
H	0.086622	-0.818564	-1.945882
C	-1.887515	-0.187983	-1.647721
N	-3.030113	-0.373938	-1.839793
C	-0.506123	-1.191308	0.6687
N	-0.897171	-2.172004	1.184669
N	-0.54855	1.21808	0.693147
O	0.243878	2.097363	0.999027
O	-1.766078	1.235899	0.876251
Cl	3.192545	0.0	0.0
