13

C	-0.54517	-0.026555	-1.431131
C	0.0	0.0	0.0
Cl	0.010819	-1.517051	-2.231829
H	1.091477	0.0	0.0
H	-1.635375	-0.053272	-1.418556
C	-0.123637	1.142899	-2.199165
N	0.16671	2.060125	-2.872004
C	-0.506893	-1.126502	0.773983
N	-0.957753	-2.012581	1.399129
N	-0.481862	1.249844	0.696731
O	-1.439694	1.841763	0.196066
O	0.101403	1.560584	1.723817
Cl	3.134071	0.0	0.0
