13

C	-0.412789	0.013917	-1.464739
C	0.0	0.0	0.0
Cl	-2.184616	0.217373	-1.659918
H	1.095645	0.0	0.0
H	0.061814	0.877254	-1.93141
C	0.000336	-1.21252	-2.134933
N	0.286118	-2.207915	-2.686345
C	-0.555202	-1.113915	0.74411
N	-0.976152	-2.045851	1.322193
N	-0.382781	1.30903	0.632181
O	-0.773338	1.292536	1.795379
O	-0.215545	2.308348	-0.061223
Cl	3.096638	0.0	0.0
