13

C	-0.539019	-0.008989	-1.433381
C	0.0	0.0	0.0
Cl	0.008806	-1.490153	-2.257022
H	1.091481	0.0	0.0
H	-1.629371	-0.034017	-1.418996
C	-0.102491	1.176423	-2.168846
N	0.244748	2.129595	-2.760329
C	-0.535947	-1.121677	0.758314
N	-0.983401	-2.027289	1.357761
N	-0.480197	1.263994	0.677877
O	-1.660318	1.568672	0.478059
O	0.317645	1.865745	1.387426
Cl	3.158459	0.0	0.0
