13

C	-0.423511	-0.040377	-1.472862
C	0.0	0.0	0.0
Cl	0.026612	1.485217	-2.272794
H	1.091679	0.0	0.0
H	0.187968	-0.82166	-1.932499
C	-1.835097	-0.334345	-1.71109
N	-2.944896	-0.619876	-1.96742
C	-0.506743	-1.168957	0.704172
N	-0.911689	-2.117044	1.268083
N	-0.554138	1.227415	0.672712
O	0.224833	1.930928	1.301497
O	-1.761873	1.417199	0.535747
Cl	3.170162	0.0	0.0
