15

C	-0.497143	-0.01335	-1.453469
C	0.0	0.0	0.0
F	-0.19836	1.185137	-2.065395
H	1.090732	0.0	0.0
C	0.155721	-1.115212	-2.182181
N	0.617734	-1.990215	-2.814721
C	-1.9583	-0.217826	-1.54138
N	-3.1123	-0.413561	-1.627041
N	-0.500937	-1.144331	0.669344
H	-1.446013	-0.99529	1.003179
H	0.120435	-1.408668	1.421851
N	-0.489561	1.30977	0.594538
O	0.307522	2.228805	0.729177
O	-1.685855	1.343774	0.90409
Cl	3.235176	0.0	0.0
