15

C	-0.473104	-0.014292	-1.482406
C	0.0	0.0	0.0
F	0.237967	0.835436	-2.283444
H	1.09246	0.0	0.0
C	-0.323872	-1.3903	-1.999332
N	-0.249486	-2.490034	-2.405635
C	-1.906517	0.345637	-1.568024
N	-3.048334	0.622709	-1.592777
N	-0.461716	-1.077917	0.785389
H	-1.431108	-1.334348	0.668357
H	0.16556	-1.86676	0.737329
N	-0.476739	1.316335	0.576077
O	-1.234	1.293818	1.541131
O	-0.089857	2.325542	-0.007755
Cl	3.205984	0.0	0.0
