15

C	-0.531891	-0.0292	-1.444578
C	0.0	0.0	0.0
F	0.053537	0.90336	-2.258253
H	1.093619	0.0	0.0
C	-0.265054	-1.36318	-2.018359
N	-0.041964	-2.392672	-2.537032
C	-1.998036	0.182712	-1.439283
N	-3.162201	0.332322	-1.389842
N	-0.466328	-1.148122	0.696753
H	0.242714	-1.462153	1.34463
H	-1.325182	-0.970198	1.199391
N	-0.422422	1.29751	0.662566
O	-0.587536	1.265477	1.879457
O	-0.542574	2.293603	-0.046539
Cl	3.170661	0.0	0.0
