15

C	-0.545541	-0.025303	-1.440306
C	0.0	0.0	0.0
F	0.009326	0.920976	-2.257866
H	1.093577	0.0	0.0
C	-0.273059	-1.352547	-2.025342
N	-0.053088	-2.388592	-2.53189
C	-2.01267	0.174566	-1.409058
N	-3.17424	0.335241	-1.340692
N	-0.473246	-1.149493	0.690688
H	-1.308618	-0.94798	1.224892
H	0.247386	-1.483331	1.316501
N	-0.430884	1.299371	0.659043
O	-0.325	2.328006	0.00037
O	-0.839962	1.23571	1.817081
Cl	3.174027	0.0	0.0
