17
Coordinates from ORCA-job run
  C   -0.71886989969847      0.00363422351783      0.55525229029019
  C   0.74847714472762      0.00026955824574      0.12346510414431
  Cl  -0.92188477461576     -0.66521381060943      2.19331779882470
  H   1.31837220576865      0.48811984511886      0.91961182887875
  N   -1.53505750398848     -0.66784044934518     -0.36160303911917
  H   -2.51569302854527     -0.53811985790335     -0.14816604704419
  H   -1.32177920933682     -0.30324187280840     -1.28511334693043
  N   -1.14780865366892      1.50344999462333      0.72752297522957
  O   -2.32154747440920      1.76142340018991      0.49220227686324
  O   -0.29433660469954      2.30319145200101      1.09694955530747
  N   0.79242976715262      0.73884940259773     -1.14031248145476
  H   1.53692652201413      0.38670441134127     -1.72790041653342
  H   0.96596745853945      1.72112256481507     -0.96656039528688
  C   1.25431833626582     -1.41841580952166     -0.08010278581513
  H   1.10743336001599     -2.02498585033028      0.81275989398611
  H   0.72759750709526     -1.89492237101525     -0.90772542694042
  H   2.32445484738293     -1.39302483091720     -0.30259778439994
