17
Coordinates from ORCA-job run
  C   -0.66850844705220      0.49437364900846      0.47808667321015
  C   0.41082850992870     -0.45784261208797     -0.08007142462711
  Cl  0.08998177318256      1.98192577194447      1.06540056157007
  H   -0.15451401505962     -1.34536970985940     -0.38593276222950
  N   -1.48806506873592     -0.04914976659067      1.51268657963650
  H   -2.04300574533550     -0.80036966070707      1.11658356673805
  H   -0.85707134490071     -0.44055437739746      2.20495080094496
  N   -1.59859617234941      0.81750768393042     -0.69425224689441
  O   -2.30519354177125     -0.13050271717742     -1.03412439678019
  O   -1.54530353290984      1.90734775161351     -1.24131188436692
  N   1.24328891550979     -0.84867824340212      1.05223305127297
  H   1.97214822218237     -0.15988254731100      1.19996099663039
  H   1.69083109233481     -1.73571632265898      0.85987366726853
  C   1.16341716502887      0.09356556919866     -1.28499657317940
  H   1.89081174370742     -0.64815769302064     -1.62368416946096
  H   1.69995084593788      1.00798584761345     -1.02417490108269
  H   0.49899960030204      0.31551737690377     -2.12322753865044
