17
Coordinates from ORCA-job run
  C   -0.65565675904512     -0.00881652064980      0.56745673290200
  C   0.81888379803900     -0.02608943754017      0.12054230815117
  Cl  -0.85846317533703     -0.75132453707563      2.17010858462443
  H   1.38752294266520      0.39396720053063      0.95257598207743
  N   -1.52196443657155     -0.62735324588731     -0.34978984751767
  H   -1.44113208465205     -0.18155786134020     -1.25529286236401
  H   -2.48593090100090     -0.56418656757189     -0.04747932205659
  N   -1.02327974897369      1.49757285048952      0.79883464773704
  O   -2.05710082313357      1.90077147197593      0.27505435851757
  O   -0.24016776148175      2.16937953878896      1.45825438393140
  N   1.07966572110596      0.80313759730436     -1.04046540142854
  H   0.85439486941776      1.77814058800149     -0.89948794719200
  H   0.65042034910451      0.45375212543753     -1.88626500842904
  C   1.28336113602636     -1.44634651252280     -0.15923630794670
  H   2.34964341242400     -1.42439487450544     -0.38703227897304
  H   0.74788686415721     -1.86490680646542     -1.01377967021922
  H   1.11291659725566     -2.10074500896976      0.69500164818579
