18

C	-0.010391	0.000407	-1.539623
C	0.0	0.0	0.0
Br	-1.860971	0.2051	-2.279105
H	1.100112	0.0	0.0
N	0.806662	1.085904	-2.051897
H	0.425685	1.964828	-1.7103
H	1.701034	0.941235	-1.554602
C	0.580829	-1.298322	-2.056411
H	0.713157	-1.221174	-3.135766
H	-0.043215	-2.162558	-1.82529
H	1.554881	-1.380699	-1.561523
C	-0.603056	-1.201838	0.708593
H	-0.543986	-1.063539	1.791563
H	-0.037061	-2.101683	0.462552
H	-1.65342	-1.349844	0.434347
C	-0.500025	1.254263	0.52758
N	-0.908649	2.26393	0.972817
F	2.643132	0.0	0.0
