18

C	-0.327221	0.057585	-1.517681
C	0.0	0.0	0.0
Br	0.020007	-1.744885	-2.278136
H	1.095882	0.0	0.0
N	-1.692443	0.377762	-1.901158
H	-1.875379	1.326163	-1.583655
H	-2.33236	-0.235846	-1.406244
C	0.661225	1.013086	-2.164343
H	0.422139	2.03377	-1.840912
H	0.594858	0.962709	-3.25228
H	1.657153	0.759814	-1.783763
C	-0.560514	-1.17473	0.794145
H	-1.629427	-1.345126	0.61454
H	-0.421802	-0.991199	1.862303
H	-0.010609	-2.077928	0.534181
C	-0.476219	1.256612	0.557546
N	-0.897478	2.266862	0.991943
F	2.618286	0.0	0.0
