18

C	-0.30868	0.04366	-1.51125
C	0.0	0.0	0.0
Br	0.070698	-1.75151	-2.290513
H	1.095805	0.0	0.0
N	-1.715012	0.287409	-1.781038
H	-1.842213	0.426312	-2.778166
H	-1.973501	1.15097	-1.310884
C	0.689673	0.994034	-2.165271
H	1.686202	0.741482	-1.782576
H	0.444812	2.015145	-1.849678
H	0.638813	0.93908	-3.256916
C	-0.589719	-1.171481	0.778289
H	-0.02699	-2.074545	0.540355
H	-0.491554	-0.986835	1.851615
H	-1.645581	-1.330009	0.537106
C	-0.462199	1.263544	0.555198
N	-0.869704	2.27587	0.997875
F	2.6215	0.0	0.0
