18

C	-0.222664	-0.080848	-1.494291
C	0.0	0.0	0.0
Br	-2.246768	-0.888917	-1.868386
H	1.09838	0.0	0.0
N	-0.149751	1.156923	-2.112721
H	-0.276561	1.107877	-3.112601
H	-0.743097	1.860616	-1.69528
C	0.705934	-1.087188	-2.136469
H	0.449518	-2.104356	-1.84629
H	1.698987	-0.82786	-1.742477
H	0.663304	-1.017855	-3.22657
C	-0.383392	-1.230068	0.815766
H	0.010629	-1.107802	1.827643
H	0.096573	-2.111415	0.388347
H	-1.462224	-1.391562	0.85599
C	-0.554991	1.210566	0.565585
N	-1.014845	2.199418	1.008687
F	2.583546	0.0	0.0
