18

C	-0.145476	-0.064249	-1.537929
C	0.0	0.0	0.0
Br	-0.041031	1.952912	-2.241087
H	1.097008	0.0	0.0
N	0.946845	-0.792214	-1.988879
H	1.811196	-0.540932	-1.457352
H	1.054303	-0.798244	-2.992934
C	-1.476289	-0.519259	-2.099012
H	-2.288345	0.103266	-1.720116
H	-1.643435	-1.55957	-1.804266
H	-1.475837	-0.460775	-3.190119
C	-0.435306	-1.318759	0.652577
H	0.067334	-2.141356	0.141224
H	-1.51913	-1.474222	0.627864
H	-0.110458	-1.318795	1.69591
C	-0.641585	1.116649	0.655308
N	-1.210217	1.94487	1.267816
F	2.655225	0.0	0.0
