15

C	0.0	0.0	0.0
C	-0.407213	-0.010108	-1.471653
F	1.374686	0.0	0.0
H	0.390785	-0.540856	-2.002557
H	-0.381746	1.032359	-1.804883
C	-0.417005	1.185097	0.830839
H	0.030539	1.100388	1.821216
H	-0.026235	2.080111	0.336426
H	-1.506955	1.172954	0.857529
N	-0.366662	-1.314	0.655719
O	-0.34874	-2.305941	-0.069237
O	-0.509387	-1.331424	1.873073
C	-1.678835	-0.600674	-1.9068
N	-2.407407	-1.082297	-2.699507
F	-2.555585	0.0	0.0
