15

C	0.0	0.0	0.0
C	-0.417935	-0.021081	-1.476703
F	1.358544	0.0	0.0
H	-0.075231	0.92546	-1.914848
H	-1.516616	-0.065095	-1.484499
C	-0.387378	1.185183	0.878628
H	0.117151	1.05856	1.844842
H	-1.464944	1.242728	0.972504
H	0.013092	2.090229	0.402308
N	-0.313429	-1.441013	0.719385
O	-1.376094	-2.013374	0.877119
O	0.739854	-1.905608	1.216708
C	0.172114	-1.132582	-2.212472
N	0.53618	-2.062536	-2.828785
F	-2.44275	0.0	0.0
