15

C	0.0	0.0	0.0
C	-0.616834	0.105726	-1.373783
F	1.358462	0.0	0.0
H	-0.522902	1.147318	-1.695836
H	-1.716235	-0.07245	-1.13261
C	-0.509228	1.08058	0.916699
H	-0.121324	0.918672	1.921744
H	-0.149119	2.042037	0.539154
H	-1.604045	1.005996	0.868363
N	-0.351496	-1.368999	0.601279
O	-0.7138	-2.263815	-0.152609
O	-0.152746	-1.499316	1.806887
C	-0.021458	-0.747886	-2.386707
N	0.453879	-1.384925	-3.252101
F	-2.869761	0.0	0.0
