15

C	0.0	0.0	0.0
C	-0.463258	-0.011482	-1.434171
F	1.358568	0.0	0.0
H	-0.094598	0.919662	-1.884847
H	-1.575575	-0.031992	-1.371884
C	-0.410394	1.126018	0.898141
H	-0.015849	2.045427	0.438687
H	0.118477	1.001817	1.846755
H	-1.49527	1.149574	0.982655
N	-0.213851	-1.469417	0.664203
O	-1.259148	-2.129712	0.506094
O	0.751688	-1.868571	1.281644
C	0.102609	-1.125796	-2.188525
N	0.540834	-2.01693	-2.819958
F	-2.677539	0.0	0.0
