15

C	0.0	0.0	0.0
C	-0.609082	0.075546	-1.381621
F	1.358683	0.0	0.0
H	-1.724707	0.071902	-1.115935
H	-0.340931	-0.805886	-1.965121
C	-0.493974	1.085772	0.915883
H	-0.177965	2.045285	0.498113
H	-0.058146	0.960315	1.906277
H	-1.58594	0.991295	0.918457
N	-0.357659	-1.375595	0.583308
O	-0.434885	-1.467281	1.803972
O	-0.419236	-2.323989	-0.195672
C	-0.18625	1.277218	-2.074313
N	0.144522	2.246947	-2.650531
F	-2.853983	0.0	0.0
