15

C	0.0	0.0	0.0
C	-0.61695	0.124196	-1.373172
F	1.358719	0.0	0.0
H	-1.734082	0.104671	-1.096333
H	-0.344682	-0.73172	-1.992146
C	-0.494655	1.046604	0.960318
H	-0.195997	2.024134	0.573018
H	-1.585125	0.942214	0.970752
H	-0.044946	0.891708	1.94011
N	-0.347775	-1.39951	0.531186
O	-0.391311	-2.316466	-0.284118
O	-0.423115	-1.540504	1.746811
C	-0.208818	1.355857	-2.020662
N	0.101543	2.352866	-2.561293
F	-2.858941	0.0	0.0
