14

C	-0.489942	0.015633	-1.450604
C	0.0	0.0	0.0
Cl	0.218796	-1.39157	-2.361047
H	1.093325	0.0	0.0
H	-0.074971	0.900254	-1.933388
N	-1.91919	0.055158	-1.508651
H	-2.29474	-0.809931	-1.134284
H	-2.232759	0.142782	-2.467048
C	-0.520261	-1.204827	0.660761
N	-1.007821	-2.153203	1.152398
N	-0.439381	1.182395	0.732131
H	-1.346393	1.474759	0.384147
H	0.241507	1.918143	0.579644
Cl	3.341079	0.0	0.0
