14

C	-0.471229	0.006139	-1.444394
C	0.0	0.0	0.0
Cl	-2.377755	-0.180058	-1.415277
H	1.094952	0.0	0.0
H	-0.172311	-0.897431	-1.97241
N	-0.050695	1.164887	-2.080684
H	-0.403206	1.278653	-3.019099
H	-0.203591	1.974317	-1.492383
C	-0.439906	-1.214592	0.70012
N	-0.768826	-2.17347	1.293542
N	-0.419839	1.237169	0.652914
H	0.241925	1.452341	1.386707
H	-1.345013	1.139663	1.050665
Cl	3.319044	0.0	0.0
