14

C	-0.547385	-0.037795	-1.419674
C	0.0	0.0	0.0
Cl	0.153157	-1.474701	-2.299276
H	1.093363	0.0	0.0
H	-0.161897	0.839236	-1.935869
N	-1.975799	-0.027074	-1.41703
H	-2.323474	-0.905276	-1.047086
H	-2.331493	0.080042	-2.358385
C	-0.501625	-1.167775	0.74971
N	-0.990808	-2.045073	1.360142
N	-0.403932	1.272939	0.588623
H	0.207155	1.476254	1.368757
H	-1.365109	1.240284	0.900117
Cl	3.346823	0.0	0.0
