14

C	-0.407909	-0.090456	-1.485927
C	0.0	0.0	0.0
Cl	-0.104017	1.482774	-2.278178
H	1.095073	0.0	0.0
H	-1.481486	-0.275813	-1.584424
N	0.321444	-1.116721	-2.188433
H	0.021912	-2.024559	-1.851724
H	1.310668	-1.008653	-1.970168
C	-0.430354	-1.26588	0.619415
N	-0.858539	-2.237985	1.124289
N	-0.500005	1.158901	0.719809
H	0.221359	1.480079	1.352006
H	-1.330087	0.937844	1.253838
Cl	3.319505	0.0	0.0
