14

C	-0.361366	0.104371	-1.505736
C	0.0	0.0	0.0
Cl	-0.137958	1.811824	-2.03655
H	1.094759	0.0	0.0
H	-1.421299	-0.113928	-1.670845
N	0.437431	-0.75753	-2.331499
H	1.410994	-0.676614	-2.041687
H	0.143485	-1.715641	-2.189655
C	-0.468368	-1.329513	0.416743
N	-0.904779	-2.38702	0.683875
N	-0.494699	1.007544	0.918304
H	0.144907	1.790988	0.88652
H	-1.409864	1.334778	0.631205
Cl	3.326015	0.0	0.0
