14

C	0.0	0.0	0.0
C	-0.492398	-0.024569	-1.427438
Cl	1.866271	0.0	0.0
H	-1.591252	-0.034006	-1.354772
H	-0.140404	-0.921144	-1.946736
H	-0.145999	0.854676	-1.974372
C	-0.492398	1.222992	0.736529
H	-0.140404	1.223132	1.772636
H	-0.145998	2.136883	0.249692
H	-1.591252	1.155378	0.708283
N	-0.431824	-1.167835	0.673275
H	-0.135057	-2.010676	0.202055
H	-0.135056	-1.182377	1.638789
H	-3.641454	0.0	0.0
