12
Coordinates from ORCA-job run
  C   -0.08904664886396     -0.13491636141966     -0.01218170791656
  C   1.21653759433491      0.18105609693923      0.07000349727494
  H   1.91719063700298     -0.61856067422361      0.29315926022632
  N   -1.07953924450439      0.92349988437353     -0.28031098040732
  O   -2.15993499630915      0.80177020070041      0.29605497682593
  O   -0.76554051980602      1.82900739630295     -1.04823894123246
  C   -0.66943656324193     -1.49038525335867      0.19371083637592
  H   -1.31186305009408     -1.49589775010053      1.07536663925049
  H   0.12459861451051     -2.22687375533336      0.31825111026892
  H   -1.28737225820336     -1.77255651869482     -0.66224384598654
  C   1.77739566398327      1.48285203899275     -0.07852463680934
  N   2.32701077119123      2.52000469582178     -0.16404620787028
