12
Coordinates from ORCA-job run
  C   -0.22392069716590      0.15204606859613     -0.02844742880664
  C   0.87926447613933      0.91467531970284     -0.14530513045497
  H   0.78689563714410      1.97856802932824     -0.33501598037657
  N   -1.52442949066381      0.85005416721319     -0.18423941771871
  O   -2.52673851877540      0.13764401874844     -0.13068224570219
  O   -1.52221259078854      2.06552170240871     -0.35350680439494
  C   -0.30637182255041     -1.30978053757491      0.22857074668720
  H   0.69459605236910     -1.72704988855430      0.33915128792561
  H   -0.81948212071692     -1.81220712946756     -0.59317253040830
  H   -0.88210483447852     -1.50321761428366      1.13551536347646
  C   2.18212278962234      0.35488103364151     -0.01887764734920
  N   3.26338111986462     -0.09913516975864      0.08400978712226
