12
Coordinates from ORCA-job run
  C   -0.21932572329767      0.15939529949814      0.02186178546547
  C   0.90320906664501      0.90208412590117      0.04699066807894
  H   0.83857543975137      1.98034289870441      0.14538539256165
  N   -1.50033452037409      0.90114363059997      0.13538012611720
  O   -2.52204684940381      0.21500620509695      0.11735180596282
  O   -1.46441602851404      2.12340154706040      0.23827404405978
  C   -0.34076074712243     -1.31657818681300     -0.10507496478465
  H   -0.92816959851115     -1.57464641256122     -0.98808540997991
  H   0.64815553240202     -1.76854680099236     -0.18261240024342
  H   -0.86147170172781     -1.73048506906372      0.76034696627821
  C   2.18964097905366      0.30088856309615     -0.05387100924931
  N   3.25594415109894     -0.19100580052690     -0.13694700426679
