12
Coordinates from ORCA-job run
  C   -0.08617349328365     -0.13334763458212      0.03181772648428
  C   1.17028519570016      0.30206316990534      0.23939652662342
  H   1.91587938122028     -0.42951100146599      0.53772434005894
  N   -1.12418571279902      0.81776790624531     -0.40565303762933
  O   -1.08990680775646      1.95972053237479      0.04486119163167
  O   -1.95615247730064      0.37346884562741     -1.19603619311590
  C   -0.54903839248698     -1.54283899181167      0.15726948199737
  H   -1.40866449065205     -1.60112328248009      0.82950276722436
  H   0.25186992269069     -2.17053674620643      0.54840569093692
  H   -0.86825788337999     -1.92354761708374     -0.81387731970372
  C   1.63395162693058      1.63988802833604      0.07698474966260
  N   2.11139313111707      2.70799679114116     -0.05039592417060
