12
Coordinates from ORCA-job run
  C   -0.22129513943573      0.15836683435492     -0.00807735713519
  C   0.86786168170238      0.89288194392558      0.28652592610387
  H   0.77358061254387      1.95981384684635      0.45816831736370
  N   -1.51092227841476      0.89032715922243     -0.06745341729708
  O   -1.50208959804374      2.10859281015775      0.07942642834136
  O   -2.51157476848164      0.20101483888034     -0.26406881612574
  C   -0.29865341659003     -1.30210300548222     -0.27383769748442
  H   0.69551199899849     -1.74590434790800     -0.22041290770299
  H   -0.72525857157188     -1.48580472414998     -1.26176596341467
  H   -0.95185208893126     -1.78637419937628      0.45423503889736
  C   2.15841586625884      0.29828073020768      0.37292986015289
  N   3.22727570196547     -0.19009188667857      0.44433058830093
