12
Coordinates from ORCA-job run
  C   -0.08198752569952     -0.13679264291255     -0.02816368916430
  C   1.20716947159047      0.24059440463120      0.05498958265584
  H   1.95809284852311     -0.53994821174235      0.13844121344113
  N   -1.13775781155270      0.88907538378823     -0.10948496493977
  O   -2.18505132174366      0.62473135369598      0.48002394127327
  O   -0.90468264586682      1.91001655071587     -0.75097595672907
  C   -0.58055569258248     -1.53930701013105      0.00106854204631
  H   -1.18555107601444     -1.70648159880972      0.89326997778040
  H   0.25587164142037     -2.23841026475455     -0.00703346905054
  H   -1.21660258664048     -1.73390321948083     -0.86599965278111
  C   1.69085107581089      1.58101099981220      0.07493116314437
  N   2.18020362275525      2.65041425518757      0.11893331232346
