12
Coordinates from ORCA-job run
  C   -0.08272452929745     -0.13728476569423     -0.02223949467169
  C   1.20850447535004      0.23607803397747      0.04425176077758
  H   1.95750559283266     -0.47184721752966     -0.29920521047099
  N   -1.13650036855674      0.80271834874859      0.40163872928095
  O   -2.17829431777610      0.76693251203874     -0.25219801716314
  O   -0.90698401714530      1.53519811258321      1.36033586441649
  C   -0.58519372103800     -1.43790676775675     -0.54423719875776
  H   -1.18086196488979     -1.27890518095796     -1.44415939929229
  H   -1.23194298927739     -1.91820967569414      0.19423348373344
  H   0.24890879449971     -2.10163774677094     -0.77243374267583
  C   1.69698851426926      1.49544009739325      0.49879730490034
  N   2.19059453102910      2.50942424966243      0.83521591992290
