12
Coordinates from ORCA-job run
  C   -0.08614635134325     -0.13708129221922     -0.00324445926769
  C   1.20394690489002      0.21411919165079      0.14944085422998
  H   1.89235055556598     -0.53859036063586      0.52311671803277
  N   -1.06212290409727      0.86108781880673     -0.47717077669517
  O   -2.18605663096866      0.78553729108104      0.01823001243737
  O   -0.69401406304502      1.67641939753197     -1.31872609673647
  C   -0.66683992788246     -1.47079124727405      0.31345546868537
  H   -1.20529809822013     -1.86536808665175     -0.55164393975587
  H   -1.38227336146804     -1.38646514301361      1.13264301601691
  H   0.12184506656586     -2.17042376499640      0.59081707954097
  C   1.76086677478251      1.50099236497598     -0.10647909743787
  N   2.30474203522045      2.53156383074437     -0.27043877905030
