12
Coordinates from ORCA-job run
  C   -0.08993816319614     -0.13097002438461      0.03129844615866
  C   1.17904061340306      0.26593022977681      0.24006692663627
  H   1.90298701953918     -0.48856972092450      0.53449718632930
  N   -1.09935118781609      0.85205682824221     -0.40186684431388
  O   -1.94277687600707      0.43632127384902     -1.19562183506256
  O   -1.03261673056975      1.99006994147784      0.05494217166827
  C   -0.59446212247729     -1.52651922332409      0.15188005662916
  H   -1.45481404174902     -1.56215289545002      0.82478350033711
  H   -0.92604071440524     -1.89359671293621     -0.82040958960721
  H   0.18785147564685     -2.17948763004436      0.53920279580301
  C   1.68185099584622      1.59012454641224      0.08221884833235
  N   2.18926973178530      2.64479338730565     -0.04099166291047
