12
Coordinates from ORCA-job run
  C   -0.09579499470644     -0.12421185345776     -0.04038577467035
  C   1.22584403105544      0.10877676152768      0.06123893933280
  H   1.90229396277566     -0.61057344818514     -0.39157232245153
  N   -1.05158787382560      0.84274996221721      0.52899383070962
  O   -2.09026500864177      1.00571399383194     -0.11052102063499
  O   -0.75294103457165      1.40138572808286      1.58110092776435
  C   -0.72319129199654     -1.28060703639338     -0.73709360222887
  H   -1.41422723537408     -1.79789286465656     -0.06687672243821
  H   0.04134608426001     -1.98266096804914     -1.07009519945018
  H   -1.29960525284232     -0.93629110743768     -1.59691091426386
  C   1.83468509401098      1.23652234543549      0.68466483554823
  N   2.42444351985632      2.13908848708449      1.15645702278298
