12
Coordinates from ORCA-job run
  C   -0.09060933620538     -0.13213676915201      0.02290264647786
  C   1.16382547442159      0.26416879696390      0.30681385442584
  H   1.87416753111913     -0.49416481398700      0.62403485446803
  N   -1.08016005660414      0.85780224253007     -0.44034903219071
  O   -1.04067003454460      1.98588632825766      0.04359645113999
  O   -1.88014415200555      0.45766274855512     -1.28538831632837
  C   -0.59586099625928     -1.53084484959477      0.08724858394154
  H   -0.87430381940089     -1.87847309562035     -0.90856737427525
  H   0.16718571936004     -2.19024317427274      0.50113889518452
  H   -1.49038369499398     -1.58332270561840      0.71280810427788
  C   1.66884902206683      1.59283629315381      0.20426745665883
  N   2.17910434304622      2.65082899878469      0.13149387621984
