12
Coordinates from ORCA-job run
  C   -0.21539343473291      0.16255564960985      0.03330380290012
  C   0.92524957992786      0.87069177543127      0.13270258616712
  H   0.88670111118779      1.93843583308952      0.31961914391840
  N   -1.47857529602295      0.92582387916713      0.19334427552997
  O   -1.41295981978136      2.13327052346964      0.40230044874334
  O   -2.51717242305774      0.27168093884015      0.10151647150937
  C   -0.37271786018727     -1.29395201338630     -0.21810910352907
  H   0.60533159812398     -1.76412832242008     -0.32093204907780
  H   -0.95319491342238     -1.46132031543048     -1.12722659472036
  H   -0.91696706226422     -1.76446858735506      0.60274712130566
  C   2.19715354187473      0.24594986797812     -0.00369619220650
  N   3.25154497835445     -0.26553922899375     -0.11556991054024
