12
Coordinates from ORCA-job run
  C   -0.21861573124226      0.16074218779780     -0.01718690696128
  C   0.90651178098198      0.89979321805610     -0.00051837722363
  H   0.84560043048959      1.98179917962658     -0.04658297891313
  N   -1.49662802169053      0.91138495435774     -0.09683672554013
  O   -2.52147286789581      0.22958520175804     -0.09632229465832
  O   -1.45579021786285      2.13639348546245     -0.15718096622246
  C   -0.34541760149109     -1.31925155180082      0.03758714626906
  H   -0.87106395702747     -1.68808950611366     -0.84504196569338
  H   0.64185782845027     -1.77831823425409      0.08944233702830
  H   -0.93082121819947     -1.61767396300003      0.90912196551378
  C   2.19082276643920      0.29064248514936      0.07783015920676
  N   3.25601680904842     -0.20600745703949      0.14468860719443
