12
Coordinates from ORCA-job run
  C   -0.21541983692726      0.15968649167516      0.04932618688604
  C   0.92199926634801      0.87583631824492      0.12497510435966
  H   0.88484787998375      1.92999061258924      0.37769402621577
  N   -1.47381052438823      0.89294122549472      0.33469692776668
  O   -1.41606584904709      2.10154284261812      0.53977344797420
  O   -2.50116871013627      0.21494204170039      0.34335629871325
  C   -0.37059683212087     -1.28422250634101     -0.26818247029888
  H   0.60348008054623     -1.72810633634547     -0.47418801586147
  H   -0.84013076846320     -1.80567780056744      0.56773417847849
  H   -1.01974855038926     -1.41580280869447     -1.13569467759356
  C   2.18875481083103      0.27602036283963     -0.12524860833054
  N   3.23785903376317     -0.21615044321379     -0.33324239830965
