15
Coordinates from ORCA-job run
  C   -0.75083273925368      0.00957249313280     -0.65601871996239
  C   0.75191612316844      0.08016569246292     -0.33270583371098
  Cl  -1.03477126870843      0.19443909308678     -2.38662685668428
  H   1.22872463211038     -0.67314438791620     -0.96890219004753
  N   -1.20757533415542     -1.40587855533239     -0.24475111288815
  O   -2.06942812146956     -1.48562997661465      0.61897965469960
  O   -0.61985124833904     -2.32046994241115     -0.80085229893381
  C   -1.51781086028052      0.99463844325161      0.09158026035761
  N   -2.08505004541301      1.82874384727172      0.69567255357187
  C   1.03114007771069     -0.21563475680431      1.14415740551470
  H   2.10173051613953     -0.12470757643641      1.33195963382071
  H   0.72925876523434     -1.23266196677339      1.39942111561848
  H   0.50726347649803      0.48949255983446      1.79216607777706
  C   1.25502307507217      1.40033739946029     -0.70867003758713
  N   1.68026295168611      2.46173763378793     -0.97640965154577
