15
Coordinates from ORCA-job run
  C   -0.75828991165490     -0.42692518598494     -0.16246333155512
  C   0.50101581402004      0.38309511336160      0.20969007872736
  Cl  -0.59191857508976     -2.12756520997254      0.21969843739578
  H   0.25877274709481      1.42580724252473     -0.02490415908061
  N   -1.93300701765330      0.19793140063709      0.65007557074655
  O   -2.45072193193902     -0.46063595053976      1.53112917456526
  O   -2.18357491966763      1.34844301295917      0.31683872841759
  C   -1.07854138028349     -0.24780334672271     -1.57296544862085
  N   -1.29216278050728     -0.10138665733843     -2.71980356053526
  C   1.73564757255687     -0.05029616512666     -0.58200380766421
  H   2.57702956776932      0.58947317502137     -0.31175909194762
  H   2.00063096988338     -1.08366028028184     -0.35959529145123
  H   1.55301573719156      0.05329745332841     -1.65330022764016
  C   0.72566150256089      0.28610942852436      1.65259478021944
  N   0.93644260571852      0.21411596961015      2.80576814842309
