15
Coordinates from ORCA-job run
  C   -0.78332772930104     -0.37853650591632     -0.15690562640069
  C   0.52431811586917      0.35793090848300      0.20183216993692
  Cl  -0.74111356782177     -2.06837583381128      0.30090474121127
  H   0.35900227025304      1.40339553370675     -0.08196368197394
  N   -1.92259363920770      0.36105370410323      0.60743221986524
  O   -2.49720544249996     -0.22010807293179      1.50737999154556
  O   -2.08766662324649      1.51007974910548      0.21986201446633
  C   -1.07106839573675     -0.24121385536976     -1.57912392188048
  N   -1.26572324039624     -0.13764316181747     -2.73406144398286
  C   1.73651076586436     -0.19479687519189     -0.54922829003997
  H   2.61612480946067      0.39833730196986     -0.29503639199883
  H   1.92719611017163     -1.23219697898141     -0.27569680152834
  H   1.57531797688770     -0.12907321795357     -1.62690192563242
  C   0.72092325865104      0.30770798799161      1.65111167918801
  N   0.91030533105233      0.26543931661358      2.80939526722424
