15
Coordinates from ORCA-job run
  C   -0.75453239501316     -0.34472880502443     -0.31008360128419
  C   0.49680105996354      0.28541926243895      0.33648443760418
  Cl  -0.56993572285605     -2.06565462481059     -0.57649887329294
  H   0.24439347991768      1.33982602242876      0.49634893889054
  N   -1.93410925593884     -0.07234804086996      0.67138911175560
  O   -2.19970334357054      1.11749574641536      0.77821854148818
  O   -2.44083767404501     -1.01227758839820      1.25263583376780
  C   -1.07712221797408      0.33479670166064     -1.55840543873347
  N   -1.28931203247503      0.88828851851142     -2.57375952039762
  C   1.73601290794727      0.18100471493206     -0.55372984295100
  H   2.56885273173897      0.69276437849136     -0.06939083048327
  H   1.55053138813847      0.65903298748468     -1.51739856285445
  H   2.01559801640515     -0.85969375609727     -0.71518702544714
  C   0.72156513328422     -0.32861176215684      1.64574521445491
  N   0.92979792447740     -0.81431375500597      2.69463161748288
