15
Coordinates from ORCA-job run
  C   -0.76324595268184     -0.16080564513066     -0.63476466474645
  C   0.64826349994147      0.38212526418420     -0.30148661670736
  Cl  -0.66250808740514     -1.34880319549727     -1.92775967889654
  H   1.06519886931965      0.70036728887897     -1.26389713854308
  N   -1.30842335412997     -0.82305501113219      0.65294477788169
  O   -1.18833285094060     -2.02964739109629      0.77079333201457
  O   -1.74393316813696     -0.02430098213365      1.47196870678394
  C   -1.68234951056461      0.90230437667442     -1.01544450094893
  N   -2.39802006736387      1.76666002044555     -1.36652760975356
  C   1.55820047710737     -0.67274461083166      0.33514025611933
  H   2.57041594827779     -0.27163348082849      0.40071603635751
  H   1.22521018269122     -0.91954144955550      1.34404172910986
  H   1.57905669495417     -1.58156303395538     -0.26586779849289
  C   0.55604311477329      1.56646487400541      0.55433430759266
  N   0.54442420415802      2.51517297597255      1.24680886222921
