15
Coordinates from ORCA-job run
  C   -0.83036795194744      0.00186155325252     -0.55109564119295
  C   0.69704027442241      0.13741481478789     -0.42235310688895
  Cl  -1.35006172503598      0.25920559690034     -2.21672181978229
  H   1.11989672167730     -0.55596193044671     -1.15715697700605
  N   -1.16158684342016     -1.45524766371301     -0.16705590855473
  O   -0.61020319159485     -2.30700551020771     -0.84647517240879
  O   -1.89769575538624     -1.62603158767302      0.79426680408410
  C   -1.53697235197179      0.90444032440271      0.34522516046666
  N   -2.05696647876192      1.67444135750639      1.06576377608399
  C   1.18300390823117     -0.21702633013160      0.98650333044817
  H   0.96551160904517     -1.26037078183439      1.22051130371435
  H   0.71705814978417      0.42534977442645      1.73600450940818
  H   2.26356221515712     -0.07800331949238      1.03877468566384
  C   1.08299211709605      1.50025248649189     -0.78388229564434
  N   1.41578930270501      2.59668121573060     -1.04130864839117
