15
Coordinates from ORCA-job run
  C   -0.75957126517428     -0.14852343764020     -0.64292679615796
  C   0.64969891299410      0.38698055985248     -0.28879624108435
  Cl  -0.65013291635434     -1.31342389083470     -1.95604833144540
  H   1.07225452100655      0.72703897083569     -1.24127904384841
  N   -1.31612733263514     -0.83328281168668      0.62809138000858
  O   -1.18259980935062     -2.03994849789714      0.73128800829447
  O   -1.77196915842507     -0.05136507832319      1.45228117204949
  C   -1.67310675928644      0.92351424312483     -1.01177334039201
  N   -2.38351826724882      1.79664198048905     -1.35172336059561
  C   1.55804752780957     -0.67984621926254      0.32983400076256
  H   1.21973124859841     -0.95042308913217      1.33074748104632
  H   2.56869942756135     -0.27745189468963      0.41046680021800
  H   1.58502100266596     -1.57477126673674     -0.29134194805831
  C   0.54989350599283      1.55177623647769      0.59277935864186
  N   0.53167936184590      2.48308419542328      1.30840086056079
