15
Coordinates from ORCA-job run
  C   -0.74809198890244     -0.15463067044352     -0.65459868085248
  C   0.64428607280410      0.40666497918292     -0.27393859461513
  Cl  -0.59621994827164     -1.29332263377853     -1.98646038786415
  H   1.07027570965053      0.77182876541550     -1.21551977558738
  N   -1.30379882197390     -0.87418456190295      0.59721694008350
  O   -1.78504236169271     -0.11703021033837      1.43007764841285
  O   -1.14619574934800     -2.07949773495035      0.68016924212136
  C   -1.68143621978129      0.90275008018607     -1.01627902583866
  N   -2.40499611241692      1.76673852312570     -1.35192748001692
  C   1.56846464674255     -0.65016709150007      0.33838632900545
  H   2.56921831072427     -0.22765556550702      0.43742906048023
  H   1.62196636563012     -1.53434567208841     -0.29631313339495
  H   1.22435123530146     -0.94366314353893      1.33084902304532
  C   0.50735055656123      1.55389597859108      0.62537915487909
  N   0.45986830497268      2.47361895754689      1.35452968014185
