11
Coordinates from ORCA-job run
  C   -0.85530917197560     -0.23366068650583     -0.50471746520503
  C   0.67946478602027     -0.09599905460497     -0.36453794276394
  Cl  -1.41586239992693      0.81424361040967     -1.82533595434232
  H   1.11725088529430     -0.31421190935346     -1.34587163469259
  H   -1.08401784008509     -1.26410658746480     -0.78702313056205
  C   -1.53098154606031      0.09149053682036      0.74603096403325
  N   -2.06600885758866      0.34057930918867      1.76178885001018
  C   1.17739873070999     -1.07700314001662      0.60527757626511
  N   1.54954790891492     -1.88687437749231      1.36964630664371
  C   1.05969813906084      1.26573825873415      0.02134719633701
  N   1.36781936563627      2.35780404028514      0.32239523427668
