11
Coordinates from ORCA-job run
  C   -0.86192058944598     -0.36349260911991     -0.21135250353525
  C   0.57335677043034     -0.12793934118390      0.31799866251976
  Cl  -0.92790402362357     -0.13450212006978     -1.96868388045525
  H   0.54835277597950     -0.26703282405133      1.40703390081527
  H   -1.13660461348204     -1.40162650868842     -0.00746790604942
  C   -1.79333285598668      0.52925074747177      0.47066418255630
  N   -2.52817902777134      1.24024110068861      1.04878523932083
  C   1.02684337113406      1.23779535599804      0.04057041143268
  N   1.38655424689616      2.33677435980133     -0.16204403067424
  C   1.49508924042534     -1.11741663394881     -0.24819057837682
  N   2.21774470544420     -1.93205152689759     -0.68631349755387
