11
Coordinates from ORCA-job run
  C   -0.84121476701965     -0.41225962174918     -0.09798407683142
  C   0.60214545353530      0.13333295942077     -0.24327060728122
  Cl  -1.29032051548047     -1.28873348958518     -1.57656506092099
  H   0.63005100102842      0.78289845049051     -1.12645821445470
  H   -0.87816651282153     -1.12325710029124      0.73064589134967
  C   -1.76937897566706      0.68559668191347      0.14984806044209
  N   -2.50395283772694      1.58043458380845      0.34860552235276
  C   1.55100994114877     -0.96734700307271     -0.43750198186010
  N   2.30757639920442     -1.85231273320250     -0.58765569458620
  C   0.96395786407470      0.91789017514573      0.94171772249943
  N   1.22929294972405      1.54475709712186      1.89861843929067
