11
Coordinates from ORCA-job run
  C   -0.85676582859810     -0.39152071519030      0.04283722780440
  C   0.58172358912909      0.06698702891453     -0.30693271862392
  Cl  -1.44734313670050     -1.49155677342382     -1.22131271207589
  H   0.54985443467007      0.55662724078587     -1.28765234124625
  H   -0.84221562438405     -0.94758492596220      0.98318482965479
  C   -1.73448667983465      0.76739054363969      0.16530990113806
  N   -2.42783306525308      1.71091528762748      0.25867242010403
  C   1.48559574455945     -1.08467664161223     -0.38520804442422
  N   2.20701078859841     -2.00884522751826     -0.44416302413580
  C   1.06052524174332      1.02650678964562      0.69333755677407
  N   1.42393453607006      1.79575739309361      1.50292690503073
