11
Coordinates from ORCA-job run
  C   -0.82842306837212     -0.34398004387078     -0.33459452515807
  C   0.56888719137413     -0.17020386954288      0.30909155886041
  Cl  -0.83878290566191      0.28786263428545     -1.99132219192208
  H   0.50895540622261     -0.56067297253500      1.33369071380281
  H   -1.04906645974616     -1.41295493104171     -0.39200186540826
  C   -1.83646063032681      0.31768188377918      0.48759799809714
  N   -2.63326412115121      0.83559732053071      1.17798561244815
  C   0.95016925402209      1.24318624041719      0.37827379277756
  N   1.24406609388249      2.37712294410333      0.45486995713022
  C   1.56706784622805     -0.95611055039149     -0.42241240851296
  N   2.34685139352885     -1.61552865573399     -1.00117864211490
