15

C	0.0	0.0	0.0
C	-0.310249	-0.098985	-1.51527
F	1.355959	0.0	0.0
H	0.560632	-0.623621	-1.919987
H	-0.23185	0.953592	-1.832227
N	-0.628196	1.032283	0.669422
H	-1.653577	0.839706	0.466899
H	-0.489883	0.911646	1.667303
N	-0.254504	-1.394818	0.686379
O	-0.65193	-1.39021	1.849921
O	0.056607	-2.397925	0.053116
N	-1.523981	-0.770641	-1.959347
H	-1.824049	-0.301344	-2.805643
H	-2.253107	-0.577372	-1.241847
F	-2.955537	0.0	0.0
