15

C	0.0	0.0	0.0
C	-0.462556	-0.023234	-1.448519
F	1.360657	0.0	0.0
H	-0.354854	1.014773	-1.799516
H	-1.534066	-0.23423	-1.374083
N	-0.58598	0.988108	0.81383
H	-0.397585	1.884267	0.374817
H	-1.62164	0.7594	0.653273
N	-0.335558	-1.360542	0.655115
O	-0.919355	-2.215566	0.002393
O	0.073904	-1.506183	1.804457
N	0.286943	-0.976495	-2.263396
H	1.003017	-0.504117	-2.798484
H	-0.343249	-1.439576	-2.903027
F	-2.829548	0.0	0.0
