15

C	0.0	0.0	0.0
C	-0.476251	-0.090413	-1.448138
F	1.351479	0.0	0.0
H	-0.282008	0.912048	-1.850142
H	-1.560072	-0.225827	-1.357386
N	-0.578341	1.04711	0.744529
H	-0.385215	1.905717	0.237944
H	-1.614349	0.816162	0.614399
N	-0.356166	-1.307918	0.750242
O	-0.625537	-2.304898	0.082542
O	-0.250116	-1.298305	1.970137
N	0.261195	-1.048605	-2.286321
H	-0.056541	-0.912836	-3.239324
H	-0.049293	-1.970219	-2.007366
F	-2.825631	0.0	0.0
