15

C	0.0	0.0	0.0
C	-0.475847	-0.01353	-1.44629
F	1.363937	0.0	0.0
H	-1.560547	-0.138725	-1.341972
H	-0.017164	-0.848906	-1.98133
N	-0.540608	1.010942	0.807498
H	-1.569419	0.77523	0.730376
H	-0.406859	1.857052	0.258527
N	-0.346304	-1.360939	0.633115
O	-0.686087	-1.410059	1.805638
O	-0.156096	-2.346139	-0.083484
N	-0.151287	1.296059	-2.032611
H	0.672891	1.228601	-2.614119
H	-0.92217	1.598816	-2.610912
F	-2.813114	0.0	0.0
