18

C	-0.520095	-0.003145	-1.427251
C	0.0	0.0	0.0
Br	0.344245	1.449111	-2.452326
H	1.092883	0.0	0.0
N	-0.075587	-1.286916	-2.133903
O	-0.606394	-1.530472	-3.217988
O	0.790625	-1.963575	-1.593381
C	-2.018086	0.12858	-1.595576
H	-2.506678	-0.711389	-1.091545
H	-2.355145	1.061962	-1.144719
H	-2.286439	0.120573	-2.650541
C	-0.500154	-1.183255	0.680922
N	-0.943832	-2.120765	1.237962
C	-0.397707	1.245531	0.796212
H	-0.066223	2.141786	0.270101
H	-1.470693	1.310141	0.997943
H	0.139055	1.209249	1.747424
H	2.648997	0.0	0.0
