18

C	-0.522584	0.012242	-1.425955
C	0.0	0.0	0.0
Br	0.353538	1.461648	-2.441473
H	1.092865	0.0	0.0
N	-0.103738	-1.273187	-2.149358
O	0.722946	-1.991139	-1.60198
O	-0.616984	-1.478097	-3.248915
C	-2.019583	0.167961	-1.58882
H	-2.290374	0.16841	-2.643347
H	-2.339882	1.105959	-1.134613
H	-2.520803	-0.664993	-1.085089
C	-0.519158	-1.170329	0.686637
N	-0.984382	-2.092145	1.251915
C	-0.37273	1.254861	0.796628
H	-0.024618	2.142663	0.266902
H	-1.442867	1.34206	1.00404
H	0.170097	1.209672	1.743829
H	2.639859	0.0	0.0
