18

C	-0.342523	-0.162487	-1.463722
C	0.0	0.0	0.0
Br	-2.31468	-0.302164	-1.821603
H	1.106441	0.0	0.0
N	0.099846	1.098701	-2.204184
O	1.070849	0.995263	-2.948273
O	-0.515307	2.13784	-1.983079
C	0.356536	-1.363702	-2.046276
H	0.228987	-1.414091	-3.127358
H	-0.047235	-2.267121	-1.588656
H	1.419058	-1.266732	-1.78665
C	-0.416577	-1.191956	0.714065
N	-0.72647	-2.147011	1.328037
C	-0.462964	1.257255	0.727164
H	-1.536326	1.429971	0.618946
H	0.080771	2.124581	0.35328
H	-0.219916	1.144854	1.786486
H	2.604375	0.0	0.0
