18

C	-0.312416	0.035193	-1.488093
C	0.0	0.0	0.0
Br	0.387613	-1.595538	-2.299725
H	1.10819	0.0	0.0
N	-1.827162	0.105038	-1.783794
O	-2.399428	1.041395	-1.228214
O	-2.364743	-0.683692	-2.547801
C	0.340425	1.225352	-2.164157
H	1.396151	1.209851	-1.874236
H	-0.128289	2.14978	-1.82421
H	0.240847	1.148426	-3.249131
C	-0.532368	-1.181484	0.64927
N	-0.959043	-2.107209	1.237827
C	-0.31677	1.24974	0.826231
H	-1.383541	1.421646	0.975104
H	0.136043	2.129585	0.364336
H	0.176422	1.115317	1.793617
H	2.63796	0.0	0.0
