18

C	-0.341017	-0.002956	-1.473768
C	0.0	0.0	0.0
Br	-2.311162	-0.054611	-1.850642
H	1.105938	0.0	0.0
N	0.143343	1.316347	-2.073203
O	1.144788	1.2662	-2.781404
O	-0.465013	2.340071	-1.776058
C	0.330385	-1.154475	-2.177651
H	1.393556	-1.115795	-1.906853
H	-0.103495	-2.090082	-1.823096
H	0.208693	-1.08427	-3.258973
C	-0.435686	-1.251379	0.588053
N	-0.773468	-2.253511	1.104027
C	-0.452974	1.18427	0.847155
H	-0.214663	0.966067	1.891445
H	-1.523966	1.378069	0.754069
H	0.100641	2.078805	0.561863
H	2.602333	0.0	0.0
