18

C	-0.594416	0.07589	-1.40649
C	0.0	0.0	0.0
Br	0.171719	1.586115	-2.385962
H	1.092427	0.0	0.0
N	-0.177627	-1.197333	-2.153317
O	-1.026636	-2.090472	-2.185574
O	0.956789	-1.273353	-2.599954
C	-2.104056	0.201731	-1.454879
H	-2.559171	-0.611245	-0.887821
H	-2.463595	0.160696	-2.484685
H	-2.394222	1.158774	-1.021292
C	-0.434442	-1.232737	0.63877
N	-0.750494	-2.217959	1.200697
C	-0.372148	1.18835	0.890109
H	-0.097818	2.1194	0.391676
H	-1.429061	1.213438	1.16935
H	0.235958	1.113653	1.795239
H	2.644533	0.0	0.0
