18

C	-0.36851	-0.012046	-1.477703
C	0.0	0.0	0.0
Br	-0.057049	-1.782161	-2.245273
H	1.106189	0.0	0.0
N	-1.869161	0.261286	-1.6186
O	-2.651381	-0.588399	-1.206005
O	-2.194051	1.370347	-2.046913
C	0.448375	0.990883	-2.259722
H	0.215528	2.006121	-1.942975
H	1.499069	0.777594	-2.032761
H	0.248598	0.904844	-3.328358
C	-0.501216	-1.138582	0.747871
N	-0.862817	-2.020137	1.438152
C	-0.404052	1.300881	0.700369
H	0.066851	2.155151	0.212759
H	-1.48729	1.450977	0.736581
H	-0.020312	1.262638	1.722415
H	2.664666	0.0	0.0
