19

C	-0.013577	-0.002716	0.01876
C	-0.451943	-0.004307	-1.468204
F	1.394103	-0.130059	0.023877
H	-1.540836	-0.214031	-1.406822
C	-0.382947	1.306994	0.675938
H	0.159377	2.143816	0.23366
H	-0.128191	1.224441	1.733607
H	-1.464856	1.4397	0.570717
N	-0.57	-1.068939	0.790793
H	-1.593931	-0.915406	0.714202
H	-0.395013	-1.938734	0.296769
N	0.203999	-1.157031	-2.147239
O	-0.14777	-2.294521	-1.820184
O	1.074717	-0.934336	-2.993111
C	-0.172428	1.26973	-2.235999
H	-0.834375	2.051479	-1.861654
H	0.867753	1.58421	-2.135297
H	-0.383896	1.12706	-3.297197
H	-3.105082	-0.162999	-0.21819
