19

C	-0.017351	-0.01048	0.021702
C	-0.455159	-0.116957	-1.461514
F	1.388833	-0.151876	0.038113
H	-1.546526	-0.310598	-1.385687
C	-0.373324	1.347486	0.580891
H	-1.454389	1.481413	0.468769
H	-0.116264	1.341032	1.641218
H	0.174473	2.144707	0.076662
N	-0.585463	-1.011284	0.869486
H	-0.418653	-1.91679	0.441199
H	-1.607431	-0.853763	0.778775
N	0.18914	-1.322373	-2.054268
O	1.05718	-1.170901	-2.918559
O	-0.169135	-2.429423	-1.64107
C	-0.164159	1.095034	-2.320158
H	-0.376713	0.87708	-3.368225
H	0.878768	1.407017	-2.24205
H	-0.819343	1.907761	-2.0045
H	-3.110312	-0.157006	-0.216843
