15

C	-0.431231	0.030079	-1.466075
C	0.0	0.0	0.0
Cl	0.44875	1.234376	-2.41327
H	1.089931	0.0	0.0
N	-0.086123	-1.339921	-2.120058
O	0.745761	-2.032912	-1.561667
O	-0.659036	-1.566728	-3.177798
C	-1.868888	0.222044	-1.648509
N	-3.030512	0.37663	-1.753574
C	-0.593051	-1.140377	0.665099
N	-1.042224	-2.092628	1.189429
N	-0.457182	1.259096	0.668678
O	-1.36673	1.186058	1.49849
O	0.129456	2.289486	0.353534
F	2.424667	0.0	0.0
