15

C	-0.34323	0.024822	-1.472653
C	0.0	0.0	0.0
Cl	-0.168983	-1.612237	-2.145805
H	1.096285	0.0	0.0
N	-1.821117	0.418337	-1.734793
O	-2.611095	0.149352	-0.842105
O	-2.081483	0.906531	-2.825748
C	0.508388	0.928021	-2.243877
N	1.15632	1.613535	-2.945061
C	-0.515379	-1.123332	0.741437
N	-0.88326	-2.056852	1.354468
N	-0.386527	1.273094	0.634623
O	-0.416485	1.313345	1.859544
O	-0.586886	2.231527	-0.117691
F	2.397997	0.0	0.0
