15

C	-0.425843	0.049614	-1.467617
C	0.0	0.0	0.0
Cl	0.471154	1.248715	-2.406357
H	1.089944	0.0	0.0
N	-0.092743	-1.317438	-2.130461
O	-0.693169	-1.548461	-3.172512
O	0.764327	-2.002853	-1.601185
C	-1.860157	0.268028	-1.641959
N	-3.018066	0.460432	-1.722467
C	-0.599922	-1.148213	0.643458
N	-1.05873	-2.10796	1.145545
N	-0.457131	1.248481	0.686551
O	0.079259	2.296432	0.339736
O	-1.320141	1.151649	1.561513
F	2.419664	0.0	0.0
