13

C	-0.437234	-0.191694	-1.438757
C	0.0	0.0	0.0
F	-0.361769	-1.566599	-1.727625
H	1.092457	0.0	0.0
H	-1.488683	0.077078	-1.591903
H	-0.314242	1.009863	0.293925
N	0.386171	0.506191	-2.375655
H	0.031212	1.43211	-2.559446
H	1.337878	0.567553	-2.025069
N	-0.626788	-0.974916	0.90025
H	-0.112627	-0.946377	1.773633
H	-0.439512	-1.886939	0.501983
Br	3.720867	0.0	0.0
