13

C	-0.401352	0.387104	-1.40441
C	0.0	0.0	0.0
F	-0.229539	-0.742726	-2.24569
H	1.095324	0.0	0.0
H	-1.465008	0.636446	-1.474664
H	-0.384466	-0.99645	0.224958
N	0.389589	1.489444	-1.819892
H	0.222168	1.721639	-2.789116
H	1.373836	1.270148	-1.68526
N	-0.574155	0.977835	0.93856
H	-0.203519	0.771591	1.859464
H	-0.182527	1.877721	0.678549
Br	3.741721	0.0	0.0
