16

C	-0.267937	0.048034	-1.489944
C	0.0	0.0	0.0
Cl	-2.033582	0.336797	-1.860874
H	1.093229	0.0	0.0
H	-0.050498	-0.929128	-1.914408
C	0.598445	1.120102	-2.118085
H	0.572025	1.067697	-3.20813
H	0.270204	2.114593	-1.807629
H	1.608055	0.938149	-1.730449
N	-0.517276	-1.297427	0.553421
O	-0.255515	-2.314286	-0.097253
O	-1.138044	-1.305487	1.613876
N	-0.436139	1.110126	0.772233
H	-1.249894	1.572033	0.392002
H	0.333932	1.750586	0.894133
F	2.599891	0.0	0.0
