16

C	-0.38258	-0.055323	-1.487516
C	0.0	0.0	0.0
Cl	-0.108771	1.572882	-2.21199
H	1.090574	0.0	0.0
H	-1.450408	-0.249892	-1.626851
C	0.516324	-1.064732	-2.179832
H	0.439219	-0.996903	-3.2681
H	1.53748	-0.870723	-1.832542
H	0.235509	-2.076082	-1.873887
N	-0.542824	-1.293185	0.552164
O	-1.769276	-1.363822	0.684433
O	0.232216	-2.20881	0.818247
N	-0.533347	1.061158	0.798868
H	0.175732	1.778806	0.857734
H	-1.382148	1.452941	0.413953
F	2.635656	0.0	0.0
