16

C	-0.498693	-0.005275	-1.445434
C	0.0	0.0	0.0
Cl	0.214888	-1.358145	-2.391765
H	1.090022	0.0	0.0
H	-0.071019	0.898911	-1.883916
C	-2.005664	-0.045278	-1.6441
H	-2.249271	0.075007	-2.702275
H	-2.498931	0.753028	-1.082923
H	-2.412145	-0.996773	-1.300911
N	-0.578298	-1.196848	0.693182
O	-1.708475	-1.084237	1.184418
O	0.071049	-2.23969	0.700613
N	-0.383643	1.17708	0.728256
H	0.395521	1.820818	0.695776
H	-1.244931	1.613013	0.428271
F	2.582323	0.0	0.0
