16

C	-0.335204	0.031919	-1.467924
C	0.0	0.0	0.0
Cl	-2.129271	0.204676	-1.751014
H	1.09417	0.0	0.0
H	-0.075004	-0.929986	-1.902916
C	0.433604	1.158632	-2.122019
H	0.345773	1.125206	-3.211646
H	0.070615	2.117986	-1.75233
H	1.473787	1.027407	-1.801734
N	-0.452254	-1.307006	0.596371
O	-0.961085	-1.290856	1.721453
O	-0.254603	-2.336819	-0.048096
N	-0.460112	1.139607	0.718526
H	0.136203	1.270561	1.523629
H	-1.413158	1.018569	1.035249
F	2.582025	0.0	0.0
