16

C	-0.371978	-0.059293	-1.490036
C	0.0	0.0	0.0
Cl	-0.097561	1.569848	-2.215631
H	1.090576	0.0	0.0
H	-1.437486	-0.257197	-1.637335
C	0.537784	-1.064462	-2.173926
H	1.555719	-0.861629	-1.818845
H	0.468014	-1.001499	-3.263496
H	0.261345	-2.076179	-1.865704
N	-0.545038	-1.293411	0.552087
O	0.230786	-2.201496	0.841451
O	-1.773896	-1.370756	0.663749
N	-0.538033	1.063746	0.792965
H	-1.372226	1.465666	0.390666
H	0.175516	1.775087	0.864553
F	2.636936	0.0	0.0
