16

C	-0.385915	-0.044483	-1.486161
C	0.0	0.0	0.0
Cl	-0.092138	1.584117	-2.20372
H	1.090553	0.0	0.0
H	-1.457293	-0.226549	-1.624126
C	0.502538	-1.061759	-2.186252
H	0.2134	-2.071365	-1.881088
H	1.528648	-0.874701	-1.843883
H	0.419041	-0.989764	-3.273329
N	-0.544991	-1.296269	0.546434
O	-1.773602	-1.370907	0.664101
O	0.229815	-2.208283	0.825867
N	-0.532433	1.059343	0.802821
H	-1.375053	1.459822	0.408579
H	0.179445	1.771897	0.866028
F	2.632211	0.0	0.0
