16

C	-0.583879	0.016027	-1.410777
C	0.0	0.0	0.0
Cl	-0.063816	-1.38006	-2.414533
H	1.090114	0.0	0.0
H	-0.119362	0.888182	-1.870798
C	-2.09663	0.124745	-1.46562
H	-2.435601	0.233319	-2.498496
H	-2.412011	1.002561	-0.898036
H	-2.568402	-0.763846	-1.040963
N	-0.519735	-1.20455	0.739028
O	0.01012	-2.28937	0.517352
O	-1.479018	-1.055759	1.513372
N	-0.397841	1.225966	0.65319
H	0.381358	1.498362	1.240428
H	-1.213274	1.070348	1.232721
F	2.575894	0.0	0.0
