16

C	-0.636207	0.050135	-1.385314
C	0.0	0.0	0.0
Cl	-0.036805	-1.213809	-2.51154
H	1.090131	0.0	0.0
H	-0.282502	0.992131	-1.799365
C	-2.153076	0.015668	-1.363392
H	-2.558435	0.182521	-2.363937
H	-2.512949	-0.950559	-1.005366
H	-2.518373	0.801847	-0.699094
N	-0.491431	-1.225	0.721137
O	-1.340154	-1.096571	1.616695
O	-0.050136	-2.312578	0.358544
N	-0.388702	1.207488	0.698969
H	-1.140798	1.008421	1.346527
H	0.426758	1.493099	1.22955
F	2.569545	0.0	0.0
