13

C	-0.471948	-0.011806	-1.451488
C	0.0	0.0	0.0
Cl	-0.379535	1.636876	-2.166879
H	1.086779	0.0	0.0
H	-1.525828	-0.289839	-1.52583
H	-0.353011	-0.933757	0.446442
N	0.337969	-0.918232	-2.224569
H	1.31017	-0.806651	-1.921549
H	0.049885	-1.869183	-2.02107
N	-0.612363	1.070044	0.806247
O	0.022699	2.102958	1.004886
O	-1.758667	0.860343	1.228817
H	2.860946	0.0	0.0
