13

C	-0.556701	0.012143	-1.401401
C	0.0	0.0	0.0
Cl	-0.025511	-1.356459	-2.430955
H	1.087179	0.0	0.0
H	-0.099393	0.885537	-1.883165
H	-0.324648	0.924501	0.48584
N	-2.006289	0.013421	-1.384764
H	-2.329903	0.693157	-0.706306
H	-2.367487	0.257951	-2.29903
N	-0.541039	-1.083072	0.826623
O	-1.222894	-0.768196	1.814416
O	-0.253076	-2.241024	0.525329
H	2.74545	0.0	0.0
