13

C	-0.426243	-0.125329	-1.446059
C	0.0	0.0	0.0
Cl	-0.153638	1.511487	-2.293291
H	1.088696	0.0	0.0
H	-1.496385	-0.279081	-1.583324
H	-0.350269	-0.887066	0.535473
N	0.348697	-1.176875	-1.984483
H	0.232596	-1.258183	-2.985465
H	1.33304	-1.02863	-1.749586
N	-0.623792	1.151866	0.687787
O	-1.821779	1.352901	0.464928
O	0.054388	1.801103	1.477139
H	2.873053	0.0	0.0
