13

C	-0.493122	-0.020065	-1.413267
C	0.0	0.0	0.0
Cl	-2.425887	-0.299337	-1.358089
H	1.091455	0.0	0.0
H	-0.192806	-0.963392	-1.865027
H	-0.326812	-0.888722	0.533503
N	-0.134299	1.056964	-2.210127
H	-0.306246	1.93999	-1.751354
H	-0.519855	1.010837	-3.141324
N	-0.432547	1.134746	0.790806
O	-0.482387	2.256412	0.257447
O	-0.605598	0.951765	2.000787
H	2.609609	0.0	0.0
