13

C	-0.47575	-0.052005	-1.417982
C	0.0	0.0	0.0
Cl	-2.418328	-0.273873	-1.371996
H	1.092095	0.0	0.0
H	-0.194188	-1.01775	-1.835632
H	-0.3413	-0.870119	0.554855
N	-0.078039	0.989488	-2.240018
H	-0.224892	1.890936	-1.810745
H	-0.441527	0.927242	-3.177504
N	-0.433813	1.161914	0.752182
O	-0.657186	1.013349	1.958959
O	-0.446085	2.270024	0.18957
H	2.608986	0.0	0.0
