13

C	-0.507901	0.019104	-1.419202
C	0.0	0.0	0.0
Cl	0.013332	-1.587609	-2.168278
H	1.088941	0.0	0.0
H	0.026029	0.769141	-1.998539
H	-0.388257	-0.841241	0.574013
N	-1.911822	0.225403	-1.510295
H	-2.407249	-0.508573	-1.019503
H	-2.215879	0.235025	-2.476907
N	-0.401235	1.226212	0.684517
O	-0.789462	1.142974	1.855791
O	-0.231679	2.292291	0.085951
H	2.680114	0.0	0.0
