17
Coordinates from ORCA-job run
  C   0.70732951484136     -0.31158770502839     -0.40651164950868
  C   -0.68570058472219      0.26054951937824     -0.06639505488741
  Br  0.77667487864010     -2.23886549102750     -0.02676037677692
  H   -0.70450099446651      1.27718598378528     -0.47197715485120
  C   1.79530074607720      0.38090972013874      0.41526970377448
  H   2.77632525601055      0.03060683412628      0.09399359316098
  H   1.67622318282178      0.15786559344426      1.47484920529127
  H   1.73962256039113      1.46240283655233      0.25862434278903
  C   1.01120309925150     -0.14664531211185     -1.82718582657622
  N   1.33637010204016      0.02962848513714     -2.94324857511104
  C   -1.04112740091636      0.25292771362395      1.40461245607768
  H   -2.07874760599774      0.56445229088972      1.52951293581802
  H   -0.93266608485385     -0.74138696964719      1.83519458740692
  H   -0.41033130319822      0.95917393133280      1.94551458566980
  N   -1.73528785075947     -0.46696109797148     -0.86769130864222
  O   -2.40956512207241     -1.31589784523790     -0.29224616212773
  O   -1.82112239308704     -0.15435848738443     -2.05355530150677
