17
Coordinates from ORCA-job run
  C   0.74146668303843     -0.28824987740718     -0.36063683440197
  C   -0.70236117219912      0.19562232456802     -0.10527666808126
  Br  0.95502554694045     -2.15953794968016      0.20120949659216
  H   -0.79114985310841      1.16505050128023     -0.60592444426114
  C   1.74596452737050      0.56539463145482      0.41455599152027
  H   2.76090170205224      0.27009429069461      0.14798151598555
  H   1.60706373886093      1.61957134001201      0.15601348534835
  H   1.61527906579692      0.43151487500303      1.48778848965739
  C   1.07133445876324     -0.23090330606259     -1.78395187031787
  N   1.41294261521741     -0.13281099782100     -2.90469941879517
  C   -1.09744490030191      0.29489257139017      1.35215152357424
  H   -2.15979673894103      0.53001702449778      1.42572013557906
  H   -0.92211571210631     -0.64311724554731      1.87673135862749
  H   -0.54079680847993      1.09755014205668      1.83702987204552
  N   -1.66661514096977     -0.68769820155876     -0.85547451274170
  O   -1.74373439628894     -0.49464886884815     -2.06717899614467
  O   -2.28596361564468     -1.53274125403219     -0.21603912418626
