17
Coordinates from ORCA-job run
  C   0.66880005769970     -0.34002011933030     -0.44015907559580
  C   -0.69278212054982      0.29098570056550     -0.07751835887643
  Br  0.61308655264214     -2.27269380848329     -0.09337223744455
  H   -0.70898453721630      1.29322232632016     -0.52085617948427
  C   1.80007265691163      0.26584371303084      0.39369553278878
  H   1.66289574628514      0.05115302029160      1.45248645438849
  H   1.82982798959831      1.34873643071972      0.23903922197162
  H   2.75156084179596     -0.15775594372736      0.07158834566195
  C   1.00447016165292     -0.15770938845278     -1.85245455045010
  N   1.39390139658661      0.01535728519512     -2.94811037356555
  C   -0.97421814100354      0.36799929116512      1.40853643076055
  H   -0.32013557929609      1.11055042098519      1.86632419208450
  H   -2.00598506089525      0.67791211250016      1.56928745610696
  H   -0.83423737548268     -0.59719114760872      1.89498283411583
  N   -1.79700359067455     -0.44904077587506     -0.80228840130289
  O   -2.67248830576885     -0.98735645266580     -0.13303151620027
  O   -1.71778069228532     -0.46199266463010     -2.02714977495882
