17
Coordinates from ORCA-job run
  C   0.78988054430571      0.03272127351700     -0.42423561762505
  C   -0.74404412964985     -0.04311177030497     -0.27200467909986
  Br  1.13174952825302      0.49853450494620     -2.30890872071765
  H   -1.12061009963006     -0.71930762469858     -1.04077114074850
  C   1.47208982746688     -1.30066365319541     -0.13098979489219
  H   2.53382991337112     -1.23802652258340     -0.36912235596653
  H   1.01700781777133     -2.09252172487138     -0.72865779197784
  H   1.36812182937849     -1.54293600969712      0.92923928273972
  C   1.36587486579805      1.10069346893806      0.38686738329831
  N   1.85064279965099      1.94885768205122      1.04106915517821
  C   -1.46198514956493      1.29051616850613     -0.27633999478379
  H   -1.11419614534878      1.91487083707554      0.54696891034188
  H   -1.28443955646534      1.80660722361035     -1.22015208167020
  H   -2.53674577410801      1.13050808148472     -0.16718176149876
  N   -1.02711344765979     -0.75068657774951      1.02449568875971
  O   -0.74375789554427     -0.15026230056222      2.05859839290450
  O   -1.49630492802455     -1.88479305646663      0.95212512575804
