16

C	-0.49573	0.126025	-1.33947
C	0.018331	-0.195983	0.073165
Br	0.220222	-1.475446	-2.56446
H	1.102641	-0.340445	-0.002626
N	-1.887569	0.16904	-1.350792
H	-2.291777	0.299594	-2.266124
H	-2.244202	-0.633955	-0.842306
C	0.058094	1.2983	-2.0152
N	0.220606	2.212395	-2.738063
N	-0.748218	-1.360471	0.548907
H	-0.713553	-1.290023	1.558618
H	-0.278361	-2.212472	0.264789
N	-0.163242	0.922753	0.95989
H	0.677184	1.507518	0.68123
H	-1.032593	1.396439	0.738786
F	1.961668	1.656196	-0.182106
