19

C	-0.374203	-0.044733	-1.48292
C	0.0	0.0	0.0
F	-0.105238	1.204591	-2.05716
H	1.097928	0.0	0.0
C	0.434589	-1.06898	-2.259542
H	1.490424	-0.901415	-2.030338
H	0.160985	-2.086279	-1.976539
H	0.253187	-0.938812	-3.328821
C	-1.829303	-0.261993	-1.662684
N	-2.980908	-0.456242	-1.790267
C	-0.462851	-1.260372	0.727477
H	-0.117642	-1.215679	1.763172
H	-1.554884	-1.352542	0.733812
H	-0.035804	-2.165134	0.290394
C	-0.534512	1.253993	0.677367
H	-0.189131	1.278785	1.713873
H	-1.631185	1.273577	0.680158
H	-0.167692	2.152225	0.181495
Cl	3.508734	0.0	0.0
