19

C	-0.3829	0.091906	-1.478832
C	0.0	0.0	0.0
F	-1.744485	0.448276	-1.601936
H	1.097822	0.0	0.0
C	0.451029	1.108625	-2.236638
H	0.269747	2.102973	-1.829157
H	1.509061	0.866749	-2.109674
H	0.17989	1.106899	-3.294879
C	-0.268782	-1.221603	-2.147078
N	-0.199755	-2.261548	-2.687441
C	-0.527948	-1.264696	0.667209
H	-1.617446	-1.335314	0.574165
H	-0.080314	-2.162189	0.236619
H	-0.274425	-1.249578	1.730096
C	-0.470682	1.24111	0.757029
H	-0.064009	1.2064	1.770017
H	-1.561378	1.281975	0.817781
H	-0.111914	2.16563	0.302009
Cl	3.486154	0.0	0.0
