19

C	-0.376014	-0.044151	-1.482212
C	0.0	0.0	0.0
F	-0.107178	1.204582	-2.057207
H	1.097905	0.0	0.0
C	0.430118	-1.069739	-2.260197
H	0.246348	-0.940298	-3.329069
H	0.156304	-2.086406	-1.975637
H	1.48649	-0.902752	-2.033831
C	-1.831402	-0.261061	-1.660027
N	-2.982	-0.458006	-1.791971
C	-0.462519	-1.260311	0.727885
H	-0.035561	-2.165174	0.290767
H	-0.116904	-1.2155	1.763419
H	-1.554514	-1.352521	0.73471
C	-0.533887	1.253985	0.678138
H	-1.630605	1.27322	0.682747
H	-0.186741	1.278958	1.714117
H	-0.168088	2.152323	0.181577
Cl	3.508501	0.0	0.0
