14

C	0.0	0.0	0.0
C	-0.324602	0.33558	-1.491246
Br	1.960492	0.0	0.0
H	0.343187	-0.28625	-2.100465
H	-0.298678	0.82183	0.652244
H	0.004579	1.372638	-1.652803
C	-0.618669	-1.289677	0.470621
H	-0.316108	-1.53635	1.492033
H	-0.344381	-2.119729	-0.188268
H	-1.70703	-1.101083	0.430019
N	-1.680339	0.159399	-1.95587
H	-1.813166	-0.82597	-2.148929
H	-2.379214	0.322201	-1.180915
F	-3.306861	0.0	0.0
