14

C	0.0	0.0	0.0
C	-0.54437	-0.096568	-1.403028
Br	1.967338	0.0	0.0
H	-0.285055	-1.085306	-1.819424
H	-0.270463	0.980105	0.391163
H	-1.635673	-0.047414	-1.202052
C	-0.545598	-1.09203	0.887966
H	-1.640474	-0.942775	0.801925
H	-0.203616	-0.977917	1.92008
H	-0.244025	-2.079442	0.52501
N	-0.114181	1.026558	-2.238356
H	-0.714542	1.065284	-3.053966
H	0.834142	0.864799	-2.561747
F	-2.988367	0.0	0.0
