14

C	0.0	0.0	0.0
C	-0.51581	0.004267	-1.425653
Br	1.962254	0.0	0.0
H	-1.593572	0.183195	-1.262148
H	-0.299202	0.928603	0.485687
H	-0.045742	0.824708	-1.979571
C	-0.485538	-1.192438	0.793564
H	-0.109556	-1.160164	1.820335
H	-1.582134	-1.09346	0.75484
H	-0.136605	-2.11157	0.317828
N	-0.250336	-1.279235	-2.095722
H	-1.125354	-1.782381	-2.162274
H	0.087962	-1.123053	-3.034853
F	-2.928805	0.0	0.0
