20

C	0.0	0.0	0.0
C	-0.222273	-0.11277	-1.544523
F	1.408042	0.0	0.0
H	0.556979	0.534757	-1.952582
C	-0.472087	1.306001	0.592945
H	-1.564295	1.332002	0.588251
H	-0.11141	1.363443	1.624265
H	-0.086783	2.15512	0.029114
C	-0.51072	-1.179469	0.789921
H	-0.257001	-1.040407	1.844089
H	-1.60081	-1.216879	0.693423
H	-0.068402	-2.116998	0.450726
N	-1.465339	0.509727	-2.131917
O	-2.233253	-0.207506	-2.76136
O	-1.551088	1.732723	-2.036417
C	-0.05267	-1.52222	-2.074343
H	-0.888578	-2.152352	-1.773527
H	0.882469	-1.934282	-1.689311
H	-0.010669	-1.515874	-3.164931
Br	-4.075363	0.0	0.0
