20

C	0.0	0.0	0.0
C	-0.216578	0.000284	-1.549072
F	1.408304	0.0	0.0
H	0.550007	0.692795	-1.904313
C	-0.472951	1.260966	0.682161
H	-0.091069	2.147706	0.176533
H	-1.565399	1.28608	0.681549
H	-0.110383	1.249305	1.714357
C	-0.514341	-1.232604	0.700549
H	-0.076821	-2.144582	0.292398
H	-0.260507	-1.17328	1.762254
H	-1.604672	-1.25663	0.600823
N	-1.470874	0.638052	-2.093077
O	-2.230815	-0.052033	-2.76197
O	-1.575407	1.850782	-1.919346
C	-0.014735	-1.361895	-2.181945
H	0.039307	-1.272182	-3.268046
H	-0.84176	-2.028242	-1.940689
H	0.923763	-1.784647	-1.817748
Br	-4.085845	0.0	0.0
