16

C	-0.416023	0.083958	-1.471623
C	0.0	0.0	0.0
F	0.197268	1.16973	-2.016729
H	1.096044	0.0	0.0
N	0.142569	-1.143127	-2.184224
O	-0.508532	-2.177077	-2.032118
O	1.163075	-1.019295	-2.843916
C	-1.898126	0.171419	-1.748085
H	-2.41871	-0.681236	-1.31712
H	-2.074852	0.198349	-2.826129
H	-2.273285	1.094784	-1.303685
C	-0.511841	-1.176322	0.674111
N	-0.905444	-2.121704	1.253382
C	-0.455165	1.199712	0.681203
N	-0.81311	2.175786	1.231433
F	2.426319	0.0	0.0
