16

C	-0.314003	-0.130931	-1.494182
C	0.0	0.0	0.0
F	-1.60348	-0.535068	-1.718939
H	1.095081	0.0	0.0
N	-0.200997	1.264456	-2.103422
O	0.935176	1.710538	-2.211324
O	-1.240216	1.831033	-2.427302
C	0.677715	-1.046642	-2.164205
H	0.460145	-2.068358	-1.842172
H	1.67143	-0.760784	-1.808819
H	0.588584	-0.984945	-3.250154
C	-0.428864	-1.21017	0.682139
N	-0.757053	-2.202201	1.220385
C	-0.569696	1.181339	0.61919
N	-1.018321	2.14958	1.112549
F	2.489436	0.0	0.0
