16

C	-0.326255	0.048454	-1.495027
C	0.0	0.0	0.0
F	-0.016199	1.292976	-1.951992
H	1.096026	0.0	0.0
N	0.598972	-0.925639	-2.216147
O	1.238514	-0.510978	-3.170473
O	0.55261	-2.082191	-1.812627
C	-1.742066	-0.286315	-1.900352
H	-1.838739	-0.199239	-2.985291
H	-2.415779	0.429316	-1.423457
H	-2.001001	-1.295874	-1.583869
C	-0.515817	-1.177497	0.668182
N	-0.950184	-2.096472	1.260699
C	-0.513613	1.194247	0.643084
N	-0.926164	2.159312	1.173904
F	2.429445	0.0	0.0
