16

C	-0.305012	-0.126995	-1.494564
C	0.0	0.0	0.0
F	-1.614611	-0.463635	-1.731206
H	1.094971	0.0	0.0
N	-0.123125	1.259358	-2.110668
O	-1.131188	1.94388	-2.249717
O	1.021353	1.58654	-2.400114
C	0.641931	-1.101047	-2.145681
H	0.372857	-2.106801	-1.815016
H	0.564738	-1.046516	-3.233018
H	1.647343	-0.857329	-1.791223
C	-0.432706	-1.21298	0.67533
N	-0.769666	-2.207306	1.204064
C	-0.567853	1.176695	0.629887
N	-1.021112	2.134935	1.138365
F	2.485584	0.0	0.0
