16

C	-0.314237	-0.329088	-1.462911
C	0.0	0.0	0.0
F	-1.602803	-0.761482	-1.633448
H	1.106889	0.0	0.0
N	-0.198569	0.966136	-2.262369
O	0.915502	1.475084	-2.286157
O	-1.203335	1.384881	-2.827845
C	0.677128	-1.324264	-2.010783
H	0.574343	-1.406453	-3.095941
H	0.471826	-2.29566	-1.555788
H	1.672313	-0.990251	-1.701789
C	-0.40178	-1.120161	0.833715
N	-0.665212	-2.049842	1.502531
C	-0.594102	1.240869	0.453661
N	-1.071902	2.252349	0.812403
F	2.483631	0.0	0.0
