16

C	-0.312187	-0.024476	-1.499516
C	0.0	0.0	0.0
F	-0.015388	1.201808	-2.010025
H	1.097545	0.0	0.0
N	0.637536	-1.018324	-2.164506
O	1.301783	-0.633864	-3.11464
O	0.584933	-2.159708	-1.720586
C	-1.717876	-0.402572	-1.902105
H	-1.957737	-1.405288	-1.548987
H	-1.807167	-0.36117	-2.99066
H	-2.410379	0.31666	-1.45802
C	-0.516754	-1.151079	0.713009
N	-0.944633	-2.057759	1.328191
C	-0.517867	1.221844	0.583646
N	-0.932062	2.212275	1.064339
F	2.428214	0.0	0.0
