16

C	-0.211216	0.142981	-1.509996
C	0.0	0.0	0.0
F	0.111058	-1.048291	-2.084842
H	1.097732	0.0	0.0
N	-1.688433	0.365544	-1.833009
O	-2.3583	-0.606216	-2.167677
O	-2.106406	1.513393	-1.692046
C	0.647748	1.236915	-2.083076
H	0.323247	2.211191	-1.722141
H	0.596706	1.210053	-3.173669
H	1.656654	1.019684	-1.71708
C	-0.560469	-1.228927	0.527744
N	-0.995178	-2.229198	0.966229
C	-0.444005	1.164519	0.74254
N	-0.755662	2.106089	1.374115
F	2.484337	0.0	0.0
