19
Coordinates from ORCA-job run
  C   0.76087658337105     -0.04667624576481      0.44610852891813
  C   -0.76086818207968     -0.06229938790680      0.23864260863465
  Cl  1.02956868816432      0.28231993537741      2.27247483647241
  H   -1.16686738535522     -0.72070304712596      1.01428639632602
  C   1.41726733486463     -1.39230723908883      0.19565300488223
  H   2.45886691343201     -1.36967771781418      0.52324599740898
  H   0.90554032615554     -2.17905544907071      0.75139160269078
  H   1.39193901885023     -1.62070113167992     -0.87081405422197
  N   1.38070248107997      0.94928209302157     -0.35327418442088
  H   1.06714311672662      1.87809956971357     -0.10287636216171
  H   2.38848765440346      0.91527930849699     -0.25960769003446
  C   -1.12169104818742     -0.63529240561508     -1.13345790262752
  H   -2.19782866079109     -0.53996790813906     -1.30073375153652
  H   -0.87025136103787     -1.69364635358125     -1.22003765998307
  H   -0.60236029987740     -0.08746561146522     -1.92280391772956
  C   -1.38941870870378      1.32026317646048      0.40463980935720
  H   -2.47813300401104      1.23075694209893      0.42251655962138
  H   -1.07979802990322      1.80166393751392      1.33380568753264
  H   -1.13417543710109      1.96912753456895     -0.43815950912874
