19
Coordinates from ORCA-job run
  C   0.89534889875215      0.20163996246569      0.39089466600239
  C   -0.52627071937944      0.61927822871747     -0.04689983722852
  Cl  1.25512126598570      1.11309654346639      1.92411375756782
  H   -0.51355200163141      1.71713442643764     -0.07435481322898
  C   1.03654010685839     -1.27780721028917      0.70251785620651
  H   0.38050229805649     -1.57761284115870      1.51825569407030
  H   0.79639902358181     -1.87830870420312     -0.18019917543260
  H   2.06911536016676     -1.47766507435590      0.98964635101316
  N   1.94088157269425      0.57566229291377     -0.53498303964046
  H   1.92457697905183     -0.03625642219935     -1.34189317813633
  H   1.81861879435092      1.53310955522414     -0.84566261486184
  C   -1.62262876789903      0.17976039123683      0.92179754359898
  H   -1.77287088813943     -0.90237298681281      0.87952243285993
  H   -1.39384079930870      0.45895390253753      1.95045719749539
  H   -2.57030506597032      0.65130737593605      0.64863856448085
  C   -0.85305449916880      0.11879780229664     -1.45544403656718
  H   -1.85252542783740      0.45593728799352     -1.74144766869012
  H   -0.15573490692379      0.49818131710268     -2.20416256533208
  H   -0.85432122323999     -0.97383584730931     -1.50379713417723
