15

C	-0.594993	-0.066443	-1.403476
C	0.0	0.0	0.0
Br	-0.096293	1.648465	-2.245419
H	1.091344	0.0	0.0
H	-0.359785	0.891812	0.512779
C	-0.033578	-1.120596	-2.24758
N	0.344799	-1.929558	-3.011774
C	-2.119696	-0.158027	-1.404156
H	-2.535456	0.653476	-0.802215
H	-2.423344	-1.11974	-0.98526
H	-2.505693	-0.078282	-2.421285
N	-0.441021	-1.152451	0.83008
O	-0.596641	-2.240971	0.276011
O	-0.591254	-0.947001	2.031085
Cl	3.256862	0.0	0.0
