15

C	-0.595744	-0.065494	-1.403452
C	0.0	0.0	0.0
Br	-0.097644	1.651407	-2.241812
H	1.088757	0.0	0.0
H	-0.358025	0.893413	0.510987
C	-0.037344	-1.116324	-2.252365
N	0.301635	-1.954036	-3.003779
C	-2.120235	-0.158589	-1.40315
H	-2.506865	-0.077431	-2.419814
H	-2.536083	0.651357	-0.799885
H	-2.422094	-1.121134	-0.985976
N	-0.442627	-1.148872	0.834644
O	-0.616104	-2.23677	0.283736
O	-0.573602	-0.94	2.038128
Cl	3.257512	0.0	0.0
