15

C	-0.485658	0.007393	-1.44003
C	0.0	0.0	0.0
Br	0.168798	-1.553389	-2.434154
H	1.091502	0.0	0.0
H	-0.330328	0.919657	0.491462
C	-1.944119	0.022918	-1.544118
N	-3.11459	0.110477	-1.618433
C	0.116874	1.250197	-2.101198
H	-0.270216	2.149088	-1.611531
H	-0.142996	1.28155	-3.159907
H	1.202126	1.212998	-1.981726
N	-0.515453	-1.10065	0.854457
O	-1.183721	-1.999194	0.3416
O	-0.231035	-1.019638	2.045157
Cl	3.283091	0.0	0.0
