15

C	-0.595962	0.091167	-1.401678
C	0.0	0.0	0.0
Br	-0.08932	1.88536	-2.050548
H	1.092408	0.0	0.0
H	-0.355711	0.83267	0.606298
C	-0.043108	-0.866251	-2.357838
N	0.296845	-1.615879	-3.196844
C	-2.121037	0.00889	-1.410854
H	-2.530727	0.752693	-0.724043
H	-2.430459	-0.990511	-1.099325
H	-2.506618	0.201866	-2.412749
N	-0.444799	-1.23241	0.70183
O	-0.587079	-1.156687	1.920672
O	-0.612999	-2.253139	0.032653
Cl	3.258125	0.0	0.0
