12

C	-0.363041	0.011803	-1.491961
C	0.0	0.0	0.0
Br	-2.296657	0.164875	-1.777878
H	1.098773	0.0	0.0
H	0.084632	0.899984	-1.943679
C	0.112282	-1.184112	-2.173568
N	0.455376	-2.153854	-2.739593
C	-0.507091	-1.188691	0.678335
N	-0.900037	-2.153319	1.222535
C	-0.463183	1.219622	0.655865
N	-0.816222	2.215005	1.17002
Br	3.285982	0.0	0.0
