12

C	-0.498793	0.018003	-1.462239
C	0.0	0.0	0.0
Br	0.153206	-1.542038	-2.426769
H	1.096558	0.0	0.0
H	-1.588917	-0.051513	-1.488823
C	-0.092739	1.23373	-2.156635
N	0.158378	2.223053	-2.738402
C	-0.492588	-1.19283	0.686725
N	-0.908504	-2.146552	1.232436
C	-0.485739	1.200261	0.682265
N	-0.896215	2.1681	1.207305
Br	3.297514	0.0	0.0
