12

C	-0.496772	0.06345	-1.462557
C	0.0	0.0	0.0
Br	0.154449	-1.46921	-2.470382
H	1.096616	0.0	0.0
H	-1.586935	-0.00327	-1.492432
C	-0.087502	1.299007	-2.119347
N	0.163323	2.304649	-2.673427
C	-0.496881	-1.211926	0.648443
N	-0.918809	-2.181235	1.160946
C	-0.485213	1.180564	0.716503
N	-0.895028	2.133457	1.268766
Br	3.301561	0.0	0.0
