12

C	-0.396642	-0.016908	-1.491477
C	0.0	0.0	0.0
Br	0.190981	1.614579	-2.3707
H	1.096421	0.0	0.0
H	0.157642	-0.831249	-1.964664
C	-1.829264	-0.18727	-1.702549
N	-2.981981	-0.340895	-1.871949
C	-0.455824	-1.242484	0.624221
N	-0.812319	-2.256458	1.098952
C	-0.533454	1.158901	0.70765
N	-0.974291	2.085815	1.278796
Br	3.294709	0.0	0.0
