12

C	-0.407647	-0.016007	-1.487868
C	0.0	0.0	0.0
Br	0.220852	1.594987	-2.373496
H	1.096495	0.0	0.0
H	0.123233	-0.845096	-1.96233
C	-1.847242	-0.153829	-1.679063
N	-3.009154	-0.264185	-1.819671
C	-0.458585	-1.239237	0.628408
N	-0.816547	-2.252948	1.102658
C	-0.526345	1.163478	0.70529
N	-0.952531	2.099134	1.273446
Br	3.310999	0.0	0.0
