12

C	-0.342108	0.206238	-1.483873
C	0.0	0.0	0.0
Br	-2.250225	0.546187	-1.785129
H	1.103701	0.0	0.0
H	0.185804	1.099133	-1.826247
C	0.050537	-0.938176	-2.295188
N	0.316681	-1.850145	-2.987004
C	-0.534517	-1.249926	0.525441
N	-0.979325	-2.253652	0.94293
C	-0.445509	1.139003	0.797624
N	-0.789005	2.070638	1.425398
Br	3.268037	0.0	0.0
