12

C	-0.483255	0.013596	-1.467961
C	0.0	0.0	0.0
Br	0.12092	-1.584456	-2.401653
H	1.1032	0.0	0.0
H	-1.57487	-0.01357	-1.50923
C	-0.014298	1.199462	-2.175636
N	0.308058	2.160825	-2.769965
C	-0.510965	-1.180679	0.691754
N	-0.954393	-2.1228	1.23494
C	-0.477914	1.212835	0.664913
N	-0.880771	2.195932	1.167012
Br	3.292658	0.0	0.0
