12

C	-0.399098	-0.110691	-1.486724
C	0.0	0.0	0.0
Br	0.194939	1.457635	-2.470013
H	1.095328	0.0	0.0
H	0.150857	-0.956081	-1.90709
C	-1.832821	-0.286197	-1.683568
N	-2.988871	-0.435622	-1.836107
C	-0.458211	-1.200249	0.700744
N	-0.830176	-2.183212	1.225875
C	-0.530497	1.20245	0.63346
N	-0.96049	2.16751	1.147038
Br	3.29394	0.0	0.0
