15

C	-0.360785	-0.028975	-1.47064
C	0.0	0.0	0.0
Br	-2.263865	-0.479873	-1.85275
H	1.105135	0.0	0.0
H	0.214502	-0.812908	-1.969628
C	-0.103893	1.247098	-2.126994
N	0.089649	2.2762	-2.65939
C	-0.437289	-1.252057	0.729869
H	-1.517129	-1.261698	0.909234
H	-0.169735	-2.147883	0.164119
H	0.093349	-1.297963	1.685407
N	-0.520234	1.216522	0.630176
H	0.247738	1.884294	0.652557
H	-0.744616	1.011373	1.597368
H	2.831114	0.0	0.0
