15

C	-0.562448	0.004835	-1.40998
C	0.0	0.0	0.0
Br	0.051269	1.558291	-2.458325
H	1.101075	0.0	0.0
H	-1.648276	0.130686	-1.364245
C	-0.243346	-1.19664	-2.168422
N	-0.029766	-2.168435	-2.793461
C	-0.4735	-1.247939	0.72747
H	-0.11544	-2.152653	0.232527
H	-1.565824	-1.279454	0.810779
H	-0.043592	-1.245211	1.73397
N	-0.536249	1.19366	0.684535
H	0.024883	1.980856	0.365578
H	-0.284948	1.088612	1.663941
H	2.914301	0.0	0.0
