15

C	-0.513454	0.020272	-1.44371
C	0.0	0.0	0.0
Br	0.100784	1.602278	-2.44453
H	1.095195	0.0	0.0
H	-1.605919	0.11789	-1.45216
C	-0.169905	-1.165738	-2.220837
N	0.078536	-2.125014	-2.852661
C	-0.500061	-1.263406	0.686398
H	-1.596701	-1.296524	0.739077
H	-0.108549	-1.252985	1.704821
H	-0.136251	-2.165939	0.188982
N	-0.413602	1.182909	0.746637
H	0.322779	1.873928	0.652881
H	-1.268893	1.585284	0.379449
H	2.872743	0.0	0.0
