15

C	-0.48643	-0.015156	-1.449265
C	0.0	0.0	0.0
Br	-0.031986	-1.661946	-2.422424
H	1.09936	0.0	0.0
H	0.029447	0.786978	-1.979234
C	-1.9312	0.173452	-1.538959
N	-3.098546	0.311285	-1.563156
C	-0.530421	-1.13706	0.850241
H	-0.235336	-2.10884	0.449137
H	-1.624758	-1.109035	0.935921
H	-0.096852	-1.045794	1.850037
N	-0.37339	1.331247	0.492057
H	-1.146254	1.278442	1.144889
H	0.437871	1.711868	0.970434
H	2.858149	0.0	0.0
