15

C	-0.37897	0.027736	-1.493586
C	0.0	0.0	0.0
Br	0.167647	-1.581127	-2.489432
H	1.094501	0.0	0.0
H	0.179859	0.840384	-1.967514
C	-1.812124	0.211664	-1.705221
N	-2.973851	0.372487	-1.79794
C	-0.567756	-1.181136	0.756279
H	-0.224248	-2.125578	0.330953
H	-0.210984	-1.116965	1.785797
H	-1.664974	-1.173785	0.768668
N	-0.402519	1.254517	0.626427
H	-1.342377	1.536055	0.3681
H	0.256617	1.980858	0.368303
H	2.866465	0.0	0.0
