15

C	-0.510658	-0.012472	-1.446306
C	0.0	0.0	0.0
Br	0.092161	1.555815	-2.473979
H	1.09532	0.0	0.0
H	-1.604239	0.072315	-1.459137
C	-0.156974	-1.209727	-2.201656
N	0.040336	-2.194303	-2.812834
C	-0.496762	-1.251402	0.711019
H	-0.10615	-1.219799	1.729091
H	-0.129928	-2.161984	0.231244
H	-1.593208	-1.288003	0.762458
N	-0.41655	1.193825	0.723062
H	-1.303107	1.553988	0.384341
H	0.29076	1.90553	0.578236
H	2.878962	0.0	0.0
