9
Coordinates from ORCA-job run
  C   -0.64754460365491      0.11140785726196     -0.53353883760487
  C   0.22053723716108      0.00564772167569      0.48031749195104
  H   -0.33285857272178     -0.12724962964548     -1.54491570458490
  H   0.02045211997727      0.21476622915712      1.52333005445221
  C   -1.98984517417135      0.53452446388111     -0.30741895915658
  N   -3.10086585473931      0.88172895698079     -0.13572286973625
  N   1.59294527897806     -0.43062309863536      0.22516029211514
  O   1.92039308224504     -0.69305133412183     -0.92759499033094
  O   2.31478648692591     -0.49615116655399      1.22038352289515
