9
Coordinates from ORCA-job run
  C   -0.58867468381847      0.54126392121989     -0.27613742530244
  C   0.15534209500930     -0.45169679348786      0.22699285082630
  H   -0.10891164991472      1.41460496912959     -0.70728878494852
  H   -0.21027900126049     -1.36473461155301      0.67888948131643
  C   -2.01237446714891      0.47202908507667     -0.25620354404226
  N   -3.18815329709938      0.42876397409340     -0.24713722229525
  N   1.61472970257956     -0.35937738178548      0.19594428057526
  O   2.12912480282245      0.63819461060433     -0.29915527561641
  O   2.21019649883066     -1.32004777329754      0.68409563948688
