9
Coordinates from ORCA-job run
  C   -0.98101072360568     -0.35638757709421     -0.02834520522702
  C   0.21390872435403     -0.59275660297458      0.53247884329794
  H   -1.79275941887205     -1.02615734632338      0.24173115867054
  H   0.39411041117413     -1.40443561871067      1.22492392273848
  C   -1.30561025962778      0.68505966588398     -0.94739962182462
  N   -1.69072572874742      1.49786762868981     -1.70583565429961
  N   1.41040687169397      0.20513917791586      0.28254540851432
  O   2.41762819437899     -0.16725756864371      0.88613884041346
  O   1.33305192925181      1.15892824125690     -0.48523769228349
