9
Coordinates from ORCA-job run
  C   -0.73408575884222     -0.06999862316545     -0.41493927993919
  C   0.30529482999400      0.18763257712404      0.38870649481101
  H   -0.61052936057106     -0.73181399410487     -1.26680287017811
  H   0.30097243879556      0.82687447087422      1.26202093462301
  C   -2.01138818815139      0.51354487377135     -0.17034905213775
  N   -3.07104823832945      0.98848972775007      0.01949397678754
  N   1.60692002535931     -0.42240378761212      0.11874299019795
  O   2.49871842185931     -0.12585275049669      0.91415488478865
  O   1.71714582988593     -1.16547249414056     -0.85102807895312
