9
Coordinates from ORCA-job run
  C   -0.73071669368198     -0.05903605508020     -0.42278727841912
  C   0.30197438206303      0.17797242047747      0.39566908674475
  H   -0.60142912041964     -0.70295026607560     -1.28741265994549
  H   0.29168744362210      0.79895383725914      1.28200486400650
  C   -2.00816104949546      0.52404172998311     -0.17795683520068
  N   -3.06805976682829      0.99832393195339      0.01220143988888
  N   1.60401873106689     -0.43085267818718      0.12495792756759
  O   1.72066967368270     -1.15417215503869     -0.85889756204761
  O   2.49001639999064     -0.15228076529143      0.93322101740519
