9
Coordinates from ORCA-job run
  C   -0.68538484139646      0.24214953700226     -0.43397145357676
  C   0.25603327047735     -0.12255071811573      0.44544867943347
  H   -0.44747950372944      0.29857029012047     -1.49187265289254
  H   0.13496589791013     -0.21359891130131      1.51717274923614
  C   -2.00614524999907      0.56051010655696     -0.00249135219418
  N   -3.10024362285898      0.82586980991729      0.33952487960390
  N   1.60472604260527     -0.44592291144737     -0.01875268518973
  O   1.84571458652041     -0.37081310725653     -1.21931556519541
  O   2.39781342047081     -0.77321409547604      0.86425740077512
