9
Coordinates from ORCA-job run
  C   -0.66441463893288      0.04615986626014     -0.52063221862196
  C   0.23856276483238      0.07189630664717      0.46750822142384
  H   -0.39429486476175     -0.35509240198495     -1.49268785544074
  H   0.08464063498784      0.44694251162405      1.47108434428946
  C   -1.98659263931249      0.53951331233580     -0.31974721077426
  N   -3.08152138614769      0.94409091804520     -0.17182088805670
  N   1.58939483303721     -0.43889421990294      0.23587933870052
  O   2.35118558030571     -0.35945620155112      1.19961244738375
  O   1.86203971599167     -0.89616009147333     -0.86919617890390
