9
Coordinates from ORCA-job run
  C   -0.63979283114624      0.44184828083015     -0.33401166881317
  C   0.19902570413137     -0.38252420896365      0.30599999038109
  H   -0.24772166351219      1.21404746065944     -0.98870816947618
  H   -0.07520249078671     -1.18404770585609      0.97963805055176
  C   -2.05074942028517      0.32307338831898     -0.16982463926817
  N   -3.21734695174565      0.23619893943279     -0.04378491109325
  N   1.64336687361327     -0.24248433121481      0.12233408598620
  O   2.05715287584560      0.63939956576544     -0.62330959003194
  O   2.33126790388571     -1.04651138897225      0.75166685176366
