9
Coordinates from ORCA-job run
  C   -0.99217539629781     -0.31782745067781     -0.07134991985436
  C   0.23912950262301     -0.75518491729306      0.22999656611311
  H   -1.79988259982714     -1.04184424524933     -0.00872131627550
  H   0.45056978147595     -1.77423869752362      0.52590131149301
  C   -1.35985010222501      1.00216882561793     -0.46742897176789
  N   -1.77991098029544      2.04823941432314     -0.80431505706077
  N   1.43658008644712      0.07908983052368      0.20139012403543
  O   1.32894390158631      1.25291887396722     -0.13892574069882
  O   2.47559580651301     -0.49332163368817      0.53345300401579
