9
Coordinates from ORCA-job run
  C   -0.98344370923552     -0.33030295548118     -0.11784828717455
  C   0.24554855097425     -0.76233417393890      0.20011270068293
  H   -1.78254522653119     -1.06643934928899     -0.10903161768101
  H   0.46493988878979     -1.78933516617084      0.46059947820153
  C   -1.36153596490879      1.00115663327139     -0.46275256147699
  N   -1.79086811736769      2.05885758572115     -0.74799120239595
  N   1.42879311041521      0.09095658431891      0.24339721524649
  O   1.32300193291669      1.26406640366782     -0.10003668513982
  O   2.45610953494725     -0.46662556209936      0.63255095973736
