9
Coordinates from ORCA-job run
  C   -0.60019997426103      0.35446093695965     -0.47990832594703
  C   0.16794480391271     -0.33333839977460      0.37423346561017
  H   -0.15228080246253      1.08671437157848     -1.14468996106086
  H   -0.16602306275253     -1.08350987810341      1.07939716679413
  C   -2.00850048634704      0.14023822927373     -0.53384432816427
  N   -3.17197969726693     -0.02602828386096     -0.58930227040067
  N   1.61089269865661     -0.09724996033841      0.41256658735259
  O   2.08959859991143      0.73578060532281     -0.35017511329448
  O   2.23054792060930     -0.77606762105730      1.23172277911041
