9
Coordinates from ORCA-job run
  C   -0.98247906856559     -0.35241445654590     -0.02074964099818
  C   0.20921070818081     -0.57690101946692      0.55171345652624
  H   -1.79874978460468     -1.00888029521355      0.26776168088146
  H   0.38284434708430     -1.36664740869334      1.27063755364334
  C   -1.29847209914903      0.66113539760608     -0.97345263115371
  N   -1.67656342526937      1.45156041510294     -1.75865206208001
  N   1.41064415680814      0.20658671300854      0.28062320628310
  O   2.41330840914950     -0.14990197323417      0.90112682207862
  O   1.34125675636591      1.13446262743632     -0.51900838518085
