9
Coordinates from ORCA-job run
  C   -0.98929884003856     -0.32933041400725     -0.05515613110449
  C   0.25162577010321     -0.75216341693032      0.22713625243054
  H   -1.78766068965423     -1.06255954225478      0.01878398451269
  H   0.48034217647883     -1.76954093598760      0.51587461503201
  C   -1.37871714276076      0.98693410351272     -0.44300477609033
  N   -1.81778721286160      2.02819157107857     -0.77040672042972
  N   1.43896505938953      0.09561862717997      0.17757896152203
  O   1.30782794476786      1.27608601477509     -0.12992255803328
  O   2.49470293457573     -0.47323600736642      0.45911637216055
