9
Coordinates from ORCA-job run
  C   -0.99704772778473     -0.30971167354203     -0.01234055777195
  C   0.24128732937277     -0.74262651008524      0.26593403230275
  H   -1.80855256778983     -1.01908548689416      0.12480015563163
  H   0.45552633551287     -1.74506754469054      0.61217661689509
  C   -1.36799366055743      0.98871426549980     -0.47178556115532
  N   -1.79280554070845      2.01832598651964     -0.85084138205347
  N   1.44444087515694      0.07408174099052      0.13860818393132
  O   1.33170835202917      1.23351862581655     -0.24641065324134
  O   2.49343660476868     -0.49714940361455      0.43985916546129
