9
Coordinates from ORCA-job run
  C   -0.80414753424310      0.10652754079053      0.24193200745942
  C   0.39901334925577      0.04996106073235     -0.34280533740113
  H   -0.94729410779140     -0.31719261158344      1.23136124049421
  H   0.65893332685380      0.43678533838724     -1.31975797612205
  C   -1.91079324037793      0.71654514680128     -0.41716981233886
  N   -2.83185227040351      1.21795383804766     -0.95063141365356
  N   1.52078036552561     -0.58048726790723      0.35252286711745
  O   1.32922245400379     -1.05161501501721      1.46895323426342
  O   2.58613765717697     -0.57847803025119     -0.26440480981891
