9
Coordinates from ORCA-job run
  C   -0.57755210350494      0.54577995446411     -0.29035475912127
  C   0.14585611842512     -0.44259308066214      0.25040239236850
  H   -0.08044651873883      1.37066197131435     -0.79169998358254
  H   -0.23774615795978     -1.31020146801179      0.77162579570757
  C   -2.00112639869003      0.53555566813316     -0.21935330732485
  N   -3.17656062731130      0.54012781314030     -0.16769708594968
  N   1.60565239847197     -0.41069415188215      0.16472600674197
  O   2.18164133865968     -1.36280583033086      0.69145470588086
  O   2.13928195064812      0.53316912383503     -0.40910376472056
