9
Coordinates from ORCA-job run
  C   -0.67054669113582      0.06643784255232     -0.51166492907613
  C   0.24038086390020      0.04139558017760      0.46925154811952
  H   -0.39509047501036     -0.23920486614928     -1.51641703480003
  H   0.08137488030559      0.32142833110043      1.50264145876298
  C   -2.00784231334829      0.49028333019090     -0.25924157278227
  N   -3.11512114398967      0.83725237585562     -0.06445071286869
  N   1.60679932664026     -0.39686190315292      0.18644203176528
  O   2.37060693502499     -0.38479213144915      1.15195253476556
  O   1.88943861761312     -0.73493855912552     -0.95851332388621
