9
Coordinates from ORCA-job run
  C   -0.74809537919036     -0.05934642635951     -0.39129924113047
  C   0.31478546026673      0.16321681399587      0.39193543448783
  H   -0.63921209454251     -0.63884321907169     -1.30292703838600
  H   0.32552429978555      0.72378343537119      1.31785632070673
  C   -2.03182296767687      0.45577056481542     -0.04686951417343
  N   -3.09735097694582      0.87416578679469      0.22514513439019
  N   1.62292340658711     -0.37483219734019      0.01945422831996
  O   2.53682670033268     -0.11798048769248      0.80336940674000
  O   1.71642155138350     -1.02493427051332     -1.01666473095482
