9
Coordinates from ORCA-job run
  C   -0.99152271028774     -0.32277225224338     -0.05310411652784
  C   0.25292016150964     -0.76402979273260      0.18120143516346
  H   -1.79158629484073     -1.05614377306213     -0.00174440192779
  H   0.48299352582561     -1.79534062184942      0.41398374672543
  C   -1.38292426543467      1.01300174717723     -0.36477616286915
  N   -1.82434934920325      2.07160130865907     -0.62690512717203
  N   1.44238786667319      0.08173704065444      0.15374978597171
  O   2.49931948805146     -0.50147276986940      0.39901181044463
  O   1.31176157770649      1.27441911326618     -0.10241696980842
