9
Coordinates from ORCA-job run
  C   -0.99130370294239     -0.32600026085848     -0.03076554067684
  C   0.25074792487840     -0.74457230868274      0.25274964370696
  H   -1.79272420062169     -1.05145797467603      0.07885069527983
  H   0.47791788132292     -1.75155244012398      0.57681966366086
  C   -1.37884622404248      0.97645299107001     -0.46458196250058
  N   -1.81703734906127      2.00701575952685     -0.82528429653038
  N   1.44126176233413      0.09470215817016      0.15815274580603
  O   1.31219074365275      1.26359000553205     -0.19169157690404
  O   2.49779316447964     -0.46917792995783      0.44675062815817
