14
Coordinates from ORCA-job run
  C   0.46755347281498     -0.69672332611202      0.12889780956997
  C   -0.86311585351997      0.03078784418523     -0.07330471371246
  Br  0.08395413013373     -2.57040532819402      0.45044266933201
  H   -1.39101910448784     -0.41602111865633     -0.91932594393910
  N   1.27282264475158     -0.64040703068827     -1.18599274078526
  O   0.60398407149329     -0.63248243108625     -2.20764596506594
  O   2.48523845298492     -0.65993953669616     -1.07725090012721
  C   1.25525734697967     -0.16008142425987      1.22133756376642
  N   1.85031351324875      0.25617570462781      2.14678673782846
  N   -0.63063845444563      1.48817881890022     -0.47216901972709
  O   0.53146596200054      1.86207674155874     -0.56586198594826
  O   -1.64584486582739      2.13274748496161     -0.67891033501317
  C   -1.68107899927059      0.00963217400625      1.12952417510488
  N   -2.33989231685603     -0.00353857254696      2.10247264871675
