14
Coordinates from ORCA-job run
  C   0.51739437883840     -0.65964992762729      0.12786043538583
  C   -0.86374342817345     -0.03282739563287     -0.07412322815481
  Br  0.27415925392093     -2.55754963102025      0.44600013597553
  H   -1.35495387296065     -0.51589928558609     -0.92229722719532
  N   1.31671997629578     -0.54198027602632     -1.18735132088290
  O   0.64953896761788     -0.58986389140288     -2.20892372768454
  O   2.52668426985732     -0.46431785518624     -1.07851844019161
  C   1.26307002039407     -0.06822622851526      1.22136837291168
  N   1.82609179329872      0.38901205615004      2.14753543170753
  N   -0.73947406103649      1.43886820282649     -0.46865979246844
  O   -1.79929264846178      2.00930800057502     -0.66886098255114
  O   0.39228127616527      1.89588799620063     -0.56592567195018
  C   -1.67826461865500     -0.11829146503469      1.12809069868582
  N   -2.33121130710099     -0.18447029972028      2.10280531641254
