14
Coordinates from ORCA-job run
  C   0.43091053110652     -0.76921082442528     -0.05134400187835
  C   -0.80157937747404      0.07639308341778      0.33691643920097
  Br  -0.12232476717251     -2.23060285110041     -1.16805419998739
  H   -1.52053403537161     -0.58674422077540      0.82421330075355
  N   1.49170829435805      0.12401485215859     -0.78215844456242
  O   1.98435921577682      0.96264100219700     -0.04401452217464
  O   1.71717065305835     -0.08674924235018     -1.95514397112504
  C   1.05932352018339     -1.27009738038146      1.15901877221529
  N   1.53436419312099     -1.68244210870760      2.15348977250693
  N   -1.48990020210613      0.59247365401412     -0.91189395486436
  O   -2.64902045135826      0.23848351119787     -1.07674558282329
  O   -0.81350620684133      1.31962306753546     -1.62853347798237
  C   -0.49287324774518      1.20498895445616      1.20551803365145
  N   -0.32909811953505      2.10722850276337      1.94073183706967
