14
Coordinates from ORCA-job run
  C   0.61762807701420     -0.58194828452351      0.01037175585712
  C   -0.84659328108684     -0.15196319887271     -0.10292877013431
  Br  0.68123199283425     -2.51935955819778     -0.05661335514743
  H   -1.25726137070982     -0.52752429829882     -1.04341319273952
  N   1.38263394050078     -0.08253165951167     -1.23288229135659
  O   2.56394614549006      0.16682766402844     -1.07602267779902
  O   0.72951366231254     -0.03842011247943     -2.26388611609915
  C   1.26269167089269     -0.10914039090360      1.21958756387652
  N   1.73864203939417      0.23937533683415      2.23736000544983
  N   -0.95960562542817      1.36952544528302     -0.19659869682426
  O   0.08479439224675      2.00810045599530     -0.17488021460119
  O   -2.09755083987602      1.79511067629040     -0.30812399173484
  C   -1.63327583386563     -0.60250784390401      1.03468439489771
  N   -2.26679496971897     -0.96554423173973      1.95534558635510
