14
Coordinates from ORCA-job run
  C   0.48394438090387     -0.69603836243018     -0.02899141578968
  C   -0.86416357851149      0.02526822522483      0.03325728984535
  Br  0.14769564911887     -2.60459175092297      0.05317164317278
  H   -1.48403110095394     -0.30205264322727     -0.80505198846158
  N   1.12968683204945     -0.43111519114463     -1.40462987487253
  O   2.34667907644238     -0.43758641830630     -1.43967471198250
  O   0.34601299179213     -0.30984169544670     -2.33343259334643
  C   1.39095265475418     -0.30926841616544      1.03392459397911
  N   2.07759441134159     -0.02134496898301      1.94469030955938
  N   -0.68358008606557      1.53019359041157     -0.16684810762623
  O   0.45680128878868      1.93415758930279     -0.35456522095872
  O   -1.71790948919322      2.17719448661383     -0.16277582041126
  C   -1.53746551932354     -0.19215670433766      1.30423467274124
  N   -2.09021751114347     -0.36481774058898      2.32669122415110
