14
Coordinates from ORCA-job run
  C   0.44721390079960     -0.60274333612521     -0.17285002040614
  C   -0.49101501563410      0.56457547495080      0.20122730851089
  Br  0.05840303028546     -1.28976839456753     -1.91487644611200
  H   -0.27153473975859      0.85974214473014      1.23090145688946
  N   1.88471659978963      0.03173744544724     -0.11848884702509
  O   2.56398712500941      0.03247874125486     -1.12396964792871
  O   2.15363997955035      0.48208690517469      0.98645741683366
  C   0.43767737875492     -1.66920636379350      0.81382207371148
  N   0.48400377531569     -2.54787762582907      1.59525385824514
  N   -1.92985560695589      0.07540013163916      0.20359510504086
  O   -2.20431257665108     -0.67440877693813      1.13260113819290
  O   -2.66346025181146      0.45399669717532     -0.69766858151570
  C   -0.32282334533624      1.68468822486784     -0.71018920393664
  N   -0.14764025335771      2.59929873201348     -1.42681561050018
