14
Coordinates from ORCA-job run
  C   0.43800890709355     -0.76458000129645     -0.05027852968918
  C   -0.80572145338155      0.06649780910524      0.33491565155481
  Br  -0.09411568997386     -2.22797285002688     -1.17471905431879
  H   -1.51973678874382     -0.60646293798991      0.81592484634074
  N   1.49250359202864      0.14185669746541     -0.77325786168039
  O   1.98236509582804      0.97544086673961     -0.02740578225698
  O   1.71532114779138     -0.05395536602115     -1.94942048450625
  C   1.06584780770032     -1.26375312932706      1.16104869900341
  N   1.53871885592403     -1.67588382669227      2.15673593574511
  N   -1.49356715515061      0.57909523080595     -0.91612131699049
  O   -2.64489700031240      0.20575886648434     -1.09252217302390
  O   -0.82414413743926      1.32214615673027     -1.62287371929421
  C   -0.51152402021881      1.19618990977953      1.20677809097442
  N   -0.33905916114564      2.10462257424342      1.93219569814172
