14
Coordinates from ORCA-job run
  C   0.45623483459095     -0.60109966702276     -0.15560506445060
  C   -0.49529689547839      0.56504746700350      0.18701167902401
  Br  -0.01103221536852     -1.43055531154762     -1.81424165076719
  H   -0.22242545227644      0.94632248757906      1.17473695235103
  N   1.87349696739965      0.07523541967721     -0.23633021339067
  O   2.49116536363566      0.01968085414369     -1.27925952057830
  O   2.19295360681615      0.61420162432508      0.81409673080873
  C   0.53804638734511     -1.58854165213084      0.90710554940578
  N   0.65185889835132     -2.40591927187306      1.74601894313036
  N   -1.91408631322011      0.03726199949124      0.31942455682209
  O   -2.70988568154228      0.30976152854428     -0.56735307313740
  O   -2.10967215623403     -0.63210892754791      1.32665195853444
  C   -0.42131370667143      1.61450869609291     -0.81637059962067
  N   -0.32204363734760      2.47820475326520     -1.60688624813169
