15

C	-0.496773	-0.027023	-1.448101
C	0.0	0.0	0.0
Cl	-0.008311	1.414478	-2.407397
H	1.095287	0.0	0.0
H	-1.595108	-0.026732	-1.47587
C	-0.043739	-1.229888	-2.150666
N	0.28729	-2.209135	-2.708754
N	-0.39339	-1.248749	0.661118
H	-1.272543	-1.622518	0.315841
H	0.33811	-1.928432	0.486737
C	-0.562812	1.188139	0.751464
H	-1.661495	1.163705	0.804852
H	-0.252723	2.133143	0.301588
H	-0.171928	1.149824	1.769597
F	2.636444	0.0	0.0
