15

C	-0.588171	-0.059505	-1.407507
C	0.0	0.0	0.0
Cl	-0.235886	1.408602	-2.394475
H	1.100428	0.0	0.0
H	-1.680102	-0.123763	-1.35187
C	-0.116857	-1.229326	-2.149791
N	0.20692	-2.161828	-2.786605
N	-0.418067	-1.2781	0.611566
H	-0.978789	-1.11581	1.440149
H	0.439609	-1.739922	0.899862
C	-0.513656	1.192281	0.781592
H	-0.249404	2.133867	0.298857
H	-1.606144	1.163727	0.91608
H	-0.039113	1.184372	1.766358
F	2.64171	0.0	0.0
