15

C	-0.593502	-0.052776	-1.405683
C	0.0	0.0	0.0
Cl	-0.132671	1.365216	-2.419132
H	1.100444	0.0	0.0
H	-1.687338	-0.038834	-1.344949
C	-0.206463	-1.269845	-2.11886
N	0.082953	-2.235303	-2.721843
N	-0.456001	-1.268248	0.621976
H	0.371551	-1.84983	0.679544
H	-0.739808	-1.085202	1.576566
C	-0.52563	1.19205	0.771539
H	-1.611849	1.1263	0.938863
H	-0.306365	2.129589	0.258169
H	-0.020993	1.225039	1.741634
F	2.649598	0.0	0.0
