15

C	-0.590182	0.030708	-1.408908
C	0.0	0.0	0.0
Cl	-0.177811	1.527195	-2.324157
H	1.100362	0.0	0.0
H	-1.683441	0.006116	-1.354483
C	-0.160844	-1.122548	-2.202334
N	0.153777	-2.044024	-2.859631
N	-0.433216	-1.310829	0.540968
H	-0.84527	-1.185981	1.458159
H	0.422312	-1.840111	0.671732
C	-0.518188	1.141006	0.85226
H	-0.007706	1.103507	1.818818
H	-1.604085	1.071999	1.022835
H	-0.297926	2.111273	0.403688
F	2.647828	0.0	0.0
