12
Coordinates from ORCA-job run
  C   -0.63965574906690     -1.05640828158646     -0.21472017292012
  C   -0.08425783710065      0.23106935517396      0.37567378624694
  H   -0.33937315492524     -1.92512904901482      0.37611650987845
  H   -0.39003378846405      0.35883944606560      1.41383076126743
  H   -0.27274145167752     -1.17934104224596     -1.23603550728591
  H   -1.73005469256879     -1.00630743506890     -0.23447748531666
  N   -0.34750773058343      1.44354996236103     -0.34911310334309
  H   -1.26610252728353      1.79900992046050     -0.12497114877146
  H   -0.27554511478018      1.29342535234472     -1.34672944878436
  N   1.41498739507467      0.06702553947233      0.43935178325152
  O   2.01184780990484      0.15385608747636     -0.62954022559245
  O   1.91843684147077     -0.18058985543835      1.53161425136971
