12
Coordinates from ORCA-job run
  C   -0.70512593834689     -1.05683329204489     -0.07688648056715
  C   -0.04648223545868      0.25881958926651      0.29143663463515
  H   -1.78980826331678     -0.96716090799721      0.01381237240133
  H   -0.22693181958450      0.50112222002243      1.34464851089869
  H   -0.36421793934241     -1.85362936794549      0.58195869094694
  H   -0.45442568398561     -1.30802557348348     -1.11005279688846
  N   -0.36514964321259      1.28435316467106     -0.63656866939055
  H   -0.28843169235706      2.21385766938411     -0.25395413040268
  H   -1.26319658220087      1.14970249623903     -1.07284030155861
  N   1.47123475811156      0.00163385708564      0.29205797796353
  O   2.16377866776509      0.46745709257175     -0.60108631711166
  O   1.86775637192873     -0.69129694776947      1.22747450907345
