18

C	-0.365599	-0.150085	-1.460727
C	0.0	0.0	0.0
F	-0.011121	-1.372398	-1.876687
H	1.095181	0.0	0.0
N	-1.848821	-0.019496	-1.815054
O	-2.553053	-0.900752	-1.339273
O	-2.198933	0.890563	-2.549977
N	0.351367	0.867142	-2.336574
O	0.502646	1.976776	-1.847051
O	0.661484	0.489634	-3.455723
C	-0.473299	-1.14159	0.884365
H	-1.558975	-1.158517	0.986825
H	-0.129479	-2.087616	0.469142
H	-0.001947	-1.010307	1.859456
N	-0.510072	1.268292	0.586296
O	-1.592655	1.687728	0.173276
O	0.139591	1.753647	1.502087
Br	3.360979	0.0	0.0
