18

C	-0.425167	-0.021933	-1.452219
C	0.0	0.0	0.0
F	0.34141	0.707511	-2.246241
H	1.095866	0.0	0.0
N	-0.383204	-1.461509	-1.991085
O	0.631846	-1.784189	-2.586146
O	-1.368512	-2.153796	-1.758553
N	-1.877007	0.393944	-1.696052
O	-2.651143	0.316484	-0.752903
O	-2.140889	0.729706	-2.843497
C	-0.446421	-1.160884	0.863268
H	-1.528983	-1.277207	0.887171
H	-0.068275	-0.983157	1.868122
H	0.02144	-2.075861	0.498536
N	-0.400538	1.318963	0.587374
O	-0.576274	2.254313	-0.193025
O	-0.477407	1.395392	1.808722
Br	3.336988	0.0	0.0
