18

C	-0.46163	0.006152	-1.434318
C	0.0	0.0	0.0
F	-1.77434	-0.183806	-1.645482
H	1.090559	0.0	0.0
N	-0.037406	1.303067	-2.116597
O	-0.9208	2.01067	-2.581048
O	1.164966	1.521307	-2.088871
N	0.23565	-1.091382	-2.252084
O	0.568815	-0.820649	-3.400574
O	0.281484	-2.192341	-1.717039
C	-0.58618	-1.089987	0.875831
H	-0.36226	-0.846462	1.917743
H	-0.130468	-2.050931	0.644718
H	-1.670095	-1.162076	0.75599
N	-0.389714	1.326022	0.586146
O	-1.556471	1.701623	0.439928
O	0.471808	1.916061	1.235293
Br	2.751822	0.0	0.0
