14

C	0.0	0.0	0.0
C	-0.556214	0.089644	-1.425299
Br	1.938617	0.0	0.0
H	-1.597117	-0.257277	-1.340902
H	-0.282781	0.924274	0.516472
N	-0.467432	-1.222626	0.598428
H	-1.489105	-1.170802	0.580096
H	-0.174603	-1.260722	1.56834
C	0.130898	-0.805354	-2.355831
N	0.6175	-1.510654	-3.158963
N	-0.503464	1.479861	-1.895825
H	-0.583376	1.490929	-2.905885
H	-1.348447	1.918145	-1.535982
Br	-3.693473	0.0	0.0
