14

C	0.0	0.0	0.0
C	-0.508058	0.141568	-1.427953
Br	1.952703	0.0	0.0
H	-1.604602	0.135776	-1.315826
H	-0.264116	0.926434	0.519139
N	-0.491863	-1.21884	0.569649
H	-0.277956	-1.236058	1.560365
H	-1.513144	-1.18061	0.483884
C	-0.121671	-1.013461	-2.258052
N	0.161984	-1.870408	-3.010719
N	-0.114403	1.422646	-1.999754
H	0.839122	1.371045	-2.338806
H	-0.719382	1.631258	-2.784292
Br	-3.722066	0.0	0.0
