14

C	0.0	0.0	0.0
C	-0.501557	-0.639841	-1.303262
Br	1.955293	0.0	0.0
H	-1.589881	-0.720538	-1.163597
H	-0.27406	1.061042	-0.025466
N	-0.473753	-0.748071	1.125342
H	-0.255703	-0.252556	1.982329
H	-1.494389	-0.777684	1.040666
C	0.035002	-1.996294	-1.473662
N	0.442232	-3.082435	-1.655572
N	-0.27514	0.14178	-2.509101
H	0.6674	0.514973	-2.506217
H	-0.935572	0.909739	-2.50983
Br	-3.667834	0.0	0.0
