14
Coordinates from ORCA-job run
  C   0.54830424914841     -0.31488748367344      0.42211046877056
  C   -0.72624172739595      0.43291464454021      0.73924910452380
  Cl  1.28011992920992     -0.83489979113852      1.92161414880841
  H   -1.38689617458751     -0.23533300413131      1.29310725734867
  H   -0.50718277290206      1.32195527934596      1.32708158131746
  N   0.25844232796611     -1.56645065753615     -0.42922864553481
  O   0.87230624318851     -1.69654205287648     -1.47251449603790
  O   -0.57518922336139     -2.30945466830509      0.06013980261555
  N   1.54496194421667      0.54562348230064     -0.34889787909659
  O   1.08271992005444      1.56757333470637     -0.84516115908176
  O   2.69161282877746      0.13664290057625     -0.41332185013577
  N   -1.49150070467119      0.88218213867348     -0.46565278670699
  O   -1.43533236203007      0.17115943821487     -1.46215447981497
  O   -2.15512447761335      1.89951643930320     -0.32437106697566
