14
Coordinates from ORCA-job run
  C   0.47759143484062     -0.23554210996890      0.25177191328505
  C   -0.99612321950422      0.09883401249471      0.25344045720229
  Cl  1.30481122960907      0.37052506473328      1.64691147538278
  H   -1.48439243946339     -0.32781435194816      1.12482343271147
  H   -1.46175979043373     -0.26152136164860     -0.66376980631787
  N   0.64922324840689     -1.76174227473524      0.20530969369260
  O   1.78194686396819     -2.15206247872483     -0.02729550647184
  O   -0.34979316359194     -2.43685003845741      0.41395316221540
  N   1.14467465958528      0.21496130027643     -1.06299920921454
  O   0.55449890114361     -0.20631346666272     -2.04907813574418
  O   2.16034417865127      0.87689835208708     -1.01442219394030
  N   -1.20061664649601      1.57798838797600      0.30453045030848
  O   -0.45435300757904      2.26482021632800     -0.38692633336456
  O   -2.12505224913660      1.97681874825036      1.00275060025522
