14
Coordinates from ORCA-job run
  C   0.50998360247544     -0.02111606396533      0.29079760132460
  C   -0.62809660418020      0.74755941023862     -0.33988613157970
  Cl  0.75122155839912      0.38659100848549      1.95630538344109
  H   -0.77513819823107      0.41827422329980     -1.36840422621127
  H   -0.43608753790536      1.81586697647157     -0.30069852771272
  N   0.33299809877074     -1.53876294776502      0.08222636583109
  O   0.16269775281507     -1.82661969161708     -1.09502864711826
  O   0.40984972238055     -2.28030894986664      1.03945402566589
  N   1.80663345384804      0.27082711912462     -0.47924089024166
  O   1.77804188006600      1.19611098370154     -1.27942400794040
  O   2.74974737768687     -0.45339160389978     -0.20443867256717
  N   -1.90228231370327      0.49354219192944      0.39720774680704
  O   -2.62998198471159      1.46181973766957      0.58246482978807
  O   -2.13058680771033     -0.66839239380680      0.72066515051339
