14
Coordinates from ORCA-job run
  C   0.54849940576582     -0.31503835898564      0.42068320814270
  C   -0.72745368512760      0.42906686671751      0.74035133949554
  Cl  1.28229330315582     -0.83669179681710      1.91881704209639
  H   -1.38637526163981     -0.24299373821667      1.29167996891309
  H   -0.51095206330050      1.31683401581589      1.33098254271966
  N   0.26084093555772     -1.56465610895620     -0.43401687690256
  O   0.87673870007628     -1.69176003194649     -1.47634912793671
  O   -0.57147430680860     -2.31007939243263      0.05400213779828
  N   1.54333893886821      0.55010995269033     -0.34743383564937
  O   2.69054152733076      0.14307489637270     -0.41509787131374
  O   1.07998694833200      1.57461415317592     -0.83754387836280
  N   -1.49325995360086      0.88033063558878     -0.46336399348165
  O   -2.15829395318662      1.89640377416847     -0.32003886928381
  O   -1.43543053542262      0.17178513282512     -1.46167178623504
