14
Coordinates from ORCA-job run
  C   0.41238117897343     -0.26592312829843      0.35262043074504
  C   -1.02456877213432      0.04274276081511      0.00632242138011
  Cl  0.81162203491906      0.11059745837284      1.98451517611966
  H   -1.21548601300940     -0.17084033010709     -1.04301349350051
  H   -1.69940496482617     -0.53130096579011      0.63936004764723
  N   0.66073241088696     -1.77190444652973      0.06930239545319
  O   0.04113071277364     -2.22026334838520     -0.88800881921229
  O   1.46780632774622     -2.35227784254222      0.77445237178233
  N   1.38494715876956      0.41089965827246     -0.64765425077327
  O   0.98005929087598      0.43058484188960     -1.80093019759990
  O   2.45865876822016      0.78954462537246     -0.21850129150404
  N   -1.34013934109204      1.48852566871670      0.22233624923937
  O   -0.42434403023407      2.29375282324304      0.08769352113919
  O   -2.51339476186901      1.74586222497057      0.46150543908389
