14
Coordinates from ORCA-job run
  C   0.55627093245741     -0.33229368813829      0.39754669305378
  C   -0.70264429350285      0.41584656608062      0.77100311607223
  Cl  1.32186676197602     -0.90463962557399      1.86076443152083
  H   -0.46019123936223      1.28498004768011      1.37908362124421
  H   -1.35450345631821     -0.26329074031505      1.32198448412893
  N   0.23302229319216     -1.55393036982445     -0.48467436547039
  O   -0.59509964546406     -2.30449614656090      0.00260852926160
  O   0.81959242020245     -1.65680031124845     -1.54650866139299
  N   1.54077844530763      0.54333807453218     -0.37211666030105
  O   1.07520602497103      1.58394340956522     -0.82465744478954
  O   2.68155634748908      0.12691431377630     -0.47918323458589
  N   -1.49560863969969      0.90796003263753     -0.39887913390750
  O   -2.14748910242160      1.92487045314099     -0.20843533340642
  O   -1.47075684882716      0.22859798424817     -1.41853604142780
