14
Coordinates from ORCA-job run
  C   0.34504849097148     -0.28639492528185      0.37848545783608
  C   -1.01919150951472      0.08582632673354     -0.15493887688116
  Cl  0.52567656212504      0.07023231654125      2.06320771602235
  H   -1.06386724534457     -0.10575996851649     -1.22690613621765
  H   -1.79688519536157     -0.46276181109962      0.36843398330197
  N   0.57925336336309     -1.78980197485443      0.16633538062711
  O   -0.39025299586895     -2.45909264222180     -0.16441754368985
  O   1.72230248839239     -2.17100014395980      0.35999831990394
  N   1.46227795540358      0.34808030571408     -0.47412641510128
  O   1.33701138000670      0.09210074767797     -1.66435480785274
  O   2.34027269507772      0.97956367728718      0.07591976429547
  N   -1.27975850841191      1.54198934398102      0.05151443153310
  O   -2.40108653790813      1.84921752229456      0.43846024874126
  O   -0.36080094293015      2.30980122570439     -0.21861152251859
