14
Coordinates from ORCA-job run
  C   0.56673174599909     -0.00225003409158      0.31753012665478
  C   -0.58802538504834      0.84687391887459     -0.17893522095486
  Cl  1.01452618009469      0.25212119816936      1.96769014814091
  H   -0.47615689286691      1.87168821877830      0.17068006327124
  H   -0.64466600003125      0.80168399300651     -1.26246942902649
  N   0.24079079637279     -1.47788105744506      0.02319568038504
  O   0.00080323540174     -1.67377002840178     -1.16243487768405
  O   0.24002388193278     -2.28016248733226      0.93818896586058
  N   1.80149766394284      0.28184111021015     -0.54860831437743
  O   2.66367265444729     -0.58153091658093     -0.54230232305912
  O   1.82074280548328      1.36298479328074     -1.12082418806404
  N   -1.89079623364687      0.32165371581816      0.34168774226071
  O   -2.02000274561769      0.26166793635359      1.56043369799394
  O   -2.73014170646344      0.01607963936022     -0.50083207140121
