14
Coordinates from ORCA-job run
  C   0.57140510176118     -0.36363725487284      0.34502609616420
  C   -0.72116513238885      0.25781492843633      0.82171051167590
  Cl  1.45392949733281     -0.95369785571559      1.73335501533940
  H   -1.34033068591266     -0.48800573319644      1.31598298085284
  H   -0.47807329275158      1.06740412058421      1.51108296538590
  N   0.33329447797557     -1.51899611974383     -0.62353461107816
  O   1.28064145340331     -2.25218330579386     -0.84963125926098
  O   -0.79714168412822     -1.58476033377153     -1.09482348674176
  N   1.45102760876731      0.67449972279508     -0.37799038401656
  O   1.84462049757642      0.40264567160549     -1.49749924642909
  O   1.66369141574919      1.67885169598436      0.27989299547212
  N   -1.55044142544367      0.86332534124681     -0.26690494958746
  O   -0.95407629420931      1.35312892469852     -1.21893720894060
  O   -2.75838153773150      0.86361019774330     -0.07672941883577
