14
Coordinates from ORCA-job run
  C   0.48395906469147     -0.15662835365184      0.29544525293425
  C   -0.55470152291910      0.86514208372117     -0.10552996636973
  Cl  0.61819270809070     -0.33673836334726      2.01240296100794
  H   -0.63787327946310      0.90641784253973     -1.19149424667056
  H   -0.30578159727267      1.84225112445024      0.29821395864682
  N   0.23673064481317     -1.50282467611746     -0.41412920443141
  O   0.19974449226276     -2.52097436866413      0.24472218365977
  O   0.13808222142374     -1.37464533329283     -1.62728416367243
  N   1.85143992485312      0.26639646801468     -0.26196253236011
  O   1.94024151863059      1.40364487327182     -0.70469588589517
  O   2.72590674100132     -0.58242994651141     -0.19626174940515
  N   -1.89696549912477      0.48720900212134      0.43046981379388
  O   -2.21023516364375     -0.69703324760709      0.35216144813349
  O   -2.58774025334346      1.40021289507304      0.86694213062839
