14
Coordinates from ORCA-job run
  C   0.50317295784424     -0.12232185522572      0.28094832590186
  C   -0.55627209448539      0.85240385768235     -0.17840874630819
  Cl  0.75745242947997     -0.07853162278470      1.99283080571702
  H   -0.71430629585850      0.75366661440260     -1.25216382934262
  H   -0.27636605283515      1.87076809342921      0.07562957890343
  N   0.19986966748790     -1.54665982016318     -0.22678950576728
  O   0.20663986581901     -2.46939764138758      0.56089478329112
  O   0.01538235832636     -1.57693666507696     -1.43638777117711
  N   1.83007501874967      0.20339329758859     -0.42224656769438
  O   1.88071995299820      1.25494132052638     -1.04608959314220
  O   2.71208268590605     -0.62825591086408     -0.28202589220787
  N   -1.86012852680733      0.56546063060813      0.49198584740201
  O   -2.51891708124212      1.53722746858634      0.84242485164682
  O   -2.18040488538289     -0.61475776732137      0.59839771277738
