14
Coordinates from ORCA-job run
  C   0.36930705660916     -0.27658315767456      0.36189622027654
  C   -1.02780301838510      0.08262142378988     -0.08877797894030
  Cl  0.66237857600234      0.12742562626958      2.01988976640092
  H   -1.76866272322004     -0.45143061624089      0.49912801544938
  H   -1.14365380998489     -0.13625100558615     -1.15014140107014
  N   0.59022207434523     -1.78518613671589      0.17637348711354
  O   1.74331102760137     -2.16249082144028      0.30915451261081
  O   -0.39736083037902     -2.46185907271666     -0.07699132589377
  N   1.42642335748446      0.33259280250902     -0.58143348136406
  O   2.33805112860804      0.97975479122965     -0.10963979521354
  O   1.22228810898620      0.04304955285193     -1.75293251159478
  N   -1.27406375958736      1.54409738038351      0.09706471306375
  O   -2.36405251504021      1.86342897692288      0.55714075274456
  O   -0.37738467304018      2.30283025641799     -0.25973097358290
