14
Coordinates from ORCA-job run
  C   0.23258253836232     -0.48362560386612     -0.23789613984097
  C   -0.88866686952392      0.24142818973670      0.46987643095108
  Cl  -0.28407784854151     -1.24788619055181     -1.70313670700095
  H   -1.68166218497927     -0.45030570968347      0.73887530295870
  H   -0.50346709906017      0.75038951866563      1.35334331986179
  N   1.43883901894412      0.45044543122383     -0.46193344578911
  O   1.80564343657178      0.98822749885663      0.57444473375990
  O   1.91810134881046      0.54176566751875     -1.57287820112830
  N   0.81233422625095     -1.55569658107368      0.69768917781603
  O   0.17680712590018     -1.80621282832721      1.71282917775314
  O   1.85769004851284     -2.06245994578350      0.32367789545390
  N   -1.48303637356886      1.28154269368395     -0.42218470166050
  O   -0.69672973925754      1.97417111588569     -1.06169991652595
  O   -2.70435762842136      1.38021674371461     -0.41100692660876
