14
Coordinates from ORCA-job run
  C   0.49606782429767     -0.39194554786992      0.42196355918639
  C   -0.79676791531598      0.33252452349601      0.71900940080137
  Cl  1.15424950348372     -0.99971382728995      1.92273034792243
  H   -1.52430114705527     -0.35253479279232      1.14946661600626
  H   -0.58149522643049      1.14512111771851      1.41405834554416
  N   0.29682191089765     -1.55589512908275     -0.54395487591878
  O   1.21072035992027     -2.35755419561941     -0.63604416897998
  O   -0.76959742142043     -1.55954026769265     -1.14989253350193
  N   1.53216677369592      0.56123274211681     -0.20578269010014
  O   1.73482158393198      1.56682224127322      0.45315290900506
  O   2.03943528642749      0.23031459660129     -1.26184332508933
  N   -1.43893659030106      0.95795269709014     -0.47898237920657
  O   -0.69463049390887      1.38095466432194     -1.35600401927197
  O   -2.65855444822261      1.04026117772908     -0.44687718639698
