14
Coordinates from ORCA-job run
  C   0.48956478820298     -0.15320359025011      0.28720114821886
  C   -1.01109010502679      0.00762074187027      0.21035324566164
  Cl  1.18468710034661      0.68348927019324      1.63477527938062
  H   -1.48384298152573     -0.38301828630396      1.10667807274434
  H   -1.39416540339195     -0.49361967903636     -0.67857416248676
  N   0.83237921441030     -1.64600233715538      0.40905756909282
  O   -0.08713919347745     -2.40198528128411      0.69222237717307
  O   2.00544959392531     -1.92841747851511      0.22547467349473
  N   1.15555632378420      0.23665138797024     -1.04709587051349
  O   0.66381268702915     -0.35417491438342     -1.99947645981447
  O   2.07977051360977      1.02286947523529     -1.03939324158511
  N   -1.37967427955280      1.45135640550773      0.10211656411815
  O   -2.35052718108938      1.81739802717466      0.75405148057748
  O   -0.70478107724421      2.13903625897702     -0.65839067606189
