14
Coordinates from ORCA-job run
  C   0.28094895491401     -0.40429007923423     -0.32138223437163
  C   -0.92735492432165      0.07700399977500      0.44807832830009
  Cl  -0.09837348551065     -0.85596040233149     -1.94966114028480
  H   -1.68226387609439     -0.70199211663025      0.50066712075423
  H   -0.62993853832779      0.39514832751650      1.44733649661164
  N   1.42490854130556      0.62661653740002     -0.25422081469556
  O   1.69244257821498      0.94621017849532      0.89652208567807
  O   1.95707885304258      0.98758196209976     -1.28322910320892
  N   0.88481112161133     -1.62165657231110      0.39565059913358
  O   2.00017483854728     -1.94688109182932      0.02180450076072
  O   0.19387534277344     -2.15620715079320      1.25244613941184
  N   -1.54622350982542      1.25586746993965     -0.22958467246280
  O   -0.77932037792237      2.11296039321196     -0.65852734741955
  O   -2.77076551840690      1.28459854469138     -0.26489995820693
