14
Coordinates from ORCA-job run
  C   0.19897786734344     -0.44379313681897     -0.32929027932982
  C   -0.82775492742059      0.16693833242865      0.59625146863215
  Cl  -0.48752939049197     -0.99373009798882     -1.82081250743095
  H   -0.34120675452727      0.54545253748339      1.49509468550664
  H   -1.59410851545974     -0.55962885275460      0.85020794630244
  N   1.38256159397530      0.51861816941703     -0.55253370237608
  O   1.86821218455869      0.90583704835615      0.50209422154644
  O   1.73686054107474      0.76812297494934     -1.68584555355133
  N   0.86808210774348     -1.63561435600963      0.37237847295888
  O   1.85947538340813     -2.07815660282221     -0.18510994162113
  O   0.34727063530712     -2.03213694841697      1.40617431748830
  N   -1.50586782621209      1.32229986460692     -0.06445635832789
  O   -0.78928691174523      2.09953985660799     -0.68843348000301
  O   -2.71568598755401      1.41725121096174      0.10528071020536
