14
Coordinates from ORCA-job run
  C   0.50399135120577     -0.21478063099653      0.21176291947336
  C   -0.96772667416681      0.09964994372386      0.34954571967125
  Cl  1.45900333961149      0.48462387699202      1.47554815788717
  H   -1.35501781852081     -0.28574593966900      1.28825059828776
  H   -1.51825736835815     -0.31492745299437     -0.49482494727651
  N   0.70060970855680     -1.73837906111910      0.23342142227031
  O   -0.26139028874314     -2.41528831113478      0.57040484365441
  O   1.81449037688580     -2.12394382865081     -0.08297380146754
  N   1.02133073614776      0.16793364275331     -1.18924410676113
  O   2.01579826646830      0.85640781241376     -1.28525046063594
  O   0.34669194536202     -0.32786665853043     -2.08203668419725
  N   -1.18957290197727      1.57680894905494      0.34507867949074
  O   -2.01260261167268      2.00934856401178      1.14321119390550
  O   -0.55834806079908      2.22715909414535     -0.48289353430213
