14
Coordinates from ORCA-job run
  C   0.43971334656589     -0.25301487345131      0.29636459632317
  C   -1.02100252927429      0.09535955712398      0.12784936357857
  Cl  1.08407441833628      0.27597655372375      1.81375795664062
  H   -1.61875085394398     -0.37305515245236      0.90433937753160
  H   -1.36540510861562     -0.20866068389038     -0.86052437979794
  N   0.61184106548145     -1.77660949386153      0.19377603891466
  O   1.76447470851930     -2.16577294127490      0.09825284600623
  O   -0.40897170946983     -2.45065410019375      0.22480359282598
  N   1.27009525468396      0.25701287548981     -0.89896294354675
  O   0.81539583272933     -0.11825200933142     -1.97144779710742
  O   2.26663171141781      0.91642174411572     -0.68847173289935
  N   -1.22241032524939      1.57165640294725      0.23686199232896
  O   -0.41091115068363      2.28470869459054     -0.34619756751213
  O   -2.20377466049727      1.94488342646460      0.86859865671380
