14
Coordinates from ORCA-job run
  C   0.35693500495559     -0.28194649491551      0.37083935559273
  C   -1.02258857572766      0.11522734371810     -0.10183530037476
  Cl  0.64450806457627      0.13993128700756      2.02553682924625
  H   -1.78724949423436     -0.38363618830583      0.48633027706278
  H   -1.13389937484626     -0.11844716673396     -1.16060695377131
  N   0.52856700755519     -1.80031014181731      0.21424528373100
  O   1.66919449984325     -2.21246669156443      0.35038986993585
  O   -0.48151544709061     -2.44899191831654     -0.02290076731282
  N   1.44385972525893      0.27563397230999     -0.56979188134709
  O   2.37418163574761      0.89491991895605     -0.09715140475340
  O   1.24297641001192     -0.02610526766018     -1.73873547372099
  N   -1.22426278975009      1.58697260372451      0.05499354210105
  O   -2.31445348603769      1.94827486783794      0.48225962310981
  O   -0.29625318026209      2.31094387575959     -0.29357299949910
