14
Coordinates from ORCA-job run
  C   0.43988807486463     -0.26153069925725      0.29080023584490
  C   -1.01183660323048      0.13634313480545      0.15670083822161
  Cl  1.14817559415647      0.27688452949068      1.77617042086411
  H   -1.60140319214316     -0.28973006111469      0.96331993305522
  H   -1.39774006213961     -0.18189716120368     -0.81167081463014
  N   0.55299847053473     -1.79251716127293      0.22010080040213
  O   1.68728188726773     -2.22577344850095      0.09682456125509
  O   -0.48920332215580     -2.42823046397694      0.30298348671628
  N   1.25220631517371      0.18921431526598     -0.93933650238464
  O   2.28324626633943      0.80700225713792     -0.77344584948915
  O   0.74725860996426     -0.18502896254067     -1.98961557245127
  N   -1.15912021443010      1.62112380366403      0.22926288401356
  O   -0.32527726709829      2.29028835922817     -0.37382922421205
  O   -2.12547455710350      2.04385155827489      0.85273480279434
