14
Coordinates from ORCA-job run
  C   0.50345370401931     -0.23361474016057      0.19469001497001
  C   -0.95605643933430      0.11430652800251      0.37486326504899
  Cl  1.50529382272146      0.40491220824705      1.45408977885956
  H   -1.53573224111317     -0.26336062647553     -0.46732426279604
  H   -1.33258086063409     -0.28613584734984      1.31165684968184
  N   0.66003282322990     -1.76191791949722      0.16930742470658
  O   1.75598581051358     -2.16717268956333     -0.18299172334197
  O   -0.31212801821097     -2.42288662800820      0.50881109310726
  N   0.99876715291586      0.17506466854780     -1.20744625455457
  O   2.00740579581220      0.84196025632641     -1.30759915788628
  O   0.29194943632746     -0.27887128419087     -2.09755697098354
  N   -1.13995070076059      1.59641664759736      0.41514980847746
  O   -0.50958529874329      2.25354167976094     -0.40804401259260
  O   -1.93485498674335      2.02675774676346      1.24239414730330
