14
Coordinates from ORCA-job run
  C   0.51527380874523     -0.13501269231664      0.24947709020004
  C   -0.63122486896977      0.81730657643681     -0.00049489560703
  Cl  0.78606423364780     -0.42931548536045      1.93440486999378
  H   -0.43666984531653      1.78015016008477      0.46284949903885
  H   -0.79462518682089      0.93074506472018     -1.07217562961086
  N   0.33132960313949     -1.44116448599432     -0.54829953778173
  O   0.13888717775045     -1.23230992508974     -1.73875357487142
  O   0.42287316387181     -2.50467449062901      0.02852678895197
  N   1.79980942713204      0.44903913207062     -0.35823280475873
  O   1.76539990135782      1.62388616156856     -0.69824167805664
  O   2.74097610213492     -0.32464441871930     -0.42939131291423
  N   -1.89548375246428      0.28322292789747      0.58964480402381
  O   -2.11718013164034     -0.91366154065129      0.43162855132753
  O   -2.62342963256774      1.09543301598234      1.14805783006466
