14
Coordinates from ORCA-job run
  C   0.49386462867852     -0.24275886810389      0.20587012036694
  C   -0.96443151654608      0.12667285804087      0.34948002546946
  Cl  1.47060885106338      0.37314788326333      1.49612635385553
  H   -1.37187470160270     -0.27491408743001      1.27273359111776
  H   -1.52705799183318     -0.23547741450814     -0.51089938662525
  N   0.62808863379524     -1.77264351975834      0.17506523424392
  O   1.72619109875891     -2.19246459253955     -0.15277774976817
  O   -0.36154114653705     -2.42105010239089      0.48729974735546
  N   1.03285443264341      0.16691878694734     -1.17965754651555
  O   0.34294963941113     -0.26913407293129     -2.09158367867917
  O   2.05471908662764      0.81756305224368     -1.24792619540788
  N   -1.12550047006858      1.61097959601023      0.39586896745620
  O   -1.93223875552681      2.04913551879865      1.20744345243825
  O   -0.46563178886383      2.26302496235801     -0.40804293530750
