14
Coordinates from ORCA-job run
  C   0.26560874778334     -0.35147634884064     -0.38896302442788
  C   -0.94409442476328      0.06338810376129      0.41616817057257
  Cl  -0.05151153880639     -0.41550539652414     -2.08988403903963
  H   -1.75891324366555     -0.64023738025935      0.27235288744872
  H   -0.68095622748403      0.13971180035518      1.47108470642135
  N   1.48137200386628      0.53696794361752     -0.05582150640785
  O   2.10024575839279      1.05598790494471     -0.96126360941558
  O   1.70471536795482      0.58313567204359      1.14660394594769
  N   0.73178389460114     -1.73953866540219      0.07672439436881
  O   -0.02745358043711     -2.36107882563690      0.80783764931273
  O   1.82261022634336     -2.09056909173644     -0.34317341753027
  N   -1.42860504738857      1.40666908817497     -0.02214785742459
  O   -0.57310413009047      2.26357995953392     -0.22395314709144
  O   -2.64269780630633      1.54996523596847     -0.10556515273463
