14
Coordinates from ORCA-job run
  C   0.55570156169507     -0.30813468071766      0.41720811904544
  C   -0.72645188354875      0.42144057513082      0.74558797425340
  Cl  1.30567735496864     -0.82125360490406      1.91015056675628
  H   -1.37329795124207     -0.25608664139666      1.30438832753938
  H   -0.51509137383697      1.31321744026426      1.33210344025104
  N   0.27652638418820     -1.56130529578605     -0.43522944970928
  O   0.88644340113623     -1.68172327653359     -1.48196091029505
  O   -0.54459569606043     -2.31591326423173      0.05764069664122
  N   1.53498959736035      0.56744387320271     -0.35915330784260
  O   2.68687437250672      0.17489454028291     -0.43209894270982
  O   1.05471110900441      1.58301031257015     -0.85143929292515
  N   -1.50826092077841      0.86107871407492     -0.45244848631329
  O   -1.44757687193093      0.15456842787154     -1.45191066717941
  O   -2.18764908346204      1.86676288017243     -0.30283806751215
