18

C	-0.473683	0.080987	-1.436758
C	0.0	0.0	0.0
F	-1.892485	0.42723	-1.413958
H	1.09357	0.0	0.0
C	0.252988	1.184306	-2.1678
H	1.315701	1.036904	-1.958491
H	-0.060208	2.151287	-1.776122
H	0.057905	1.135191	-3.24474
N	-0.317614	-1.169165	-2.083439
H	-0.852051	-1.183246	-2.942762
H	-0.625717	-1.890658	-1.441674
N	-0.456771	-1.25863	0.616616
H	0.261092	-1.544617	1.27248
H	-1.316455	-1.100572	1.13281
N	-0.390969	1.225919	0.687571
H	0.193154	1.318918	1.508866
H	-1.366016	1.192631	0.964641
F	2.704921	0.0	0.0
