18

C	-0.439585	0.000141	-1.461988
C	0.0	0.0	0.0
F	-0.106236	1.252294	-2.011764
H	1.10006	0.0	0.0
C	0.374087	-1.022519	-2.233961
H	0.04862	-2.030601	-1.961249
H	0.236883	-0.886025	-3.312307
H	1.421761	-0.88613	-1.948606
N	-1.875806	-0.11299	-1.541327
H	-2.158961	-0.389889	-2.474798
H	-2.120353	-0.850342	-0.886299
N	-0.521001	-1.2494	0.615939
H	-0.642353	-1.007613	1.594405
H	0.248231	-1.912768	0.589897
N	-0.520458	1.14195	0.737345
H	-1.375827	1.458933	0.29051
H	0.165858	1.880609	0.643601
F	2.741567	0.0	0.0
