18

C	-0.231802	0.033628	-1.511565
C	0.0	0.0	0.0
F	0.062738	-1.271315	-1.993921
H	1.103419	0.0	0.0
C	-1.646417	0.307846	-1.968185
H	-1.705834	0.281834	-3.061821
H	-2.294728	-0.470452	-1.561122
H	-1.984524	1.280642	-1.610109
N	0.730494	0.966294	-2.012022
H	0.823902	0.860464	-3.015578
H	1.626706	0.738956	-1.5514
N	-0.628782	-1.139492	0.646045
H	-1.292524	-0.776477	1.319052
H	0.085589	-1.657886	1.139296
N	-0.502295	1.262323	0.588528
H	-0.230337	1.994201	-0.063203
H	0.082801	1.42243	1.405744
F	2.76079	0.0	0.0
