18

C	-0.349208	-0.039784	-1.483157
C	0.0	0.0	0.0
F	-0.028088	1.259256	-1.996678
H	1.10047	0.0	0.0
C	0.569459	-0.99648	-2.209086
H	1.57821	-0.804773	-1.825959
H	0.522644	-0.828011	-3.289514
H	0.28614	-2.028921	-1.996049
N	-1.745209	-0.279353	-1.679261
H	-1.984578	-0.13464	-2.653606
H	-2.226627	0.414504	-1.112895
N	-0.424764	-1.208749	0.69718
H	0.365577	-1.84006	0.702193
H	-1.198622	-1.644685	0.208831
N	-0.685318	1.156731	0.600622
H	-0.607373	1.015105	1.601464
H	-0.130531	1.974308	0.368967
F	2.764904	0.0	0.0
