18

C	-0.1743	-0.048104	-1.50964
C	0.0	0.0	0.0
F	-1.544527	-0.221252	-1.844579
H	1.095652	0.0	0.0
C	0.336509	1.221768	-2.145581
H	-0.264073	2.076062	-1.834992
H	1.361708	1.352017	-1.787929
H	0.320183	1.110136	-3.232693
N	0.561468	-1.177442	-2.047533
H	1.519908	-1.006538	-1.717672
H	0.260158	-1.970781	-1.487554
N	-0.470524	-1.256938	0.588676
H	-1.468492	-1.199975	0.772436
H	0.011096	-1.396185	1.47077
N	-0.516483	1.231062	0.589822
H	-1.516233	1.139052	0.752374
H	-0.062328	1.364211	1.489678
F	2.726561	0.0	0.0
