18

C	-0.375538	-0.026487	-1.483326
C	0.0	0.0	0.0
F	-0.163125	1.267177	-2.00293
H	1.100084	0.0	0.0
C	0.593253	-0.9326	-2.221565
H	0.377777	-1.975252	-1.974116
H	0.495436	-0.793408	-3.304083
H	1.603351	-0.689511	-1.872556
N	-1.782165	-0.304251	-1.641632
H	-1.968513	-0.621836	-2.587131
H	-1.966726	-1.069148	-0.997945
N	-0.480223	-1.269322	0.608235
H	0.354606	-1.820822	0.787927
H	-0.837936	-0.995936	1.518133
N	-0.566239	1.139392	0.705568
H	0.159622	1.840619	0.756727
H	-1.324725	1.526808	0.155435
F	2.748687	0.0	0.0
