12

C	0.0	0.0	0.0
C	-0.555971	0.212943	-1.394762
Cl	1.7603	0.0	0.0
H	-1.641354	0.374639	-1.281833
H	-0.383208	-0.91431	0.4439
H	-0.424079	-0.722791	-1.946664
N	-0.410973	1.10779	0.946334
O	-0.452709	0.802653	2.132037
O	-0.599564	2.217808	0.467006
C	0.080736	1.289407	-2.144424
N	0.598511	2.116581	-2.795799
Br	-3.60534	0.0	0.0
