12

C	0.0	0.0	0.0
C	-0.274278	-0.009931	-1.521306
Cl	1.762161	0.0	0.0
H	0.09977	0.949459	-1.886326
H	-0.415481	-0.822892	0.570273
H	0.399416	-0.772484	-1.922285
N	-0.419768	1.271265	0.688871
O	-0.490074	2.289656	0.01428
O	-0.539602	1.192065	1.904276
C	-1.550636	-0.267941	-2.202452
N	-2.179105	-0.515609	-3.169621
Br	-3.278561	0.0	0.0
