13

C	0.0	0.0	0.0
C	-0.448974	-0.219463	-1.43008
Cl	1.797957	0.0	0.0
H	-1.53925	-0.166307	-1.415998
H	-0.276865	-0.87775	0.591123
H	-0.055463	0.617036	-2.025177
N	-0.48988	1.262075	0.483236
H	-1.510485	1.187482	0.433995
H	-0.24233	1.361597	1.461548
N	-0.043267	-1.541334	-1.906667
H	-0.636895	-1.80832	-2.680107
H	0.912221	-1.511204	-2.238595
Cl	-3.651309	0.0	0.0
