13

C	0.0	0.0	0.0
C	-0.500982	-0.447645	-1.38725
Cl	1.857025	0.0	0.0
H	0.288495	-0.977489	-1.925016
H	-0.248041	-0.760713	0.738573
H	-1.331356	-1.134515	-1.199021
N	-0.474729	1.260288	0.463352
H	-0.459323	1.889034	-0.332917
H	-1.454647	1.115366	0.708915
N	-0.934986	0.712434	-2.168204
H	-1.894886	0.890693	-1.877396
H	-0.96954	0.449796	-3.145767
Cl	-3.581797	0.0	0.0
