13

C	0.0	0.0	0.0
C	-0.314157	-0.10962	-1.515773
Cl	1.801252	0.0	0.0
H	0.317033	0.642475	-1.99748
H	-0.278786	-0.916151	0.532645
H	0.059511	-1.087874	-1.840526
N	-0.545116	1.206541	0.550487
H	-0.421817	1.209222	1.556908
H	-1.553135	1.159041	0.385769
N	-1.662436	0.074168	-1.988501
H	-2.339968	-0.491968	-1.488114
H	-1.965188	1.024173	-1.819205
Cl	-4.133803	0.0	0.0
