13

C	0.0	0.0	0.0
C	-0.527075	-0.092512	-1.410542
Cl	1.854971	0.0	0.0
H	-0.271612	0.835897	-1.947261
H	-0.251447	-0.912287	0.536194
H	-1.614878	-0.126142	-1.279372
N	-0.51426	1.121117	0.662917
H	-0.281393	1.996411	0.220236
H	-0.327202	1.141687	1.652
N	-0.066396	-1.309861	-2.068853
H	-0.70903	-1.543909	-2.813301
H	0.849781	-1.163957	-2.472206
Cl	-4.126043	0.0	0.0
