13

C	0.0	0.0	0.0
C	-0.434321	-0.023854	-1.458369
Cl	1.804272	0.0	0.0
H	-1.526011	-0.018071	-1.435997
H	-0.302307	-0.938598	0.464214
H	-0.088714	0.915271	-1.923686
N	-0.511882	1.091473	0.774786
H	-1.519749	0.91818	0.838044
H	-0.38873	1.952046	0.249992
N	0.023273	-1.230355	-2.141189
H	-0.546343	-1.381642	-2.964275
H	0.985464	-1.120609	-2.436271
Cl	-3.656462	0.0	0.0
