13

C	0.0	0.0	0.0
C	-0.333982	-0.113488	-1.507815
Cl	1.80058	0.0	0.0
H	0.2775	0.645814	-2.004116
H	-0.276544	-0.916059	0.534707
H	0.044156	-1.087709	-1.838178
N	-0.538794	1.206762	0.557366
H	-1.547643	1.166526	0.401884
H	-0.403077	1.211406	1.561983
N	-1.695845	0.05051	-1.948428
H	-2.002399	1.003748	-1.806538
H	-2.361317	-0.504325	-1.419528
Cl	-4.202088	0.0	0.0
