14

C	0.0	0.0	0.0
C	-0.512995	0.192178	-1.40259
F	1.393767	0.0	0.0
H	-0.213629	-0.615002	-2.069254
H	-0.317891	0.847909	0.608128
H	-1.60593	0.285537	-1.351248
C	-0.489861	-1.301677	0.58667
H	-0.138651	-2.142714	-0.018551
H	-1.580781	-1.292719	0.62018
H	-0.092591	-1.414857	1.598505
N	0.032431	1.43958	-2.007779
O	0.022919	2.45988	-1.323819
O	0.442534	1.376105	-3.168146
Cl	-3.728348	0.0	0.0
