14

C	-0.355416	-0.008385	-1.485571
C	0.0	0.0	0.0
F	-1.6996	-0.257188	-1.693924
H	1.091353	0.0	0.0
H	-0.177723	1.00098	-1.883541
N	0.402522	-1.05887	-2.087165
H	0.293758	-1.034764	-3.093725
H	1.387181	-0.954141	-1.847044
C	-0.549294	-1.154781	0.691599
N	-0.983573	-2.082435	1.264219
N	-0.520197	1.254617	0.63403
O	-1.735499	1.31464	0.827253
O	0.290282	2.144879	0.874763
Cl	3.288827	0.0	0.0
