14

C	-0.383779	0.218044	-1.466869
C	0.0	0.0	0.0
F	-0.346446	-1.06507	-2.068812
H	1.089684	0.0	0.0
H	-1.410613	0.562797	-1.589503
N	0.531509	1.125104	-2.018672
H	0.382278	1.272858	-3.00599
H	1.493553	0.859168	-1.819731
C	-0.548051	-1.219923	0.57011
N	-1.020673	-2.190148	1.032355
N	-0.442469	1.1481	0.868991
O	-0.063789	1.111618	2.034644
O	-1.151512	2.020185	0.372734
Cl	3.22415	0.0	0.0
