14

C	-0.475395	0.021972	-1.45276
C	0.0	0.0	0.0
F	-0.158035	-1.238398	-1.986817
H	1.091746	0.0	0.0
H	-1.562455	0.102574	-1.516735
N	0.152681	1.100147	-2.102336
H	-0.116298	1.160798	-3.075153
H	1.164262	1.04273	-2.00269
C	-0.539175	-1.136191	0.733609
N	-0.974578	-2.052656	1.324816
N	-0.51089	1.266327	0.629314
O	0.298203	2.136362	0.916231
O	-1.730624	1.342166	0.780462
Cl	3.256732	0.0	0.0
