14
Coordinates from ORCA-job run
  C   -0.59796299851973      0.05838423351767      0.40695526468889
  C   0.57836691112557      0.29760111716368     -0.24473683243222
  N   -1.17972157060746     -1.29609170018892      0.42964678728518
  O   -0.42768456573996     -2.25574506523006      0.28332192335765
  O   -2.40020660288017     -1.36220261522858      0.58685466248214
  N   -1.35016983782483      0.94485893721537      1.11789984784813
  H   -1.13182108909847      1.92138111060335      0.98837169295179
  H   -2.33192643584482      0.72089967489534      1.18097198737041
  C   1.47340867110859     -0.69052733613465     -0.95091877535538
  H   0.90713523749330     -1.36694070464394     -1.59241157878124
  H   2.18584212313561     -0.14158104214000     -1.56800143964266
  H   2.02748447495976     -1.30113887408586     -0.23646515759736
  C   0.98084709186701      1.66372924616635     -0.21873180574725
  N   1.26740859082559      2.80737301809025     -0.18275657642807
