14
Coordinates from ORCA-job run
  C   -0.63962107735771     -0.26378974679926      0.22372036179539
  C   0.54803420021475     -0.06536029730627     -0.42018070727703
  N   -1.15678740770047      0.74752223570923      1.16511411663106
  O   -0.80376926273605      1.91410811071210      1.01745225490568
  O   -1.91045205245839      0.33344905299657      2.04701506160860
  N   -1.50220445992789     -1.31109388935375      0.08343073298551
  H   -1.13941570846208     -2.12067623709431     -0.39623770051648
  H   -2.06554833772752     -1.50439948850009      0.89747703239481
  C   1.45586695596446      1.13733475340770     -0.35373752310828
  H   1.56769345477195      1.50438319603616      0.66614765410388
  H   2.43938532602582      0.86179850844293     -0.73505795173418
  H   1.06500039102318      1.96013934009526     -0.95564483242928
  C   0.92860766447368     -1.13999464152548     -1.27556878839203
  N   1.21421031389626     -2.05242089682078     -1.96592971096766
