14
Coordinates from ORCA-job run
  C   -0.67909715475444      0.06709005949790      0.25193054849670
  C   0.56080857917567      0.29471346727268     -0.27069506486596
  N   -1.25721795876881     -1.29136240445504      0.31344344599160
  O   -1.99206507448134     -1.51595810651131      1.27597143199312
  O   -0.98552189249363     -2.09233172832384     -0.57454256649234
  N   -1.56000159288943      0.99665367771055      0.73083087581088
  H   -2.17012990472050      0.65534775392247      1.45837725986538
  H   -1.17712641713121      1.91650927763892      0.89362612907618
  C   1.54010012571585     -0.68582128634554     -0.86750658746570
  H   2.15976085582234     -0.16936223459942     -1.60244178607034
  H   1.03759449313075     -1.51450089432249     -1.35556007541382
  H   2.20520267563035     -1.08110113240417     -0.09385925872677
  C   0.99524329545319      1.64703211642060     -0.14250744662941
  N   1.32244997031120      2.77309143449866     -0.01706690556951
