14
Coordinates from ORCA-job run
  C   -0.65811576534789     -0.07811871158608      0.20444133023710
  C   0.50349868262527     -0.03928322302906     -0.50305662191460
  N   -1.86837526925907     -0.75614208422919     -0.30855062419063
  O   -1.90653797675262     -1.05117571204199     -1.49692300546297
  O   -2.76136604121750     -0.96985156903727      0.51446865496164
  N   -0.86866243344269      0.53916673073789      1.40514227915260
  H   -0.06159295518585      0.63078511095078      2.00135180125343
  H   -1.70727149664878      0.23344415524938      1.87701012613322
  C   1.67130183445355      0.71561496357763      0.08291309582935
  H   1.35223757968370      1.70417988086257      0.42701543488476
  H   2.45422571632508      0.84677588489977     -0.66288067522577
  H   2.10886288728177      0.17985915586455      0.93352952471258
  C   0.71186626116975     -0.71878029253760     -1.73278501779588
  N   1.03092897631530     -1.23647428968137     -2.74267630257483
