14
Coordinates from ORCA-job run
  C   -0.62616607917053     -0.18068718070757      0.23685219501608
  C   0.43476495155443      0.17573841743350     -0.53681034627886
  N   -2.01403860367561     -0.15733057768547     -0.27454213811053
  O   -2.90660255549129     -0.22259751890369      0.57362995916729
  O   -2.18304651976652     -0.08003623395098     -1.48537854329857
  N   -0.54421341467605     -0.65211313056091      1.51674423348668
  H   -1.42983056282192     -0.66616013587232      2.00145635072392
  H   0.22831464083186     -0.30838793231573      2.06467234090274
  C   1.81785442329547      0.07520622689915      0.05804375166180
  H   1.99377526112767      0.86395898073762      0.79900719148818
  H   2.57584175607157      0.17642587775471     -0.71760798430024
  H   1.95215489697425     -0.89352420414522      0.54885596156943
  C   0.32222709948799      0.70116233137944     -1.85155187129541
  N   0.37896470625867      1.16634507993748     -2.93337110073251
