14
Coordinates from ORCA-job run
  C   -0.63072458535517     -0.12526365939087      0.26030796395219
  C   0.42224450418043      0.30755935218967     -0.48498517618238
  N   -2.03005098102701      0.02502918066999     -0.19431890955301
  O   -2.87369261709050     -0.63461841740193      0.41686662460559
  O   -2.25655082215381      0.78441319120929     -1.12861689222839
  N   -0.53859713967385     -0.67274305465115      1.50866212255495
  H   -1.38702535019059     -1.12338869334881      1.81915534417456
  H   0.30612848399196     -1.18571045970531      1.70444950545297
  C   1.81083245733467      0.15180491543796      0.08496089625778
  H   1.84377774209990      0.52143584891283      1.11446601711242
  H   2.53237903452060      0.71410095560517     -0.50609892232995
  H   2.12767284751479     -0.89781277562234      0.08626753356594
  C   0.30651826202089      0.84622614671209     -1.79401789650627
  N   0.36508816382770      1.28896746938341     -2.88509821087641
