14
Coordinates from ORCA-job run
  C   -0.60062469021692      0.06448526492050      0.40595141731729
  C   0.58514054371264      0.29092374805350     -0.23226297579640
  N   -1.20666411281477     -1.27924173094825      0.40530378380155
  O   -2.42589516628852     -1.32798821522242      0.57317671221510
  O   -0.47057298188073     -2.24807902855605      0.23780214252424
  N   -1.33761514735741      0.95340825062619      1.13482077575591
  H   -1.10083575300437      1.92611069707187      1.00395720354974
  H   -2.32555459377116      0.75157878684534      1.15640397966101
  C   1.45980091966730     -0.70239038143636     -0.95675479623483
  H   2.18996791651282     -0.16060969895500     -1.55795527560725
  H   0.87899942437738     -1.35084852854168     -1.61257994754568
  H   1.99288438185356     -1.34454220898651     -0.25323116200521
  C   1.01987816081769      1.64692120226186     -0.17974223206630
  N   1.34209109839247      2.78027184286701     -0.12488962556917
