14
Coordinates from ORCA-job run
  C   -0.62024006603850     -0.22918999492264      0.20661501650122
  C   0.43794614934793      0.23345009486473     -0.51316040418898
  N   -1.99508758011241     -0.24340950559826     -0.33837092791800
  O   -2.90199975794791     -0.41046184869929      0.48007791370408
  O   -2.14052815731292     -0.09485003702131     -1.54569149894099
  N   -0.54287742945216     -0.77976152191347      1.45423042252035
  H   0.20141178359153     -0.44180481753284      2.04296658372565
  H   -1.43610494502695     -0.87347055471143      1.91554811081874
  C   1.80887594430730      0.16881450057165      0.11281323045726
  H   1.99027551687094     -0.82674841133124      0.52980600356725
  H   2.57911101896353      0.37575003687590     -0.62907339405116
  H   1.91712963405713      0.90418331566374      0.91894131270331
  C   0.32581921231405      0.83934997964214     -1.79279583544422
  N   0.37726867643846      1.37714876411232     -2.84090653345451
