14
Coordinates from ORCA-job run
  C   -0.62771825899741     -0.27841863431584      0.24093824199040
  C   0.54591801842993     -0.05641780821609     -0.41710173822692
  N   -1.18144067593365      0.74054882174564      1.14979359372555
  O   -1.84737609846576      0.31801111528349      2.09613677262682
  O   -0.94925638880988      1.92235468367981      0.90998033019601
  N   -1.44629210006602     -1.36902055060339      0.14682028000684
  H   -1.02797416869686     -2.18297051531460     -0.28151784192618
  H   -1.97740524080934     -1.55946384914762      0.98322010204009
  C   1.40439015702846      1.18196787664532     -0.41157489554614
  H   2.43630051748043      0.90319638514397     -0.62801653930028
  H   1.37183348839434      1.69867268042456      0.54463094750810
  H   1.07023698758140      1.88578132442433     -1.17675733116376
  C   0.95874877094662     -1.14090762398851     -1.24600598207607
  N   1.27003499191774     -2.06333390576106     -1.91154593985449
