14
Coordinates from ORCA-job run
  C   -0.63962991146851     -0.10039390835097      0.24802345417621
  C   0.43907261697460      0.21016701260130     -0.52094586157777
  N   -2.01003639594183     -0.15879381769869     -0.30679583871079
  O   -2.20817900227581      0.33265668557367     -1.41127215562530
  O   -2.86035824198407     -0.70260042815530      0.40136481594369
  N   -0.60747325998023     -0.32448602959740      1.59496989317803
  H   0.24539961985378     -0.71846216204280      1.95868194810266
  H   -1.45316526919350     -0.73696600896273      1.96058557777594
  C   1.79078588727598      0.29142096921488      0.14501727913278
  H   1.72979127551491      0.89154740203967      1.05806614405372
  H   2.51815381255013      0.75253105961366     -0.52183009259327
  H   2.16741523153595     -0.70320215786332      0.41123837793582
  C   0.38864003064736      0.40013143401137     -1.92754323861333
  N   0.50058360649124      0.56444994961665     -3.08956030317840
