14
Coordinates from ORCA-job run
  C   -0.61146612711135     -0.26245499765110      0.19244501075861
  C   0.42844473761174      0.26822465191682     -0.50697730586651
  N   -1.96172388736590     -0.41304402037143     -0.38915226353264
  O   -2.10398210307406     -0.20564833415057     -1.58770577696168
  O   -2.85621479334764     -0.74234952422895      0.39408258742358
  N   -0.52184199020829     -0.77458430212499      1.45550824096683
  H   -1.41422637816067     -0.92549965643720      1.90181850136479
  H   0.18906817156956     -0.37520076526334      2.04656168031029
  C   1.77505590953257      0.33038957627518      0.17199264000894
  H   2.04210776480609     -0.65221645131307      0.57471194082964
  H   2.54883659939840      0.63704004655869     -0.53066069954724
  H   1.77401763312071      1.05094409392389      0.99884525026325
  C   0.32890026460969      0.79339550192769     -1.82191974145130
  N   0.38502419861917      1.27100418093840     -2.89855006456656
