14
Coordinates from ORCA-job run
  C   -0.64612906151815      0.06738721745521      0.32979039726539
  C   0.57005046611936      0.27278949655875     -0.25241182195975
  N   -1.28604744028660     -1.25878023733606      0.29630311708444
  O   -1.93059082820003     -1.57318863856837      1.29963849401603
  O   -1.14059094484622     -1.95329733622561     -0.70404150090789
  N   -1.42581547744036      0.99133221868271      0.95982073898901
  H   -1.01762369588516      1.89798941821285      1.12129567842460
  H   -2.04020265152313      0.64255383210357      1.68054569993861
  C   1.43859863911515     -0.67893942111659     -1.03008504701817
  H   1.37517791955926     -0.45105996333137     -2.09664054338357
  H   1.13573209463762     -1.71396969656703     -0.89759355933793
  H   2.47982370382612     -0.55253945336621     -0.72657566757786
  C   1.06245030323574      1.60153109397047     -0.08361052798071
  N   1.42616697320641      2.70819146952767      0.10256454244780
