14
Coordinates from ORCA-job run
  C   -0.63534276081190     -0.09792513035494      0.25877466843488
  C   0.43629612164532      0.27982483171975     -0.48955081721111
  N   -2.02702996846312      0.11577934000921     -0.19446192185467
  O   -2.21700414170878      0.87954597848794     -1.13324336458358
  O   -2.90085265024249     -0.49378091184317      0.42551860589378
  N   -0.56702070889059     -0.63597157081515      1.51328265759514
  H   -1.43635623506811     -1.03887244164976      1.83154739261365
  H   0.24881608218621     -1.19222114583616      1.71325291570894
  C   1.81647076698209      0.07165252331348      0.08413168781992
  H   1.86027573366690      0.44253507182004      1.11236613740368
  H   2.09372925452377     -0.98881852032597      0.08629275065964
  H   2.55991508808147      0.60447044828765     -0.50728112621652
  C   0.34521937650689      0.81061239456578     -1.80392738496320
  N   0.42388404159234      1.24316913262130     -2.89770220130056
