14
Coordinates from ORCA-job run
  C   -0.62373147230793     -0.18098398585151      0.24245687504166
  C   0.43292096931954      0.16594902265134     -0.54153922485352
  N   -2.01022210796718     -0.20007330830253     -0.27160929618830
  O   -2.17766643800587     -0.15617950733208     -1.48442219979182
  O   -2.90359912784521     -0.26474746169412      0.57573997092485
  N   -0.53602422414868     -0.60825784264974      1.53745049123269
  H   -1.42100984338005     -0.62462820297665      2.02242914935043
  H   0.22932180298637     -0.23238707150271      2.07430265731274
  C   1.81670549108419      0.10660300908166      0.05696323356162
  H   2.57325201176024      0.18649934588828     -0.72260719352212
  H   1.96255609379107     -0.84017504224864      0.58584723775672
  H   1.98272002921901      0.92472813442404      0.76769397091913
  C   0.31277981567855      0.64715201333943     -1.87244911662669
  N   0.36299699981597      1.07650089717321     -2.96925655511739
