14
Coordinates from ORCA-job run
  C   -0.62251594214543     -0.15593252220276      0.26040955663540
  C   0.41153410456449      0.36635596091799     -0.45364951335362
  N   -2.03545534252053      0.07637173748759     -0.11437759146957
  O   -2.27719444993449      0.93607239215086     -0.95266504806428
  O   -2.87320264201017     -0.61920702969729      0.46378263080247
  N   -0.49350010485806     -0.87497120860626      1.41555624670098
  H   -1.34611232173962     -1.33067007923011      1.70659730359862
  H   0.33465713143520     -1.44445493221347      1.48947588887421
  C   1.81515410822639      0.12677195571661      0.04615353470308
  H   2.13855735023618     -0.90359951061567     -0.14326216414751
  H   2.51806178321218      0.79087309845711     -0.45562626226634
  H   1.87114247294873      0.31247026022473      1.12303847162832
  C   0.26350264657745      1.07067174296012     -1.67807709099901
  N   0.29437120600767      1.64824813465057     -2.70535596264275
