14
Coordinates from ORCA-job run
  C   -0.59674541032196     -0.27488500055042      0.23117292206788
  C   0.45300916633000      0.24393489679624     -0.45336925381930
  N   -1.93138533671614     -0.41623590923399     -0.41125492747787
  O   -2.12071864847545      0.09290002662826     -1.50987000665156
  O   -2.77764770306678     -1.02373177138295      0.24893992287632
  N   -0.48976130428705     -0.80035386983227      1.52250102477249
  H   -1.32650500683939     -1.33558935805126      1.70301502494488
  H   -0.42677596700022     -0.06153518499620      2.21896144243520
  C   1.83383567399998      0.31533673164294      0.14125463938922
  H   2.02424451502787      1.33176673939792      0.51888370704710
  H   1.87754077167910     -0.40364061988009      0.96526146579872
  H   2.59210449756015      0.11865886602007     -0.62312843532692
  C   0.37617521519320      0.84057543158828     -1.75401164449012
  N   0.51162953691669      1.37079902185346     -2.79735588156601
