14
Coordinates from ORCA-job run
  C   -0.63694955968564     -0.24977942670350      0.24098059040504
  C   0.54229975739647     -0.04472762497788     -0.42552695648933
  N   -1.14011053431079      0.72437757430420      1.22948441219622
  O   -2.26289455537800      0.51194913733533      1.68983609965871
  O   -0.40337140956517      1.65077684206560      1.55902268937391
  N   -1.51441001605838     -1.26845856474104      0.03123712754555
  H   -1.16684574970295     -2.07790767437193     -0.45852408882013
  H   -2.20538059752696     -1.41828557486312      0.74799131661103
  C   1.49006857123019      1.12701643096775     -0.36463724272010
  H   2.12305296492517      1.10637682739697     -1.25319031594214
  H   2.13323499959353      1.07024218663299      0.51951141378630
  H   0.96082588674809      2.07632500809644     -0.32302884363624
  C   0.90991892293130     -1.13732334189022     -1.26109636638818
  N   1.17256131940313     -2.07058179925158     -1.93305983558065
