14
Coordinates from ORCA-job run
  C   -0.62643092256427     -0.19157805790143      0.22687495387582
  C   0.43717139977188      0.19778134214123     -0.52702176172946
  N   -2.01078592378278     -0.16410774761516     -0.29422582479078
  O   -2.90895988240794     -0.26784278615178      0.54410374543555
  O   -2.17155439049361     -0.04873961377057     -1.50319803955880
  N   -0.55006197795942     -0.70340250108538      1.49142071102805
  H   -1.43889490326162     -0.73886388221631      1.96902415899758
  H   0.21601923513902     -0.37218008726600      2.05579526489483
  C   1.81687585332199      0.08837207961617      0.07401615562670
  H   1.98089708136386      0.85237782478180      0.84292458009359
  H   1.95619019756717     -0.89558747127317      0.53204355980280
  H   2.57927914143637      0.22183697101903     -0.69228971210546
  C   0.33018917617565      0.76191775045697     -1.82609715056347
  N   0.39106591569370      1.25901617926462     -2.89337064100696
