18

C	0.0	0.0	0.0
C	-0.458371	-0.011273	-1.477318
Cl	1.795632	0.0	0.0
H	0.158654	-0.781377	-1.956046
C	-0.408015	1.253778	0.641388
N	-0.720237	2.270228	1.140796
C	-0.50997	-1.192063	0.796923
H	-0.060834	-1.197089	1.791291
H	-0.238307	-2.116824	0.282304
H	-1.596722	-1.133644	0.894104
N	-0.088407	1.270141	-2.081334
H	-0.115461	1.167469	-3.089252
H	-0.804707	1.950458	-1.84246
C	-1.930567	-0.364142	-1.628815
H	-2.158111	-1.386971	-1.326493
H	-2.602387	0.278065	-1.053103
H	-2.205729	-0.264772	-2.683301
Br	-5.075947	0.0	0.0
