18

C	0.0	0.0	0.0
C	-0.372996	-0.112708	-1.544922
Cl	1.801655	0.0	0.0
H	0.400969	0.482836	-2.044747
C	-0.373678	1.346842	0.443241
N	-0.649254	2.446827	0.750249
C	-0.641958	-1.03866	0.887258
H	-1.725166	-0.952907	0.734671
H	-0.302854	-2.04029	0.61925
H	-0.416772	-0.848581	1.93675
N	-1.64258	0.420471	-1.961651
H	-1.721828	1.404725	-1.734953
H	-2.439811	-0.026721	-1.508295
C	-0.259964	-1.556982	-2.009852
H	-1.091029	-2.146011	-1.616662
H	-0.32889	-1.572585	-3.098322
H	0.683821	-2.017698	-1.709359
Br	-4.351293	0.0	0.0
