18

C	0.0	0.0	0.0
C	-0.544666	0.18001	-1.431349
Cl	1.806002	0.0	0.0
H	-1.630827	0.063167	-1.309749
C	-0.373391	1.13956	0.842365
N	-0.614655	2.06732	1.521965
C	-0.495468	-1.297193	0.617628
H	-0.182732	-2.122015	-0.021482
H	-1.589157	-1.248061	0.658766
H	-0.087896	-1.417818	1.624013
N	-0.059218	-0.926825	-2.254086
H	0.811405	-0.665744	-2.703566
H	-0.742396	-1.117759	-2.974887
C	-0.266452	1.560758	-2.011467
H	-0.686402	1.61307	-3.01951
H	-0.735395	2.34433	-1.412291
H	0.809161	1.757553	-2.072278
Br	-3.956552	0.0	0.0
