18

C	0.0	0.0	0.0
C	-0.443708	0.563772	-1.393648
Cl	1.795659	0.0	0.0
H	0.407688	0.384237	-2.056913
C	-0.414855	0.876266	1.099157
N	-0.718154	1.539366	2.020682
C	-0.491511	-1.41389	0.274376
H	-0.105466	-1.764396	1.231866
H	-0.147245	-2.086121	-0.512113
H	-1.585304	-1.407161	0.306225
N	-0.577618	2.014207	-1.268484
H	-0.615525	2.416951	-2.197718
H	-1.475001	2.21149	-0.831929
C	-1.666052	-0.119877	-1.999012
H	-1.862366	0.356004	-2.96679
H	-1.497414	-1.185857	-2.183906
H	-2.563932	-0.015493	-1.381306
Br	-4.664539	0.0	0.0
