18

C	0.0	0.0	0.0
C	-0.438627	0.087398	-1.514818
Cl	1.802403	0.0	0.0
H	0.33546	0.705915	-1.983267
C	-0.354285	1.268881	0.64745
N	-0.585872	2.299376	1.162344
C	-0.584687	-1.161299	0.778708
H	-0.287403	-1.106296	1.82767
H	-0.244278	-2.109516	0.36244
H	-1.677486	-1.094587	0.714259
N	-1.702748	0.719496	-1.773568
H	-2.499188	0.261384	-1.32566
H	-1.709571	1.678223	-1.447184
C	-0.421752	-1.292226	-2.157735
H	-1.266877	-1.882703	-1.797887
H	0.508011	-1.831052	-1.959263
H	-0.538749	-1.168978	-3.235132
Br	-4.461663	0.0	0.0
