17

C	-0.302287	0.039472	-1.498776
C	0.0	0.0	0.0
Cl	-2.101125	0.119762	-1.764746
H	1.09797	0.0	0.0
N	0.271351	1.267027	-1.998642
H	1.260044	1.266626	-1.740883
H	0.204397	1.287883	-3.011989
C	0.208293	-1.224898	-2.169099
H	-0.284301	-2.109215	-1.769425
H	1.281673	-1.294125	-1.969569
H	0.039271	-1.161491	-3.247489
N	-0.463203	-1.22477	0.631639
H	-1.41539	-1.112252	0.956816
H	0.131495	-1.418816	1.427308
C	-0.4769	1.216788	0.67575
N	-0.878375	2.116287	1.316916
Cl	3.307926	0.0	0.0
