17

C	-0.376122	-0.05342	-1.491217
C	0.0	0.0	0.0
Cl	0.020207	1.60668	-2.209692
H	1.102706	0.0	0.0
N	0.436294	-1.07793	-2.051988
H	0.309124	-1.138652	-3.054232
H	1.418625	-0.896593	-1.842345
C	-1.848888	-0.288586	-1.753105
H	-2.038477	-0.313912	-2.829691
H	-2.442839	0.515106	-1.316447
H	-2.142314	-1.235903	-1.302101
N	-0.510616	-1.229775	0.645146
H	-0.071566	-1.990457	0.132585
H	-0.105287	-1.253985	1.576656
C	-0.558125	1.160042	0.687147
N	-0.99311	2.085899	1.263648
Cl	3.350768	0.0	0.0
