17

C	-0.480251	-0.045682	-1.460684
C	0.0	0.0	0.0
Cl	-0.092069	-1.653752	-2.144656
H	1.09496	0.0	0.0
N	-1.936915	0.077243	-1.481939
H	-2.267045	-0.120781	-2.420307
H	-2.170274	1.044339	-1.273559
C	0.271232	0.992219	-2.283849
H	0.024086	1.996538	-1.924941
H	1.348537	0.839793	-2.181186
H	-0.017589	0.914259	-3.335138
N	-0.487552	-1.117358	0.78177
H	0.054956	-1.184618	1.632846
H	-1.467073	-0.996331	1.002886
C	-0.439174	1.303398	0.546915
N	-0.852761	2.304285	1.006078
Cl	3.363757	0.0	0.0
