17

C	-0.298751	0.036918	-1.499354
C	0.0	0.0	0.0
Cl	-2.104584	0.130587	-1.764755
H	1.098091	0.0	0.0
N	0.287777	1.253134	-2.004815
H	1.263529	1.270161	-1.705664
H	0.267633	1.246263	-3.01867
C	0.192866	-1.236771	-2.16459
H	1.266212	-1.317268	-1.96861
H	0.020793	-1.17649	-3.242804
H	-0.310634	-2.112557	-1.759472
N	-0.465529	-1.221674	0.635835
H	-1.41118	-1.100635	0.976399
H	0.139595	-1.422464	1.422059
C	-0.475079	1.218763	0.671324
N	-0.885749	2.121443	1.302059
Cl	3.311155	0.0	0.0
