17

C	-0.249487	-0.002847	-1.519025
C	0.0	0.0	0.0
Cl	-2.049838	0.042633	-1.850574
H	1.099272	0.0	0.0
N	0.336105	1.20097	-2.042965
H	0.382407	1.153719	-3.053765
H	1.286504	1.269932	-1.679225
C	0.283837	-1.284453	-2.142494
H	0.148393	-1.248353	-3.226791
H	-0.227816	-2.170732	-1.764082
H	1.351781	-1.34672	-1.909921
N	-0.469454	-1.151708	0.743575
H	-1.373619	-1.454309	0.402065
H	0.202329	-1.901292	0.653701
C	-0.503678	1.234468	0.609944
N	-0.901539	2.211077	1.125871
Cl	3.313665	0.0	0.0
