17

C	-0.306333	0.002677	-1.50678
C	0.0	0.0	0.0
Cl	-2.113336	0.026271	-1.727794
H	1.097168	0.0	0.0
N	0.230517	1.167146	-2.173119
H	1.243131	1.132254	-2.0533
H	-0.101082	2.009585	-1.713388
C	0.252678	-1.249252	-2.148117
H	-0.190618	-2.135443	-1.697764
H	0.052484	-1.219025	-3.220196
H	1.332628	-1.2674	-1.968545
N	-0.47049	-1.192049	0.682665
H	0.116112	-1.357173	1.491502
H	-1.429033	-1.073594	0.987744
C	-0.458467	1.25425	0.619027
N	-0.838449	2.231048	1.151865
Cl	3.312523	0.0	0.0
