18
Coordinates from ORCA-job run
  C   -0.19412484629038     -0.11325532673450     -0.80243825479268
  C   0.67025143549346     -0.36282449086941      0.43374125979621
  F   0.69224136655928      0.05899831371111     -1.84655464770988
  H   1.18953388675179     -1.31056705212516      0.26908277572950
  N   -0.92938487399855     -1.40288118293664     -1.18274926044770
  O   -0.25583339549269     -2.42658012443194     -1.14374726241033
  O   -2.08957672951365     -1.31008842291305     -1.56023532753727
  C   -1.13347679502954      1.05513604280991     -0.75269838221870
  H   -1.61835614747330      1.16335878629580     -1.72141959080294
  H   -1.90050245903916      0.91183793736736      0.00537470462724
  H   -0.56269819808743      1.96010581211484     -0.54136427493563
  N   -0.20236009562886     -0.60915469352771      1.63603346206356
  O   -1.31798146091783     -1.08409554370383      1.42918798952169
  O   0.27554659144490     -0.36790876190813      2.73870630705326
  C   1.65638918636467      0.75534997456345      0.70803271034100
  H   2.33432299891135      0.46135342357356      1.50680890847629
  H   1.14785099434977      1.66956109806444      1.01667745390744
  H   2.23715854159617      0.95265421064992     -0.19243857066107
