18
Coordinates from ORCA-job run
  C   -0.28747285703817      0.39396767811950     -0.71078554241431
  C   0.78855316285828      0.19300691721073      0.36145781499810
  F   -0.27640417558007      1.73058942935879     -1.00699232411741
  H   1.72225526111520      0.56775897445911     -0.06222403590508
  N   0.21906122994243     -0.31813189394840     -1.96473448979869
  O   -0.23799931742492     -1.43633765535983     -2.18149672398827
  O   1.07210733338681      0.26894535126087     -2.61660498170984
  C   -1.68783614114705     -0.04013284983097     -0.38527742053360
  H   -2.32107428264175      0.11044367440444     -1.26033277871841
  H   -2.06487105234449      0.57783258190584      0.42998746844158
  H   -1.72251432753160     -1.08656751570672     -0.09434955823158
  N   1.01137464779334     -1.27915945832443      0.55927063318265
  O   0.22770742328727     -1.87761473589575      1.29314316879236
  O   1.96227886173491     -1.77585587647401     -0.04087148519131
  C   0.45268216796677      0.86475204880202      1.67569181467011
  H   1.29686341289741      0.77336544282324      2.36147875749439
  H   -0.41846018157420      0.40658438420012      2.14069182674928
  H   0.26274883429984      1.92455350299544      1.50194785628002
