18
Coordinates from ORCA-job run
  C   -0.11184175434616     -0.09626098202303     -0.85682048651376
  C   0.77838565363670      0.09191614094698      0.36969046885429
  F   0.66839791007162     -0.64156329324141     -1.83480959367487
  H   1.57813617774510      0.76288988993042      0.04846427579819
  N   -1.24116092976802     -1.08718192333497     -0.59564296946848
  O   -1.23419562265466     -2.14123749785474     -1.20973881979846
  O   -2.09012539396905     -0.70099126509219      0.20218039531984
  C   -0.72677597005072      1.18430363161458     -1.36475975226890
  H   -1.25826645374176      0.96892486186670     -2.29365939209039
  H   -1.42661054390831      1.59980378959146     -0.64328729402449
  H   0.06481736288731      1.90521454443825     -1.57611499839686
  N   1.47861879911484     -1.20599289161839      0.65573717545889
  O   0.76161432534251     -2.15557723953884      0.96056136166563
  O   2.70406068075530     -1.20909694502897      0.59262001320868
  C   0.12648565512406      0.58479298639298      1.64722308667049
  H   0.90140770409324      0.72575535701553      2.40374130173594
  H   -0.36585164338790      1.54357953366552      1.48196096990655
  H   -0.60809595694409     -0.12927869772986      2.01165425761774
