18
Coordinates from ORCA-job run
  C   -0.14094991682991     -0.26821996505771     -0.77128321394832
  C   0.47923320593642     -0.41337536574669      0.62234180985769
  F   0.83717376364064     -0.59504968884281     -1.67871416107544
  H   0.57005886443019     -1.48086686844870      0.83103453697746
  N   -1.19451969585933     -1.36838344668875     -0.95102645203153
  O   -0.79092127433879     -2.51202636566641     -0.77987352529779
  O   -2.32586132725914     -1.03422294027858     -1.28233368658739
  C   -0.71238834475332      1.08012008249611     -1.09968713470116
  H   -1.56490916677144      1.31602838914170     -0.46534883728664
  H   0.06091107753358      1.83796204927103     -0.96974470146138
  H   -1.04476940091556      1.08394205420645     -2.13704268476698
  N   -0.53969903810054      0.10120646688827      1.59816876386759
  O   -1.56150930526801     -0.57528106796787      1.70590967088533
  O   -0.31302512757027      1.15853443742035      2.17940916304855
  C   1.80824793259812      0.29313733135344      0.76788020980262
  H   2.17278462815853      0.17913022620019      1.78908192954518
  H   1.73198697265268      1.35829514858843      0.55572556418303
  H   2.52815615271614     -0.16093047686846      0.08750274898918
