18
Coordinates from ORCA-job run
  C   -0.13582549928184     -0.09163883774852     -0.81596559923151
  C   0.67178934649631     -0.35505929848258      0.45926413906906
  F   0.77025820083938      0.19368870157802     -1.80689403340987
  H   1.16109076887768     -1.32356196167862      0.34202728471517
  N   -0.77340264103103     -1.41469656730911     -1.25804588585869
  O   -1.99241273472786     -1.45505184868527     -1.37811628356727
  O   0.01443689667686     -2.32551205202587     -1.48058036912469
  C   -1.16502848034141      0.99775776440417     -0.73497724839179
  H   -0.68023443897815      1.92607696304053     -0.43172266238785
  H   -1.61528615373549      1.13532054289033     -1.71757345666941
  H   -1.95337302493742      0.75120529366840     -0.02645989220333
  N   -0.32437545819790     -0.54108587371671      1.56768592785708
  O   -0.47093724130448      0.36980643279030      2.37815670163316
  O   -0.95752009790793     -1.59553547062295      1.54559468643887
  C   1.66974589962096      0.73579584217178      0.77756413279666
  H   2.18581360611159      0.49839719743653      1.70850246869171
  H   2.40551666434986      0.79018833512165     -0.02443225608660
  H   1.19074438747086      1.70590483716793      0.89697234572931
