18
Coordinates from ORCA-job run
  C   -0.41318136797833     -0.17012111722593     -0.59856505352120
  C   0.39250819287352      0.18254249695544      0.65374353485476
  F   -0.37678739353612     -1.51045892073002     -0.81107316534685
  H   0.23999666074388      1.23998556301366      0.86588587381757
  N   -1.85923932201896      0.18780470197269     -0.25378616728494
  O   -2.68571111777776     -0.71252531143059     -0.24559262659855
  O   -2.05699182454045      1.37533078311576     -0.01486716320865
  C   -0.03409803382722      0.55850441699900     -1.86240782182634
  H   0.95576776199959      0.23218614162585     -2.18238226771108
  H   -0.75255832993056      0.30634918545265     -2.64457721165663
  H   -0.02617259101579      1.63513498170576     -1.70267361638433
  N   1.84299978980925      0.06687845923146      0.28536039158427
  O   2.40377928680985      1.10463353438417     -0.06559020015230
  O   2.35198700136582     -1.04983070293070      0.32537442403238
  C   0.06630772371846     -0.70206776753688      1.83818473301081
  H   0.70611922322418     -0.44276497705148      2.68308564511466
  H   0.21713450696274     -1.75022900330329      1.58972060516510
  H   -0.97186016688209     -0.55035246424755      2.14016008611133
