18
Coordinates from ORCA-job run
  C   -0.11537777264311     -0.10846735290018     -0.85490802683108
  C   0.78107065581671      0.09165112862066      0.36525698160125
  F   0.65624837449356     -0.67484676326304     -1.82759837562100
  H   1.58566912462664      0.75002624268476      0.03033763568213
  N   -1.24999416138959     -1.08795399433871     -0.57196852675532
  O   -1.24702743095083     -2.15582857303693     -1.16187770041418
  O   -2.09707184888112     -0.68020802082804      0.21707665261887
  C   -0.72365197579099      1.16816863988467     -1.38006158026646
  H   -1.41764119079037      1.59941098490384     -0.66226553925294
  H   -1.26043607751761      0.94216961738727     -2.30335808609821
  H   0.07189592625694      1.88038901462991     -1.60557811413881
  N   1.47063231705775     -1.20796435046360      0.66930028496767
  O   2.69443768654784     -1.22883125423213      0.58191994229892
  O   0.74762888484844     -2.14124424654002      1.00859682604804
  C   0.13686237107189      0.61176878006589      1.63573419000613
  H   0.91440848944225      0.75710396406853      2.38871990889244
  H   -0.34525837469523      1.57302322849546      1.45532262712292
  H   -0.60439499750317     -0.08836704513836      2.01335090013962
