18
Coordinates from ORCA-job run
  C   -0.42204721637593     -0.20177576146433     -0.58150106984211
  C   0.40625606774101      0.21776502950653      0.63480500954499
  F   -0.38056642850973     -1.55122013850670     -0.72586163360913
  H   0.25924442167204      1.28567154233941      0.79108075069318
  N   -1.86303138385380      0.16526791688663     -0.22723705133768
  O   -2.06171744497967      1.36156482776156     -0.03762922109513
  O   -2.68563281701998     -0.73642029692799     -0.16545933108503
  C   -0.07374305956560      0.46256995629882     -1.88891069414379
  H   -0.80474777617024      0.16210144655613     -2.64194301943148
  H   -0.07460703398803      1.54617945827872     -1.78634214205812
  H   0.91330167288510      0.13020390830929     -2.21104378767071
  N   1.84976466457214      0.07896851040791      0.24629339139004
  O   2.39833266835526      1.09019136951447     -0.19093820850077
  O   2.36484684050403     -1.02999492213808      0.35774922042832
  C   0.10106039908765     -0.59904327756535      1.87231625958497
  H   0.23761647032954     -1.66048839847754      1.67790934202956
  H   -0.92820692371066     -0.42097160726066      2.18996935786217
  H   0.76287687902688     -0.30056956351884      2.68674282724071
