18
Coordinates from ORCA-job run
  C   -0.10429154996850     -0.09004125998941     -0.85820301394071
  C   0.77520677384419      0.08964929223789      0.37729672194862
  F   0.68470703513445     -0.62687946644552     -1.83378971617217
  H   1.57692792890435      0.76380472859456      0.06782927086091
  N   -1.23508446989578     -1.08391635109631     -0.61473039279509
  O   -2.09149417383915     -0.70488827001505      0.17861838455477
  O   -1.22256255738303     -2.13237825269755     -1.23833160229172
  C   -0.71643511692360      1.19369045714801     -1.36144497148636
  H   -1.24236980558245      0.98458542112955     -2.29492511771254
  H   -1.42060065246181      1.60459848965816     -0.64155678565178
  H   0.07659578171756      1.91575708379635     -1.56333336651658
  N   1.47431702733305     -1.20937272313388      0.65987624638282
  O   2.70045972300146     -1.20979424195748      0.60992984591653
  O   0.75615106207001     -2.16293239380489      0.94928217395057
  C   0.11188946525919      0.57264645484263      1.65272799251163
  H   -0.37684971844298      1.53384669955902      1.49082745789921
  H   -0.62734312817309     -0.14314773119293      2.00412461703199
  H   0.87977637540613      0.70577206336686      2.41780225550989
