14

C	-0.199976	-0.072049	-1.520392
C	0.0	0.0	0.0
Cl	-0.11582	1.684055	-2.17612
H	1.091977	0.0	0.0
H	-1.196939	-0.386855	-1.823241
N	0.823342	-0.912285	-1.973071
H	1.714433	-0.666685	-1.504657
H	0.896619	-0.963709	-2.978269
N	-0.492582	-1.301454	0.57641
O	-1.605172	-1.694656	0.224162
O	0.233645	-1.879448	1.374403
C	-0.667494	1.07273	0.697099
N	-1.207912	1.916013	1.312852
F	2.568638	0.0	0.0
