14

C	-0.229091	-0.0774	-1.518975
C	0.0	0.0	0.0
Cl	-0.461027	1.694109	-2.165616
H	1.090945	0.0	0.0
H	-1.178353	-0.529112	-1.800632
N	0.880282	-0.729797	-2.046143
H	0.927696	-0.744246	-3.052487
H	1.752105	-0.459579	-1.56172
N	-0.428374	-1.270487	0.666584
O	-0.878498	-2.183874	-0.023458
O	-0.271768	-1.321177	1.884106
C	-0.59272	1.106974	0.714178
N	-1.067459	1.987242	1.331431
F	2.553214	0.0	0.0
