14

C	-0.199955	-0.077794	-1.519409
C	0.0	0.0	0.0
Cl	-0.128307	1.679103	-2.180881
H	1.091925	0.0	0.0
H	-1.196287	-0.395624	-1.823081
N	0.829047	-0.912134	-1.973566
H	1.723628	-0.662585	-1.509217
H	0.888304	-0.966717	-2.979615
N	-0.495867	-1.287379	0.599582
O	-1.551865	-1.750006	0.161627
O	0.167866	-1.776872	1.508855
C	-0.665509	1.085087	0.679568
N	-1.2154	1.93728	1.273839
F	2.561517	0.0	0.0
