14

C	-0.507765	0.018752	-1.43549
C	0.0	0.0	0.0
Cl	0.120532	-1.518099	-2.245612
H	1.09055	0.0	0.0
H	0.040196	0.809254	-1.947424
N	-1.904601	0.201847	-1.586973
H	-2.409121	-0.520415	-1.089728
H	-2.168804	0.207849	-2.564268
N	-0.462921	-1.25683	0.697469
O	0.373438	-1.912616	1.304619
O	-1.660896	-1.560324	0.616595
C	-0.527611	1.129672	0.739125
N	-0.929948	2.070609	1.318029
F	2.492903	0.0	0.0
