14

C	-0.201283	-0.101423	-1.519267
C	0.0	0.0	0.0
Cl	-0.1108	1.637027	-2.211865
H	1.091951	0.0	0.0
H	-1.20008	-0.418487	-1.814923
N	0.818084	-0.95826	-1.954351
H	0.893234	-1.024236	-2.958364
H	1.708353	-0.70625	-1.487119
N	-0.498979	-1.292865	0.588384
O	0.272482	-1.93986	1.287819
O	-1.663394	-1.612407	0.333327
C	-0.67224	1.085017	0.673687
N	-1.209352	1.943885	1.270162
F	2.569325	0.0	0.0
