14

C	0.0	0.0	0.0
C	-0.438864	-0.050202	-1.457836
F	1.391143	0.0	0.0
H	0.335704	-0.67097	-1.930887
H	-0.342693	-0.892964	0.525575
H	-0.350771	0.894063	0.52231
C	-0.327654	1.345447	-2.077607
H	0.664895	1.773184	-1.883509
H	-0.461172	1.294893	-3.161645
H	-1.098122	2.007611	-1.669163
N	-1.71646	-0.722029	-1.605521
H	-2.091677	-0.522169	-2.529428
H	-2.447806	-0.392149	-0.933712
H	-3.809427	0.0	0.0
