13
Coordinates from ORCA-job run
  C   -0.66523811950354     -0.07276166622277      0.55685850862347
  C   0.75362929708878      0.46717183884294      0.64771105908643
  Cl  -1.68030218670004      0.96874336742416      1.60099810153517
  H   1.13197097282530      0.40671743154629      1.66819229293665
  H   -0.69492033775509     -1.06968111325083      0.99697997072993
  H   0.82367526992744      1.48412042011291      0.26577748116082
  C   -1.20341225216370     -0.08659162610403     -0.85908109187483
  H   -0.61829529445798     -0.77085709006393     -1.47850113485300
  H   -2.23999036572181     -0.42491437980221     -0.86682313455096
  H   -1.16040037258531      0.91142245078992     -1.29983845160136
  N   1.64020689725563     -0.38432849660013     -0.19662361220075
  O   2.17234224536830      0.13376263596082     -1.17530545380564
  O   1.74173424642203     -1.56280377263314      0.13965546481406
