13
Coordinates from ORCA-job run
  C   -0.54407120071153      0.29126066598404      0.19070775197774
  C   0.81870119206536     -0.27734002693453     -0.13685016767315
  Cl  -0.58021284894071      2.01386075153285     -0.29630889871542
  H   0.85880702163971     -1.33577734508422      0.13334050368182
  H   -0.68140278131467      0.28069614949743      1.27193009106110
  H   1.08155054137711     -0.13723735617485     -1.18385698358420
  C   -1.64702355143284     -0.47360655148322     -0.51522208599077
  H   -1.50734736498183     -0.44632678557363     -1.59767015205483
  H   -2.61902135685648     -0.03633571804617     -0.28577439669791
  H   -1.65108975773771     -1.51591726283988     -0.18453964453532
  N   1.88964559399822      0.38819701291723      0.66543702016045
  O   2.88130148478210      0.78760362004135      0.06315854097702
  O   1.70116302811325      0.46192284616361      1.87664842139347
