13
Coordinates from ORCA-job run
  C   -0.66579101830455     -0.09112228362266      0.55268880896355
  C   0.78139856948928      0.35765175930469      0.68371291676484
  Cl  -1.61721927147849      0.89452247919945      1.70572979792604
  H   1.15908590137988      0.17606815984612      1.68994041962442
  H   -0.74959606975463     -1.12404056266704      0.89106317417145
  H   0.90721975574561      1.40184962644506      0.40293629890673
  C   -1.21002520346035      0.06750845564617     -0.85205514360778
  H   -2.26323447513068     -0.21323056897060     -0.88350242507199
  H   -1.11591882248326      1.10159608885980     -1.18958168191878
  H   -0.66524984626653     -0.57991081631308     -1.54366385085400
  N   1.61537997737507     -0.45436310709938     -0.24874197398213
  O   1.65340998693230     -1.66363857775792     -0.02923128652002
  O   2.16954051595634      0.12710934712939     -1.17829505440234
