13
Coordinates from ORCA-job run
  C   0.75338406887920     -0.19166034563339     -0.29572898071823
  C   -0.54737815418833      0.09561567025787      0.03330770579139
  C   0.96070654172620     -0.81826493433280     -1.57580917744713
  N   1.23181589669161     -1.34344538483766     -2.59263789594649
  N   1.89465221503705      0.10786683493345      0.38049848527696
  H   2.73040058206780     -0.38802809716935      0.11984011253004
  H   1.78764741362304      0.40256872908677      1.33868802772128
  N   -1.59245188785827     -0.20818139437342     -0.84585427983143
  H   -2.05818230858225      0.63087401346861     -1.17130287069112
  H   -2.28753336510453     -0.79144259049814     -0.39609484281397
  N   -0.86845725514753      0.68210438481107      1.32632449144896
  O   0.05533572396040      0.97153202278513      2.10002312313102
  O   -2.06193947110441      0.85146109150187      1.57874610154872
