13
Coordinates from ORCA-job run
  C   0.73286886814936     -0.25999868329134     -0.25583371282400
  C   -0.54832321227702      0.10763751066337      0.08861479501649
  C   0.83570845646537     -1.01076159098071     -1.46815200112573
  N   0.88312095291594     -1.63411161772825     -2.46711956157196
  N   1.93111645216194      0.10765230728996      0.32946915576979
  H   2.69316549256626     -0.52661355337686      0.14807097501095
  H   1.85247047490390      0.42008552870426      1.28454808194278
  N   -1.70305947280222     -0.30082044752316     -0.56056867029475
  H   -1.58369473191560     -0.48478801497476     -1.54594592871976
  H   -2.47946653947679      0.31290621907679     -0.35655248113519
  N   -0.79938000844801      0.88078922092959      1.28449150761638
  O   0.15390047675923      1.16727699592562      2.02028511621284
  O   -1.96742720900236      1.21974612528550      1.49669272410217
