13
Coordinates from ORCA-job run
  C   0.75256435647017     -0.23586854174333     -0.26408230251294
  C   -0.54691687398760      0.09373749282219      0.02936338743148
  C   0.97563168060952     -0.83330812081641     -1.55561593184853
  N   1.24924685653394     -1.33384514143387     -2.58430289266805
  N   1.85646318067762     -0.16293339973946      0.52558444569131
  H   1.78037776712206      0.37389573464656      1.37501614363060
  H   2.75452383243050     -0.23801107115180      0.07844274909596
  N   -1.57165662563748     -0.14580876379288     -0.89327529612058
  H   -2.25270304031156     -0.80020072960524     -0.52500559459888
  H   -2.06279289341177      0.71003089728545     -1.12188101325959
  N   -0.88386578857098      0.69432694872990      1.30924042889480
  O   -2.07050237735695      0.96407084189703      1.50114378737081
  O   0.02162992543254      0.91391385290186      2.12637208889361
