13
Coordinates from ORCA-job run
  C   0.74292362969949     -0.20805027319540     -0.27379361419022
  C   -0.54954552007533      0.07027776205470      0.10934227900482
  C   0.85331664023783     -0.99480787683352     -1.46266181266868
  N   0.89240186099600     -1.64645901487688     -2.44362814725039
  N   1.92897991572142      0.26959124722907      0.25423905218979
  H   1.85768298318005      0.60992705532154      1.20049031019171
  H   2.72986456486094     -0.31397473008920      0.06949337864191
  N   -1.69238565342555     -0.46088206386812     -0.46905443269980
  H   -2.49933579248807      0.12644516153998     -0.31303711383049
  H   -1.57843063408096     -0.72820102634173     -1.43624363230415
  N   -0.81878748792277      0.87514177262592      1.27942394777431
  O   -1.99833299535581      1.16394885682451      1.50081714213537
  O   0.13164848865275      1.23604312960913      1.98561264300580
