13
Coordinates from ORCA-job run
  C   0.74659942984313     -0.11476797156240     -0.33349379580126
  C   -0.54272084446966      0.13556078024537      0.08102083322424
  C   0.84384609222854     -0.77457777185919     -1.59952884136083
  N   0.84845729004173     -1.33507395229653     -2.63614772249338
  N   1.94029736081549      0.30436354266703      0.23511195894771
  H   2.70338578344150     -0.33953217547906      0.08432649551063
  H   1.84803231354671      0.61855433244097      1.18980471283511
  N   -1.68883746119566     -0.05311810653710     -0.67169074197682
  H   -1.56298413549002     -0.66967949406599     -1.46200286845134
  H   -2.49589651071741     -0.28212532306513     -0.10848220613546
  N   -0.80550550789480      0.69921904044523      1.38871024792552
  O   -1.97867263319955      0.69086042720197      1.77079030502768
  O   0.14499882305000      1.11931667186482      2.06158162274822
