13
Coordinates from ORCA-job run
  C   0.75064512296774     -0.08936795996501     -0.28648952516125
  C   -0.51358488491364      0.14621338218781      0.17086731024368
  C   1.63029041694452      0.89282348279916     -0.82158810563455
  N   2.40760965398348      1.61416412147783     -1.33633092135326
  N   1.15109815062856     -1.42986313725572     -0.37705396211571
  H   2.13763693777375     -1.53658427445525     -0.56547270206474
  H   0.86749953491122     -1.96403566880307      0.43825485071546
  N   -1.32935941068001     -0.89974136936126      0.56123789334689
  H   -1.36606918357829     -1.63402730824564     -0.13676459318730
  H   -2.24227594398210     -0.57891280926052      0.85327470630622
  N   -1.03549030194206      1.48696335541476      0.39585021125508
  O   -2.18495515754886      1.55087249537567      0.84291741591987
  O   -0.27404493456432      2.44049569009124      0.26029742172960
