13
Coordinates from ORCA-job run
  C   0.75876451824173     -0.12312219411807     -0.31798772249891
  C   -0.55283488902381      0.01326415630140      0.06178769925840
  C   0.98723143686133     -0.45805975278506     -1.70008031703735
  N   1.27676731676872     -0.72013044640367     -2.80942592631029
  N   1.88259892265420     -0.07010952530068      0.44563522804572
  H   1.77976096190847      0.30678434512640      1.37489263977800
  H   2.76049051139923      0.05243873764697     -0.03003945412916
  N   -1.58838699980821     -0.17306455949195     -0.86039214757657
  H   -2.18490388646227      0.64414767119808     -0.90825154207010
  H   -2.16943798029951     -0.96448087510007     -0.60958088996522
  N   -0.88973940129748      0.39439451548246      1.42544392997851
  O   0.02370931365148      0.55073671298981      2.24832661573775
  O   -2.08501982459389      0.54720121445440      1.68067188678923
