13
Coordinates from ORCA-job run
  C   0.73251692073984     -0.09019000126932     -0.33743067983372
  C   -0.55109667442237      0.13584923120398      0.10347790686267
  C   0.83394836219358     -0.62646511203876     -1.66026300051131
  N   0.88500354733127     -1.09501127835064     -2.74028332112049
  N   1.93141170627893      0.24608340850014      0.26686232533291
  H   1.85223280003386      0.47296910945771      1.24663776006765
  H   2.69840460086018     -0.36542088795689      0.03182949035704
  N   -1.69967886332216      0.06670333222886     -0.66610524111281
  H   -2.48664131413476     -0.32039334793442     -0.16515155718250
  H   -1.56266018184916     -0.34774429954727     -1.57659187008877
  N   -0.80584442718765      0.54532594085238      1.46746526065940
  O   0.14812361136425      0.89379422405520      2.17502082271927
  O   -1.97572008788581      0.48549968079905      1.85353210385065
