13
Coordinates from ORCA-job run
  C   0.77784498188718     -0.11820929490220     -0.21807963235944
  C   -0.51038562882253      0.15041283882134      0.14201173114523
  C   1.79239550150137      0.85937091547583     -0.44665753943293
  N   2.72671188670332      1.54045485083363     -0.67030838328987
  N   1.19425607411500     -1.44504783779086     -0.24447853773224
  H   0.43659767145396     -2.07699121816377     -0.47991373672201
  H   2.03112383480776     -1.60269104732791     -0.78644699250787
  N   -1.38253618575449     -0.89438244822463      0.42682898209616
  H   -1.12197192348481     -1.39450613297873      1.26978278365264
  H   -2.33683050018255     -0.56445089030675      0.48859362600335
  N   -1.05078742785954      1.50339014737182      0.16996244108153
  O   -0.31294676406247      2.43985415430158     -0.12356201413244
  O   -2.24347152030218      1.60279596289065      0.47426727219790
