13
Coordinates from ORCA-job run
  C   0.74263903935222     -0.27122695278624     -0.25817843664828
  C   -0.53563831886144      0.15164518040691      0.00624812614327
  C   0.94350354778368     -0.93479300932373     -1.52076255965193
  N   1.20819812394683     -1.49966313644350     -2.51778902373104
  N   1.87568084850812     -0.08207656758396      0.46917994288389
  H   1.75622203100470      0.23959882883546      1.41716355681149
  H   2.66697093131604     -0.66468088657564      0.25351386652385
  N   -1.56390841586192     -0.05445619670196     -0.92003179852043
  H   -1.92670737658926      0.82421377895407     -1.27101132932165
  H   -2.33487026567357     -0.55970939452477     -0.50011596171658
  N   -0.85465572479762      0.78432668981840      1.27745937221230
  O   -2.03531673664382      1.07631661024255      1.47219335721366
  O   0.05688231651604      0.98850505568240      2.09213088780146
