13
Coordinates from ORCA-job run
  C   0.68584853439920     -0.07744903294704     -0.30807700878935
  C   -0.53177812247473      0.02332434796182      0.29789224524368
  C   1.57483036542401     -1.18201308962422     -0.19570481194692
  N   2.39782439315200     -2.02634343668954     -0.22721151312459
  N   1.04496314024989      1.03328112693853     -1.13610677291377
  H   1.56829544963074      0.71820832254912     -1.94354709946034
  H   1.62135170599289      1.69464522548710     -0.62550115005161
  N   -1.34494250672861      1.10818424016511      0.19516140169447
  H   -1.11481485845258      1.68599683977714     -0.60280477427030
  H   -2.32282051806551      0.91720209739518      0.35423684919532
  N   -1.05190200318317     -1.03177137178275      1.17718232397580
  O   -2.26826032312808     -1.01712600393080      1.37551810725686
  O   -0.25859525681605     -1.84613926529964      1.63896220319073
