13
Coordinates from ORCA-job run
  C   0.71739145628765     -0.17831563381997     -0.28600390235663
  C   -0.56814288677327      0.08802157255566      0.11620874248926
  C   0.84027920958227     -0.87744619452484     -1.52900364622887
  N   0.94078750087853     -1.43147465800861     -2.55734668964935
  N   1.91797721997447      0.01224306589224      0.38935692398333
  H   2.72540697482496     -0.10171800143544     -0.20483687099444
  H   1.94664292185663      0.80981699558162      1.00486484065567
  N   -1.72228023043927     -0.10317203576528     -0.63031934531259
  H   -2.51798691598490     -0.29902278595207     -0.03130099551487
  H   -1.61931456196308     -0.79101145428733     -1.36357158547811
  N   -0.81606465722375      0.77951466379269      1.36535073361359
  O   0.13881746468236      1.28227230899082      1.96080352003420
  O   -1.98251349570261      0.81029215698052      1.76579827475881
