13
Coordinates from ORCA-job run
  C   0.68818575905534     -0.09089634324598     -0.30651699683615
  C   -0.53257031686920      0.13552494120715      0.26523651369711
  C   1.71323679347500      0.87317237017411     -0.49773296663141
  N   2.65728807303120      1.54136681885798     -0.73230458764676
  N   0.89510326503287     -1.43917979257389     -0.75668708376345
  H   1.25609942491972     -1.43854954703783     -1.70386129871162
  H   1.58023656499607     -1.90616338345569     -0.17149181210697
  N   -1.47445731346304     -0.81157817677109      0.43200444647817
  H   -1.29879995138515     -1.69346962030953     -0.02115600218622
  H   -2.38584850959021     -0.54749891471190      0.76008867229351
  N   -0.92545953026076      1.45917628762073      0.78044393741852
  O   -0.09596055952880      2.36245092094559      0.74687864574413
  O   -2.07705369941304      1.55664443930035      1.20709853225115
