13
Coordinates from ORCA-job run
  C   0.74068358575128     -0.11395223979795     -0.32225162621472
  C   -0.55176333613284      0.05737965900827      0.11838907731932
  C   0.85941567305765     -0.52483292565642     -1.68669047754503
  N   0.91779424066131     -0.85484993874506     -2.81634518610371
  N   1.92117699204187     -0.06249084775325      0.39797947657796
  H   1.86033505603577      0.45453520844817      1.26127700716336
  H   2.73526554970994      0.13583945177413     -0.16275324355101
  N   -1.68659049279288      0.00352188692688     -0.67723442996570
  H   -1.58447625446218     -0.57227261569119     -1.49995061375085
  H   -2.51351565990385     -0.21668246968144     -0.14080419653152
  N   -0.82285334424681      0.46347982378294      1.47960098359182
  O   0.13216685567171      0.70240147793767      2.22972770252958
  O   -2.00763886539098      0.52692352944724      1.81905552648049
