13
Coordinates from ORCA-job run
  C   0.72465247559394     -0.22067908725662     -0.29889952342409
  C   -0.54316451445349      0.13450592898332      0.10086617743000
  C   0.79454840859217     -0.88950126135270     -1.55864993925276
  N   0.81894365994663     -1.43196481158394     -2.60456406787135
  N   1.91251587160814     -0.13533048469700      0.40913188271812
  H   2.73657955506101     -0.09598281762466     -0.17060181053775
  H   1.89486338655242      0.52079844229934      1.17488760827524
  N   -1.68968014929234      0.04284035815285     -0.67021200970241
  H   -2.52142757678937     -0.08836788915722     -0.11381249936548
  H   -1.62000905956001     -0.59778915125989     -1.44730918768382
  N   -0.77098131076832      0.75936749643258      1.38394107316746
  O   -1.94453227599594      0.89323568873776      1.73929278746955
  O   0.20869152950514      1.10986758832618      2.05492950877730
