13
Coordinates from ORCA-job run
  C   0.65854677486116     -0.07393733075109     -0.37009287892238
  C   -0.51575137437475      0.12180283287095      0.30261378614255
  C   1.59157619542643      0.93355872913703     -0.73438758424612
  N   2.45973893453898      1.63954590532701     -1.10853018499531
  N   0.92555856678765     -1.44370295252426     -0.71789139768750
  H   1.80437799625420     -1.73966671403580     -0.30638481998890
  H   1.02088276333062     -1.53304783526160     -1.72392136815892
  N   -1.37196166286041     -0.85952408412340      0.63136563181602
  H   -2.22255698959143     -0.63771697866630      1.11627846371413
  H   -1.12767307077277     -1.79550000249012      0.35611910211175
  N   -0.95620270381086      1.45989232939348      0.73759772635910
  O   -2.03631216135949      1.51037759711982      1.32858775179300
  O   -0.23022326842934      2.41691850400430      0.49064577206258
