13
Coordinates from ORCA-job run
  C   0.72975792069107     -0.27892910411966     -0.26287528614317
  C   -0.54074052256932      0.14763887257301      0.03455444581107
  C   0.90509119844896     -0.86976376721077     -1.56153145486055
  N   1.12357346329646     -1.37121367300010     -2.60344574596683
  N   1.88607982593921     -0.09216854255650      0.44744405853411
  H   1.76434417832479      0.15098040083127      1.41873609081027
  H   2.64069740552314     -0.72258166641263      0.22798669589827
  N   -1.58373396801206      0.05023502308726     -0.88440646863771
  H   -1.56805879759220      0.77716898034509     -1.58833756893618
  H   -2.47727828318116      0.03686547948003     -0.41182511808113
  N   -0.86770985607973      0.61220201886626      1.37150655159443
  O   -2.06148545218206      0.78986142920471      1.62479985818426
  O   0.04846288739289      0.76870454891203      2.18939394179314
