13
Coordinates from ORCA-job run
  C   0.68250085068249     -0.15214664372658     -0.33469446260489
  C   -0.58838679501272      0.06399666747906      0.08373945016073
  C   0.87894892226850     -0.90654277073598     -1.53398642820004
  N   1.03709338285106     -1.54292727951251     -2.51294654100453
  N   1.75156574980723      0.34735228732117      0.45650001438555
  H   2.44557557318360     -0.36774052531058      0.63650977721064
  H   2.19681140141458      1.15267192089806      0.04010257620406
  N   -1.77698826277527     -0.21140425298297     -0.53090675696074
  H   -1.70246543679335     -0.77210157100546     -1.37089100946346
  H   -2.50685303355739     -0.52837874011632      0.09136216723210
  N   -0.75456504838358      0.79805437279492      1.34189405195038
  O   -1.19532075138939      0.13136931911256      2.27684076705928
  O   -0.46991655229575      1.98679721578462      1.35647639403091
