13
Coordinates from ORCA-job run
  C   0.78425208853863     -0.08719796323246     -0.20918151423845
  C   -0.51686539319530      0.13076063001974      0.13859645791898
  C   1.80305179983227      0.91096934256317     -0.26576475269613
  N   2.74224661170572      1.61535851728995     -0.35936740883767
  N   1.20794602976219     -1.39937822823111     -0.39401880684201
  H   2.06159156389470     -1.48513925025376     -0.92576139891363
  H   0.46207485214950     -1.99580936283446     -0.73553513247148
  N   -1.39206318884344     -0.94174943376859      0.25978922998360
  H   -2.34854612395335     -0.62285567672270      0.34168566485065
  H   -1.15073787746025     -1.55409100121748      1.03109006450850
  N   -1.06375314707224      1.46800780047343      0.32829393159956
  O   -2.26551100814791      1.52566729093487      0.60607218527532
  O   -0.32168620721054      2.43545733497940      0.18310147986276
