13
Coordinates from ORCA-job run
  C   0.71884245247740     -0.08518613014978     -0.37788515507429
  C   -0.47614036215226      0.12869917697047      0.24467013711917
  C   1.54128242060055      0.92784220324578     -0.95636761692792
  N   2.32095269537926      1.64268588921844     -1.47414612602434
  N   1.12720050165130     -1.39728856157704     -0.59179073078080
  H   2.11473912461584     -1.49688042937594     -0.77548797957525
  H   0.78547101998838     -2.02399196839694      0.12879085235070
  N   -1.22997560883647     -0.95262119407935      0.68773076512310
  H   -1.98263187046596     -0.64713079840295      1.29072273567908
  H   -1.59023412250126     -1.50998959262027     -0.07920691137573
  N   -0.97540592207631      1.46408167688711      0.54550597374524
  O   -2.04931363737757      1.51540033329368      1.15316805773300
  O   -0.30578669130288      2.43537939498680      0.20529599800804
