13
Coordinates from ORCA-job run
  C   0.71953121505832     -0.06523831191172     -0.27782188567579
  C   -0.53285114833242      0.12453346060810      0.22966994898372
  C   1.79626368091799      0.85822930713110     -0.19157359829866
  N   2.78539847130661      1.50017046320756     -0.17265635150536
  N   0.95169789206305     -1.33012345174080     -0.87725858465123
  H   0.44535428416484     -1.43086951947552     -1.75081658592191
  H   1.93556103437369     -1.50142773483178     -1.02981560323194
  N   -1.51762257497863     -0.82167095007059      0.13446847203115
  H   -1.13926831165754     -1.76152594944817      0.11737801838101
  H   -2.27538600538495     -0.67616746809343      0.78644870468316
  N   -0.94420437474215      1.38307312901043      0.84657164687777
  O   -2.00563489196084      1.35580343226861      1.47498346510759
  O   -0.21883927082798      2.36421359334621      0.71042235322048
