13
Coordinates from ORCA-job run
  C   0.78082906963151     -0.08956224090438     -0.21946824800584
  C   -0.50640630089611      0.12305703017351      0.17986365055766
  C   1.89920611855139      0.72405880069931      0.13260005727457
  N   2.91146001894407      1.29073535877061      0.33584634151919
  N   1.07151685420284     -1.25733678943484     -0.91652655534421
  H   0.28660202131566     -1.57342635297174     -1.47556061236812
  H   1.94257832493656     -1.22851208994389     -1.42543303006069
  N   -1.49522844792646     -0.79691359646690     -0.15017828455430
  H   -2.41606021667617     -0.42802668388596      0.04801716186872
  H   -1.35966459456386     -1.68926424575668      0.31233538674893
  N   -0.91988150190205      1.32966650268373      0.88338341543579
  O   -0.07451377496914      2.18298302425957      1.13844330103391
  O   -2.12143757064823      1.41154128277765      1.15667741589440
