13
Coordinates from ORCA-job run
  C   0.77893763430722     -0.09999741733832     -0.22144374590210
  C   -0.51398618045086      0.13913793947263      0.14263227300207
  C   1.70540038499072      0.88689686711482     -0.67385013427147
  N   2.57548839846963      1.57866552501847     -1.06316897871351
  N   1.21177835261878     -1.42009156709643     -0.29213911531438
  H   2.21551428931493     -1.52577640383859     -0.27615591355248
  H   0.73359038242884     -2.01362685966834      0.37713562825621
  N   -1.34874130776893     -0.92261697222816      0.47249954455606
  H   -2.20765409199136     -0.59260455760453      0.89289568870505
  H   -1.54534865362214     -1.51882308410846     -0.32408252635904
  N   -1.05441315697945      1.48533075173206      0.27664554399441
  O   -2.22987959985229      1.56160036454676      0.64783157594875
  O   -0.32168645146511      2.44190541399809      0.04020015965044
