13
Coordinates from ORCA-job run
  C   0.73715353004202     -0.21490288152769     -0.26439835461496
  C   -0.53004202809587      0.22294813856201      0.04525149442000
  C   0.87026250523040     -0.82905456662208     -1.54990596719709
  N   0.94503335060978     -1.35900041378922     -2.59976877613340
  N   1.91645678892612     -0.02965030915785      0.43684678897217
  H   1.78540593334026      0.25262875153706      1.39654941628455
  H   2.59713842463388     -0.76127869974787      0.29890540072564
  N   -1.60374675951775      0.28601048009054     -0.82532402364771
  H   -2.48264244310107      0.05416244747306     -0.38548295566924
  H   -1.45636557686979     -0.19090103423624     -1.70276915287122
  N   -0.83804513672268      0.73244786946018      1.36381913643104
  O   0.09160812379773      0.95995168028310      2.14898558856173
  O   -2.03221671227303      0.87663853767499      1.63629140473849
