13
Coordinates from ORCA-job run
  C   0.73440798039568     -0.16529981113852     -0.30247936389110
  C   -0.55960173697351     -0.02614844374518      0.15438944813666
  C   0.84906912804298     -0.56866969957716     -1.66713208541147
  N   0.87458124327697     -0.83814257588302     -2.81291928518053
  N   1.90404590766644     -0.08386088539626      0.42447975495851
  H   1.86475100906893      0.52426505858393      1.22480936219758
  H   2.75734845867515     -0.07330613709075     -0.10512167433861
  N   -1.70914433592377     -0.39848814464590     -0.52446086066642
  H   -2.47339602615534      0.23551580498956     -0.34103883474893
  H   -1.55979294683054     -0.57509442085597     -1.50787305326225
  N   -0.81940202039990      0.49684364814640      1.47779195855555
  O   -2.00406925921715      0.62560963600998      1.80277693383225
  O   0.14120259837407      0.84777597060289      2.17877769981877
