13
Coordinates from ORCA-job run
  C   0.71034425828937     -0.07229261775641     -0.39627780949004
  C   -0.45335679727450      0.11219208012787      0.29150503744992
  C   1.77416885801612      0.87477494754036     -0.48732997189871
  N   2.72665571954017      1.54645064087838     -0.65634793268983
  N   0.83822822241977     -1.20994276651761     -1.18587087371717
  H   0.31494675846651     -1.99395985331654     -0.81133854819174
  H   1.79126953801230     -1.44072938800332     -1.42508681106874
  N   -1.45645568260669     -0.84884403949604      0.22664556055075
  H   -1.86831309164928     -0.91161236353402     -0.69819369033140
  H   -2.16954344145193     -0.67623501766302      0.92323815092224
  N   -0.67200966038023      1.25282782045175      1.17103585166877
  O   0.21779538857876      2.09153387952138      1.28254496693665
  O   -1.75373006996036      1.27683667776720      1.76647606985929
