13
Coordinates from ORCA-job run
  C   0.71672398102313     -0.13741458443739     -0.37651863329444
  C   -0.46802054432029      0.15410246727879      0.23331575684844
  C   1.55351397116228      0.80851580065390     -1.04536958993657
  N   2.34190217523667      1.46272436088555     -1.62565852353638
  N   1.10364051128005     -1.46440360812470     -0.49040427515666
  H   2.09466393982476     -1.59816035109293     -0.62876914340687
  H   0.71009250905460     -2.03761231394905      0.24824443228409
  N   -1.23673613531764     -0.87726560711030      0.77190790315202
  H   -1.70515759489628     -1.42000556048305      0.05399188895593
  H   -1.91976333068886     -0.51147097671876      1.42278745174072
  N   -0.93701155783236      1.52312510238440      0.41771546900093
  O   -0.26730702566420      2.44507787702563     -0.03925821637185
  O   -1.98554089886187      1.65178739368792      1.05701547972062
