13
Coordinates from ORCA-job run
  C   0.69049403380422      0.02770364418192     -0.38264437633525
  C   -0.53762847901285     -0.09428522502722      0.20239478308567
  C   0.89684003640268     -0.77672946575335     -1.54764747972644
  N   1.00427649098420     -1.42871573892168     -2.52481742176246
  N   1.70910366041036      0.87532087298696      0.08932028280978
  H   2.16313973168019      0.55927295748833      0.93442743164226
  H   2.38452939051233      1.08819400221012     -0.62892840483149
  N   -1.54097319422971     -0.97176369012211     -0.12717953307145
  H   -2.46527733109545     -0.57891368502244     -0.02670665947672
  H   -1.39771803647257     -1.48443932464199     -0.98502765358326
  N   -0.87309657973850      0.71982540662741      1.37054455591845
  O   -2.04666516690219      1.09217884439768      1.44340283139537
  O   0.01497544365729      0.97235140159637      2.18186164393554
