13
Coordinates from ORCA-job run
  C   0.78488765408047     -0.07912993703164     -0.21289790312307
  C   -0.51034589261517      0.11873674179573      0.16758666879287
  C   1.83708418600565      0.87721174151865     -0.08766279100572
  N   2.80114512857999      1.55260787506342     -0.05035780880071
  N   1.10255870247032     -1.24825567032101     -0.89502890885456
  H   2.08560645142143     -1.47687090255065     -0.88766483962666
  H   0.50475736577674     -2.02143678233441     -0.62379170544714
  N   -1.46505468603347     -0.85944806098427     -0.08999715927978
  H   -2.32247383241537     -0.66987292525534      0.41240224737651
  H   -1.64868885019213     -0.96507065633923     -1.08188640660953
  N   -0.93669156868254      1.29348153842528      0.91638030648285
  O   -0.10357115382253      2.15190963317857      1.19322086204090
  O   -2.12821350457338      1.32513740483490      1.23969743805404
