13
Coordinates from ORCA-job run
  C   0.73931559184783     -0.07012116167591     -0.37478371540554
  C   -0.54725792831589     -0.01852680444462      0.09966015313765
  C   0.93873442528655     -0.81817344628455     -1.58928363552974
  N   1.20661996641221     -1.41520045675853     -2.56655555260528
  N   1.85114531926497      0.55663127850713      0.09385040089920
  H   2.74343707646112      0.21660437404102     -0.22285141556103
  H   1.78724694211655      0.96264869461125      1.01437893798101
  N   -1.58773184681986     -0.65926060177741     -0.58224752857631
  H   -2.26621020303007      0.00736479863261     -0.93175088259151
  H   -2.07618941384970     -1.30598753618219      0.02530994601788
  N   -0.84633851598981      0.66904468113905      1.34683760921195
  O   0.06842871478638      1.25509950225820      1.94349713176671
  O   -2.01120012817029      0.61887667793394      1.74393855125500
