13
Coordinates from ORCA-job run
  C   0.80357316059366     -0.10873213779814     -0.09497393012295
  C   -0.52551794590563      0.14071254840325      0.08551090568282
  C   1.86306679121917      0.79491793160192      0.21837014335602
  N   2.83813911327430      1.42299226320261      0.42288391983700
  N   1.18904181268422     -1.38441159830760     -0.49256147014328
  H   2.11625810984318     -1.43041927056208     -0.88870322147297
  H   0.48266685225911     -1.83443217038305     -1.06449127861497
  N   -1.45896172748286     -0.85765582828204     -0.17135773920302
  H   -1.39023492813989     -1.62648976535962      0.48648630158130
  H   -2.39821691272558     -0.48208244691047     -0.18395091722368
  N   -1.03200890308490      1.45178861427023      0.46946143143069
  O   -2.25972024879794      1.55269017137424      0.55663004027813
  O   -0.23008517373684      2.36212168875073      0.65869581461491
