13
Coordinates from ORCA-job run
  C   0.65631270685404     -0.31893685264672     -0.22187694596038
  C   -0.51965846162768      0.21040254577128      0.22305709867916
  C   1.26468421494703     -1.50756357679264      0.26781469866562
  N   1.86847803804005     -2.48060779635030      0.55003053016311
  N   1.27928409529851      0.40172046946349     -1.28729754522004
  H   1.87950740828925      1.13779210834002     -0.92801271639311
  H   1.83893686473299     -0.21670332714830     -1.86014957855399
  N   -1.05900193046455      1.36398860714938     -0.26036015756549
  H   -2.05448561261643      1.44402359058278     -0.11247829864711
  H   -0.72425427170533      1.57986618482148     -1.19133308450777
  N   -1.27542026124463     -0.38922562322343      1.32975624832189
  O   -0.70722196608303     -1.20063293469335      2.05371291833005
  O   -2.44816082442022     -0.02512339527366      1.43813683268806
