13
Coordinates from ORCA-job run
  C   0.72084478946619     -0.10162899276297     -0.37040628517620
  C   -0.47969818623104      0.13811669445817      0.23180714894621
  C   1.49838069445946      0.86552745266584     -1.07569543227090
  N   2.24602104662189      1.54219761845563     -1.68408043474372
  N   1.18238907718243     -1.41204409274055     -0.42713824154564
  H   0.86729768273939     -1.96114579027950      0.36530028834326
  H   2.17267645766140     -1.49316799309860     -0.60489315492750
  N   -1.18686446858097     -0.91144131551366      0.80868249804076
  H   -1.53067784558344     -1.56887032192511      0.11710951330143
  H   -1.94693132504049     -0.56578225238704      1.37987052547314
  N   -1.03258075687355      1.47892569660342      0.37182053763295
  O   -2.10507471523495      1.56061513474417      0.97859922548121
  O   -0.40478245058632      2.42769816178017     -0.08997618855501
