13
Coordinates from ORCA-job run
  C   0.66326451760165     -0.35560186749409     -0.08623818143031
  C   -0.56235769431027      0.21446504678018      0.11143953641230
  C   1.52482645456089     -0.83133482300594      0.94003428607302
  N   2.33987911408018     -1.22926945772011      1.69574176761386
  N   1.10509569541744     -0.37190773612932     -1.45470518953248
  H   1.08445824857357     -1.31681764496160     -1.82235370733729
  H   2.06300197358018     -0.04430270810411     -1.51456965713412
  N   -1.37514425818670      0.64684680928958     -0.88070010456234
  H   -2.03697455161341      1.36507850595492     -0.62277790039872
  H   -0.88693372674339      0.75604858431630     -1.75923086328087
  N   -1.15412094382185      0.34428548543229      1.46031919188427
  O   -2.13851938339726      1.08065361891753      1.54360272515934
  O   -0.62747544574103     -0.26014381327564      2.38643809653335
