13
Coordinates from ORCA-job run
  C   0.74194683206946      0.01638767438603     -0.34068707502932
  C   -0.48382668112358      0.05366013010472      0.25721921943746
  C   1.70378457227402      1.07076631883867     -0.31812775768851
  N   2.59080358716746      1.84213132442713     -0.39001066654298
  N   1.05030876683279     -1.07158159109938     -1.14991721712610
  H   2.03800032176180     -1.19353164771994     -1.31836675253186
  H   0.58485795232008     -1.91876461718158     -0.84265781173282
  N   -1.37130094723763     -1.00299413026666      0.08392301493523
  H   -2.14823693416473     -0.93397608145940      0.72815007327946
  H   -1.70437104174653     -1.07179659285311     -0.87159332673061
  N   -0.88832921571076      1.13228087189855      1.14912693310958
  O   -0.10402136055321      2.05452783183852      1.35398263087234
  O   -2.00761585188917      1.02089050908645      1.65895873574814
