13
Coordinates from ORCA-job run
  C   0.77264790024128     -0.14481349602361     -0.25787464322546
  C   -0.50300034290354      0.14164921848871      0.12901990460728
  C   1.72874025894400      0.81543036253382     -0.72044734616045
  N   2.62055345195769      1.48413902428885     -1.09837570370003
  N   1.19170926484651     -1.46065317924601     -0.31233558454815
  H   0.62752395412640     -2.06695760017687      0.27156487541137
  H   2.18806930703314     -1.59391434633057     -0.22589196061141
  N   -1.34719530248627     -0.89661024845234      0.53758023050541
  H   -1.84325654548540     -1.31124514385607     -0.24445011256336
  H   -2.02299322909939     -0.55595505411404      1.21059476969534
  N   -1.00114837305013      1.51318382487308      0.20646676919479
  O   -2.07931225666500      1.65793558874664      0.78952723396388
  O   -0.33333808745929      2.41781104926838     -0.28637843256924
