13
Coordinates from ORCA-job run
  C   0.70054978206077     -0.11112882764158     -0.31973296247991
  C   -0.57015286544915      0.00861467418316      0.18733802647885
  C   0.79508891350565     -0.74739059844407     -1.59660403633701
  N   0.89658282119846     -1.21325488012782     -2.67419791185620
  N   1.88730477223179      0.34489539595656      0.22915022644571
  H   1.93071005278300      0.30753405776259      1.23424471779016
  H   2.70909414062330     -0.01959741974067     -0.23096823172616
  N   -1.71732538393611     -0.55477254129854     -0.33515053863645
  H   -1.58972349256109     -1.11283984084501     -1.16552034384324
  H   -2.52547950985421      0.04332619717138     -0.36311387931823
  N   -0.78659837779949      0.79241809759734      1.37411534841750
  O   0.15826454856696      0.92534587726596      2.16506243133126
  O   -1.88831540136988      1.33684980816070      1.49437715373373
