13
Coordinates from ORCA-job run
  C   0.69816447418088     -0.22481639998663     -0.36216394077714
  C   -0.45244038664606      0.10512438597183      0.29200428417848
  C   1.63539053529896     -1.21347305927233      0.06522872325130
  N   2.49274524070575     -1.99004439930515      0.28526816421755
  N   0.94143903201042      0.34253630211855     -1.60764848963242
  H   0.51585779101514      1.25848568826788     -1.69932346132740
  H   1.91072429339234      0.31882103470261     -1.88873778198131
  N   -1.33180285912156      1.02318359422115     -0.27279170342477
  H   -2.01360871612792      1.33865093866480      0.40558695525122
  H   -1.79451113099565      0.65568580831796     -1.09714868600923
  N   -0.77799180819534     -0.41640212705510      1.61392771108079
  O   0.00855555285983     -1.18884244303887      2.15482114633644
  O   -1.83252201837676     -0.00890932360671      2.11097707883644
