13
Coordinates from ORCA-job run
  C   0.69316412830255     -0.15447017064023     -0.31409629805737
  C   -0.58273448017012      0.02559210560811      0.11537050727404
  C   0.87649076150576     -0.50808686711017     -1.68645159601442
  N   1.01020669455597     -0.80796643087842     -2.81925967932416
  N   1.78212143499159     -0.02217215267348      0.59077216647467
  H   2.28613577993007      0.84330920791064      0.44252339783829
  H   2.42450147935739     -0.79788709706572      0.49751002800020
  N   -1.74790646132107     -0.20578181741434     -0.55237171598453
  H   -2.54143937556846      0.35948285247807     -0.29296482333725
  H   -1.66031316878033     -0.37436123315300     -1.54402622545430
  N   -0.78606937757289      0.43986461106920      1.51027946688224
  O   -1.39281143615473     -0.34557276518706      2.23339180007015
  O   -0.36034597907572      1.54904975705639      1.81932297163243
