13
Coordinates from ORCA-job run
  C   0.70415517682123     -0.10112936620848     -0.36870612793251
  C   -0.53428981048676     -0.08068708463474      0.20481642857050
  C   0.85439622306783     -0.90551638684733     -1.52615321828636
  N   0.84865578104107     -1.55876819612318     -2.50940840058521
  N   1.76086826526947      0.75740983563483     -0.03847279914386
  H   2.64272809890104      0.48583854444254     -0.42869526021657
  H   1.78812049252670      1.07802581493550      0.91267780325696
  N   -1.57677759651722     -0.97025335305920      0.03131377380507
  H   -2.48501777838882     -0.55438609764524     -0.09500962897520
  H   -1.38094078592192     -1.73063573109326     -0.60187544826605
  N   -0.79653653278766      0.92090607255451      1.21928264368138
  O   -1.92993423565908      1.40987771868865      1.20683616841940
  O   0.10457270213412      1.25231822935541      1.99339406567245
