20

C	-0.449253	-0.060919	-1.461151
C	0.0	0.0	0.0
Br	0.222262	1.65743	-2.3962
H	1.094994	0.0	0.0
C	0.237259	-1.174042	-2.231124
H	1.314722	-1.120642	-2.063111
H	0.033211	-1.088053	-3.301544
H	-0.143599	-2.136814	-1.881472
N	-1.863947	-0.141362	-1.591266
H	-2.307395	0.653513	-1.147465
H	-2.129205	-0.146895	-2.569125
C	-0.415293	-1.288186	0.725702
H	-0.103832	-1.213498	1.771391
H	-1.496691	-1.445158	0.686879
H	0.086206	-2.1631	0.309505
C	-0.519288	1.205955	0.774741
H	-1.603488	1.151411	0.939353
H	-0.281392	2.144035	0.273257
H	-0.040752	1.224997	1.757152
Br	3.679144	0.0	0.0
