20

C	-0.216341	-0.016333	-1.519271
C	0.0	0.0	0.0
Br	-2.171138	-0.268691	-1.938834
H	1.102116	0.0	0.0
C	0.217944	1.285423	-2.169529
H	0.161989	1.176143	-3.252796
H	-0.400621	2.126639	-1.859175
H	1.257395	1.470872	-1.875572
N	0.484662	-1.091772	-2.194345
H	1.477604	-0.941739	-1.998182
H	0.237342	-1.977359	-1.767783
C	-0.480787	-1.250095	0.72462
H	-0.074737	-1.250705	1.739799
H	-0.13509	-2.169951	0.248
H	-1.57294	-1.280376	0.78462
C	-0.511962	1.251995	0.699021
H	0.003527	2.149275	0.353546
H	-0.327904	1.170576	1.774302
H	-1.589506	1.379173	0.545295
Br	3.601458	0.0	0.0
