20

C	-0.452076	-0.080452	-1.472078
C	0.0	0.0	0.0
Br	-0.074488	1.666946	-2.35781
H	1.096209	0.0	0.0
C	0.359987	-1.11086	-2.238981
H	0.113372	-2.116426	-1.881734
H	1.425853	-0.938023	-2.07583
H	0.120529	-1.057389	-3.302042
N	-1.869047	-0.318876	-1.696391
H	-2.416655	0.317523	-1.127594
H	-2.078064	-1.265239	-1.393815
C	-0.425087	-1.27152	0.746664
H	-0.084461	-2.182835	0.251383
H	-1.512133	-1.325322	0.883424
H	0.037265	-1.262088	1.737365
C	-0.504134	1.214949	0.769709
H	-0.097866	2.142297	0.368746
H	-1.600121	1.280829	0.764422
H	-0.183485	1.135178	1.812039
Br	3.686295	0.0	0.0
