11

C	-0.523578	0.076766	-1.429183
C	0.0	0.0	0.0
Br	0.144801	-1.403614	-2.533056
H	1.092761	0.0	0.0
H	-1.609572	-0.036239	-1.474617
H	-0.300389	0.912933	0.529149
C	-0.18197	1.342082	-2.072307
N	0.088112	2.362729	-2.588293
C	-0.543519	-1.152913	0.695643
N	-0.971427	-2.086341	1.269168
H	2.688827	0.0	0.0
