11

C	-0.401082	0.000711	-1.473354
C	0.0	0.0	0.0
Br	0.063914	1.725912	-2.279852
H	1.092605	0.0	0.0
H	0.210377	-0.736956	-2.00196
H	-0.378126	0.8885	0.510936
C	-1.816811	-0.239345	-1.724788
N	-2.959636	-0.436374	-1.919444
C	-0.485274	-1.203084	0.655459
N	-0.875871	-2.178269	1.183893
H	2.692813	0.0	0.0
