11

C	-0.355963	0.090808	-1.467714
C	0.0	0.0	0.0
Br	-2.197661	0.74126	-1.809163
H	1.095226	0.0	0.0
H	0.298107	0.840212	-1.921876
H	-0.289605	0.929125	0.49913
C	-0.198929	-1.168824	-2.182545
N	-0.090537	-2.187849	-2.757323
C	-0.588308	-1.133281	0.681602
N	-1.038796	-2.057193	1.252629
H	2.661634	0.0	0.0
