11

C	-0.532534	0.086444	-1.425616
C	0.0	0.0	0.0
Br	0.141035	-1.381778	-2.541099
H	1.092821	0.0	0.0
H	-1.616315	-0.031698	-1.470371
H	-0.296295	0.909633	0.535144
C	-0.189787	1.357869	-2.055499
N	0.081725	2.37695	-2.57312
C	-0.543562	-1.154799	0.690308
N	-0.970733	-2.091114	1.258664
H	2.688126	0.0	0.0
