11

C	-0.356802	0.070522	-1.468057
C	0.0	0.0	0.0
Br	-2.224943	0.634511	-1.814937
H	1.095455	0.0	0.0
H	0.262406	0.847246	-1.924028
H	-0.293839	0.933532	0.488393
C	-0.13969	-1.180983	-2.181069
N	0.016105	-2.19357	-2.755626
C	-0.583261	-1.127806	0.694299
N	-1.03099	-2.046587	1.276083
H	2.665343	0.0	0.0
