11

C	-0.536067	-0.00739	-1.424862
C	0.0	0.0	0.0
Br	0.090037	-1.576536	-2.429275
H	1.092895	0.0	0.0
H	-1.624508	-0.093348	-1.458176
H	-0.290271	0.945426	0.473907
C	-0.163858	1.201047	-2.152517
N	0.045765	2.1827	-2.763062
C	-0.547473	-1.100994	0.771873
N	-0.985278	-1.990505	1.403729
H	2.689125	0.0	0.0
