11

C	-0.388976	-0.035459	-1.473294
C	0.0	0.0	0.0
Br	-0.07946	1.685659	-2.346888
H	1.093563	0.0	0.0
H	0.300224	-0.727934	-1.966398
H	-0.290049	-0.957437	0.449052
C	-1.769064	-0.430642	-1.724888
N	-2.879345	-0.771598	-1.904756
C	-0.59932	1.084083	0.751437
N	-1.054692	1.958083	1.392614
H	2.677984	0.0	0.0
