15

C	-0.56964	0.004601	-1.386741
C	0.0	0.0	0.0
F	-0.02026	1.071067	-2.055682
H	1.085687	0.0	0.0
H	-0.281614	0.946424	0.465244
N	-0.056365	-1.203841	-2.22216
O	0.789811	-1.945132	-1.750171
O	-0.555906	-1.300597	-3.346706
N	-1.97598	0.118352	-1.487286
H	-2.393987	-0.630686	-0.948754
H	-2.239659	0.015557	-2.460836
N	-0.543642	-1.05376	0.847716
O	-1.216528	-1.966262	0.334157
O	-0.294368	-0.989264	2.048535
F	2.49759	0.0	0.0
