15

C	-0.62844	0.042713	-1.3606
C	0.0	0.0	0.0
F	-0.135099	1.194012	-1.986231
H	1.087783	0.0	0.0
H	-0.303579	0.907536	0.526906
N	-0.164762	-1.058763	-2.31566
O	0.925153	-1.567637	-2.122694
O	-0.908782	-1.277077	-3.27491
N	-2.036487	0.014768	-1.344696
H	-2.382352	0.774255	-0.773474
H	-2.407539	0.062006	-2.283901
N	-0.502241	-1.127029	0.785882
O	-0.675225	-2.207943	0.218417
O	-0.665678	-0.946772	1.996253
F	2.507621	0.0	0.0
