15

C	-0.21654	-0.20683	-1.488221
C	0.0	0.0	0.0
F	-1.417947	-0.803056	-1.762645
H	1.089631	0.0	0.0
H	-0.341611	-0.901114	0.508882
N	-0.20244	1.111021	-2.268691
O	-1.248877	1.489299	-2.782356
O	0.882513	1.666048	-2.332717
N	0.849401	-0.993668	-2.032139
H	1.705279	-0.704459	-1.51817
H	0.656547	-1.961761	-1.794739
N	-0.635709	1.1349	0.669306
O	-0.733349	2.205612	0.068886
O	-1.001797	0.958622	1.834067
F	2.580606	0.0	0.0
