15

C	-0.158073	0.140795	-1.50706
C	0.0	0.0	0.0
F	-0.381967	-1.087395	-2.141776
H	1.093649	0.0	0.0
H	-0.41625	0.861614	0.510593
N	-1.448168	0.877501	-1.926788
O	-1.471182	1.335292	-3.067255
O	-2.379446	0.915155	-1.126795
N	0.941588	0.842327	-1.964318
H	1.801102	0.567615	-1.438584
H	1.012592	0.872478	-2.969306
N	-0.582154	-1.205304	0.597953
O	-1.423698	-1.04799	1.489637
O	-0.166849	-2.300364	0.223231
F	2.640464	0.0	0.0
