15

C	-0.482402	-0.134954	-1.423949
C	0.0	0.0	0.0
F	-0.27445	1.095361	-2.01962
H	1.097165	0.0	0.0
H	-0.395822	0.955477	0.347748
N	0.393962	-1.11033	-2.217836
O	0.647443	-2.163244	-1.654832
O	0.687421	-0.804524	-3.369524
N	-1.803983	-0.593028	-1.598683
H	-2.148411	-0.351962	-2.518409
H	-2.409164	-0.256161	-0.864205
N	-0.610704	-1.015333	0.889076
O	-1.775277	-0.795457	1.267126
O	0.044345	-1.991328	1.236184
F	2.536102	0.0	0.0
