16
Coordinates from ORCA-job run
  C   0.71253918801941     -0.47631631437713     -0.31611401000422
  C   -0.75529417353631     -0.49423396866939      0.10032813252651
  F   1.10451101380404     -1.72244367784546     -0.69141664889545
  H   -0.83642358484237     -1.26931447570100      0.86864409889876
  N   1.51646162109377     -0.22054392106945      1.00516031517330
  O   2.19793889066462      0.79926711779858      1.05471155759317
  O   1.37620487999759     -1.05066021019670      1.89492148726488
  N   1.01387403999046      0.42575361049417     -1.33700994167745
  H   0.82712854636320      1.38203141833335     -1.07128728981424
  H   1.98117167893290      0.34032763715978     -1.62337359602785
  C   -1.56947700658443     -0.89769721891875     -1.04582331695298
  N   -2.26503506448076     -1.20213791738963     -1.94085775936296
  C   -1.22753807438998      0.84795479610111      0.66720280220523
  H   -1.20903301544722      1.62800796911795     -0.09581861154220
  H   -0.60939230957462      1.15421508903192      1.51299269689923
  H   -2.25563663001029      0.75479006613064      1.01774008371627
