16
Coordinates from ORCA-job run
  C   0.77179586314759     -0.31128047121067     -0.18961037499127
  C   -0.70107104035440     -0.55541640689285      0.13284470176352
  F   1.34074006535023     -1.53933451433657     -0.51801314854934
  H   -0.73195643293165     -1.37385798657363      0.85621025328055
  N   1.53381358064384      0.06770055859581      1.08243944372628
  O   1.13714105126322     -0.43253126106086      2.12892774559930
  O   2.52873794238678      0.76974240748289      0.94326684832375
  N   0.97452960797861      0.68906683817130     -1.13557002724076
  H   1.95525828842489      0.90496989311520     -1.25412672610408
  H   0.53599070687002      0.46058109115157     -2.01845399733625
  C   -1.34313928300203     -1.00134107675957     -1.10570428931170
  N   -1.85020476648816     -1.30660860135297     -2.11964356315981
  C   -1.40506797301228      0.68268178431106      0.69294216460683
  H   -2.45634982756768      0.45614318715206      0.87549974838271
  H   -0.95100598081201      0.97655778455885      1.63914602468499
  H   -1.33721180189696      1.51192677364839     -0.01015480367469
