16
Coordinates from ORCA-job run
  C   0.70728116289279     -0.37201660678490     -0.20207255501986
  C   -0.75095062320192      0.05377124007493     -0.36488395839639
  F   0.70796992939001     -1.74497605695751      0.01462383511016
  H   -1.05785175958179     -0.43139489638408     -1.30173942991449
  N   1.36855440514160      0.19053165725451      1.05312532464764
  O   2.51722696158920     -0.19358705430873      1.24081070584958
  O   0.73247469606312      0.96912977583415      1.75327778309347
  N   1.51468067013047      0.03203305803859     -1.26646350834456
  H   2.46649775192622     -0.29409793546161     -1.15409629056552
  H   1.13682300023930     -0.23517341115378     -2.16455863637325
  C   -0.85838840090473      1.49751441715933     -0.57644421483492
  N   -1.00840865770086      2.64518190107714     -0.77101634371699
  C   -1.69126034975654     -0.43881042586740      0.74024512941923
  H   -1.56901044533166     -1.51280452006941      0.87787175023377
  H   -1.49387992373366      0.07409502375282      1.67848868548766
  H   -2.72275841716156     -0.24139616620406      0.44483172332448
