16
Coordinates from ORCA-job run
  C   0.78435417648196     -0.40718708901603     -0.22885568528670
  C   -0.69441088298615     -0.57586549264694      0.10733092116456
  F   1.35006496950847     -1.62151869527073     -0.45858392607592
  H   -0.73058337191910     -1.28343851651298      0.94152344768058
  N   1.46135123089209      0.06883773130550      1.10194459948494
  O   2.00319343189563      1.17031586694329      1.08914662175829
  O   1.36998218683290     -0.69058255626058      2.05871399752955
  N   1.03935521804278      0.42958953077286     -1.31618880280089
  H   0.72391837279183      1.37508702859508     -1.15393041082062
  H   2.02602617840505      0.43989208345593     -1.54241318038308
  C   -1.37504682721364     -1.18118027220298     -1.03715781769405
  N   -1.96548248600871     -1.65079247040023     -1.93626122686208
  C   -1.36391830155473      0.73963564941113      0.51577765366119
  H   -2.39607887039709      0.54774986097443      0.81047856059614
  H   -0.84919330287751      1.19283627167770      1.36515701444272
  H   -1.38453172189378      1.44762106917454     -0.31468176639465
