16
Coordinates from ORCA-job run
  C   0.71211396024785     -0.37858665174956     -0.17271777666100
  C   -0.73351036953683      0.06171431551140     -0.39727915402425
  F   0.69032117173611     -1.75098347912074      0.04441398199112
  H   -1.00436507883222     -0.41740734317097     -1.34832220529701
  N   1.32557303049573      0.17834522038544      1.10959204509253
  O   2.46277104290711     -0.21439955595143      1.34374535459538
  O   0.66633006760436      0.95907056622558      1.78541990502346
  N   1.56786289406316      0.01710599866683     -1.20209445562056
  H   1.22601807285907     -0.24873354025017     -2.11494973844291
  H   2.51074567268353     -0.31831189399804     -1.04888644659134
  C   -0.81798791980146      1.50721215978889     -0.60838883983205
  N   -0.95277616691805      2.65749983899586     -0.79853019088134
  C   -1.72590483438384     -0.42355889360345      0.66473824782761
  H   -2.74148083852828     -0.21458910927927      0.32540129364980
  H   -1.62085852111241     -1.49896200776934      0.80520538389279
  H   -1.56385218348381      0.08558437531897      1.61165259527778
