14
Coordinates from ORCA-job run
  C   -0.68982432454529      0.06433401049306     -0.02177417373345
  C   0.63478790807700      0.28066744083452     -0.04522774434743
  C   -1.58167119665898      1.12027821574369     -0.39600542924136
  N   -2.39616172066350      1.91018075725978     -0.71093573964453
  C   -1.33495317459209     -1.24621458448275      0.33445497912123
  H   -0.65410602971953     -1.91454329718085      0.85682872931449
  H   -2.21176700530643     -1.05738123240953      0.95588971955486
  H   -1.66888533533131     -1.74358407810061     -0.58026408669193
  N   1.62061907708738     -0.73471088371086      0.31831977473403
  O   2.44157735124058     -0.38213305054420      1.16027273955660
  O   1.53775179413843     -1.82889190312504     -0.23055230211757
  N   1.27276128358210      1.53953051694965     -0.44139538561847
  O   2.26040752830829      1.40925819543643     -1.15887280392682
  O   0.76946384438337      2.58220989283669     -0.04273827695963
