14
Coordinates from ORCA-job run
  C   -0.60976952221384     -0.05335646673064      0.32453814006598
  C   0.67555428106626      0.08220970110432     -0.05121506584565
  C   -0.87041122324886      0.07745014498233      1.72763680429907
  N   -1.12933825485223      0.17635919627328      2.87263455732125
  C   -1.79143796075655     -0.29586638977841     -0.57720899330556
  H   -1.63596545558469     -1.18201824784337     -1.19395451911521
  H   -2.68888621810587     -0.42404785813086      0.02639645619961
  H   -1.92922195828923      0.54689485135869     -1.25672469663490
  N   1.18233340181074     -0.03304139122354     -1.42052668881910
  O   2.40148951663982     -0.10637793748286     -1.53483315034999
  O   0.35507643331880     -0.05971815796800     -2.32425504284510
  N   1.74846005697460      0.35314116126482      0.90538243258433
  O   2.11996655299775      1.52172762987072      0.95486250907570
  O   2.17115035024330     -0.60235623569648      1.54626725736957
