14
Coordinates from ORCA-job run
  C   -0.68550834695639      0.05900730668315      0.08701200911295
  C   0.62647015687729      0.23303493241530     -0.14824191000515
  C   -1.51456164533444      1.22378479729566      0.01221350131011
  N   -2.24638747660234      2.14646020086148     -0.01710906917930
  C   -1.35207531710660     -1.25517579425291      0.39906014728273
  H   -1.37477505364365     -1.88980966166242     -0.48692645931586
  H   -0.82197279790033     -1.78445694572181      1.19140251306073
  H   -2.37537320482947     -1.07356263170579      0.73130007084255
  N   1.20680842264274      1.53349942623230     -0.48852334257945
  O   1.60471361744690      1.63425858552669     -1.64407417325912
  O   1.24251725676266      2.37894913164541      0.39880251755146
  N   1.64034892774972     -0.81216825748289     -0.04919931535608
  O   1.28767971173949     -1.96612407070200     -0.26808791215688
  O   2.76111574915442     -0.43069701913218      0.28037142269131
