14
Coordinates from ORCA-job run
  C   -0.63097601088159     -0.05789439192553      0.30257192300176
  C   0.67422028809636      0.08659477358818      0.01048242100679
  C   -0.99448908834989      0.02214988226405      1.68467383159194
  N   -1.34185220583949      0.08636440889652      2.80807683217078
  C   -1.72954347575464     -0.28336368136092     -0.70319035349390
  H   -2.66054110232717     -0.51289769659678     -0.18566505255997
  H   -1.87456055927704      0.60511215160938     -1.32103334205112
  H   -1.47662164596122     -1.10811263754798     -1.37264022682677
  N   1.24364076221707     -0.00301203143708     -1.33549703236379
  O   2.40444382902027     -0.39811998627205     -1.39023392668965
  O   0.51867395281073      0.29457975498055     -2.27823808785128
  N   1.70308593479861      0.34931308037679      1.01712916217787
  O   2.25937383263445      1.43732945262962      0.90555349235997
  O   1.90514548881356     -0.52004307920476      1.85701035952738
