14
Coordinates from ORCA-job run
  C   -0.44978557266702     -0.12795592612027      0.51006311068156
  C   0.80905745867954      0.33452277907454     -0.13684160895494
  C   -1.24383956201146      0.96398317584789      1.07616177714674
  N   -1.89947861233630      1.83465192905348      1.51483338863020
  C   -1.27430789512673     -1.13961328999513     -0.25215183646123
  H   -0.61732783890957     -1.93317184106060     -0.61197654113423
  H   -2.03172880105615     -1.56732606714010      0.40715332084367
  H   -1.76455286994298     -0.65553504612250     -1.09923435697315
  N   1.59890756168101     -0.22646303404673      0.77550952472206
  O   2.72053759554123     -0.42186754559326      1.09792987086059
  O   0.36674397337969     -0.75004165203938      1.54605404133094
  N   1.17827599794688      1.04930961138330     -1.30972927757675
  O   0.23037177006160      1.39985897560938     -2.01224506803608
  O   2.37512679476028      1.24064793114938     -1.50652634507939
