14
Coordinates from ORCA-job run
  C   -0.63019375028652      0.06635554706590      0.27873935775550
  C   0.68804916198120      0.09126763522775      0.02473577961789
  C   -1.09646424446545      0.46458031643620      1.57280118736094
  N   -1.57466556044908      0.75098976766070      2.61009792687951
  C   -1.68300573638914     -0.39919306225298     -0.68843316918837
  H   -1.97614054514857     -1.42219508366722     -0.43718357405241
  H   -1.33243103121487     -0.38899605586068     -1.71796156703865
  H   -2.56422892716025      0.23704346203056     -0.59412645756997
  N   1.27213300525335     -0.29416268127711     -1.25791563074549
  O   2.07942806631056      0.50607563138183     -1.72196164275152
  O   0.90609438145467     -1.35526800136114     -1.75324834838923
  N   1.71463006582767      0.49356040889495      0.99046533613029
  O   1.51301609321322      1.50776493238558      1.64654216867769
  O   2.68477902107320     -0.25682281666434      1.04644863331383
