14
Coordinates from ORCA-job run
  C   -0.67500179493005      0.11477721445115      0.11557809151133
  C   0.63903863315134      0.24140191994179     -0.12843498363853
  C   -1.51817568580010      1.26934863041426      0.03911946153858
  N   -2.29797770466041      2.14976577112445     -0.01877970452699
  C   -1.36224291092005     -1.18666792976281      0.42550703594626
  H   -0.66871702177703     -1.94641061016690      0.77920172004007
  H   -1.84744772018058     -1.56333812507632     -0.47893896345542
  H   -2.13261501442602     -1.01632488828831      1.17870167718147
  N   1.57636695495413     -0.87821767328312     -0.07392952419618
  O   2.56907359582842     -0.69027982655060      0.62344861748063
  O   1.28999565525314     -1.88957675438462     -0.70672453976813
  N   1.30877590932188      1.49475434773510     -0.48693551668049
  O   0.98692934557634      2.50641567704332      0.12329413803853
  O   2.13199775860897      1.39435224680259     -1.39210750947113
