14
Coordinates from ORCA-job run
  C   -0.68870477412593      0.09380178783292      0.08491019745300
  C   0.63103512730771      0.23978596213532     -0.12584790432701
  C   -1.51930935223430      1.25557192447802     -0.01631185594409
  N   -2.27607708851891      2.15469288759171     -0.09391734441808
  C   -1.36181935665291     -1.20956572634262      0.42572454676714
  H   -0.76311523248610     -1.79195611749508      1.12378217828674
  H   -2.34668448362844     -1.02057920763105      0.85238807031495
  H   -1.48049125312486     -1.81163715922751     -0.47736727429244
  N   1.26384609009692      1.50898089213919     -0.49934039188210
  O   1.06480556046244      2.47686187255040      0.22497414818225
  O   1.94441894049596      1.45730831891387     -1.51895162489752
  N   1.60180305540354     -0.84858115038693     -0.02462219377006
  O   1.23636080077830     -1.95972029456892     -0.39829479050683
  O   2.69393196622658     -0.54396398998931      0.44287423903405
