14
Coordinates from ORCA-job run
  C   -0.59142076408179     -0.06775646569475      0.35320545221780
  C   0.68862929969815      0.08166536236547     -0.02387594327872
  C   -0.92528614729917      0.06629066804193      1.73919170036877
  N   -1.29932959410676      0.18000913747175      2.84999945913836
  C   -1.74006562609857     -0.32539908257795     -0.58195420894542
  H   -2.43294856976584     -1.02691311125086     -0.11470298219944
  H   -1.41222801763559     -0.71940988462325     -1.54121698026522
  H   -2.27434488198985      0.61089972567302     -0.76405950365520
  N   1.79307928940947      0.38516121698972      0.88975572077444
  O   2.53712928360661      1.28465863571388      0.50952857633708
  O   1.86672722386970     -0.25888366086626      1.92882491070990
  N   1.14641714846878     -0.03421519207811     -1.40679811685709
  O   2.13060606383241     -0.74973773979585     -1.56949436440126
  O   0.51603529209258      0.57163039063128     -2.26740371994401
