14
Coordinates from ORCA-job run
  C   -0.70428258818672      0.08437901114307     -0.08812882184345
  C   0.61980000084609      0.29953107655679     -0.13083997052799
  C   -1.64729278856873      1.06229331209639     -0.53460257011412
  N   -2.52651041697215      1.76281516008507     -0.88363572080278
  C   -1.27444233823736     -1.18796819207962      0.48047514402205
  H   -0.56910811758868     -2.01673760317027      0.40011817382195
  H   -1.50699874341623     -1.03298734727526      1.53797926855338
  H   -2.19130123345664     -1.45253051736243     -0.04441160899915
  N   1.55032859758908     -0.71411066092007      0.35828420904455
  O   1.79114535092578     -0.67057838011824      1.56234842579367
  O   1.97379992131381     -1.51698677126473     -0.46755541199406
  N   1.31568773181216      1.50161926809732     -0.61170897123488
  O   0.62679278886121      2.44151946783912     -0.97988146469955
  O   2.54138183507835      1.43974217637285     -0.59744068101963
