14
Coordinates from ORCA-job run
  C   -0.60718150455615      0.05291787081432      0.34384497447557
  C   0.69322366758481      0.08640270008673      0.01418856660661
  C   -1.05221924843596      0.49353029231468      1.63069476538282
  N   -1.53858957368923      0.80925039657273      2.65508698893485
  C   -1.68644135574732     -0.40914095782131     -0.59615967654951
  H   -2.29338643643274      0.45052690925327     -0.89492376141861
  H   -1.28188525719455     -0.89185739718100     -1.48367133493093
  H   -2.34044769744450     -1.11385563103433     -0.07906916099885
  N   1.79844496972635      0.51165412217344      0.88381584871393
  O   1.53252846857138      1.27485268852293      1.80162914317307
  O   2.89477492528404      0.03768439405053      0.59934409217997
  N   1.17353671570676     -0.33726449528818     -1.29873084621026
  O   1.58335849224873      0.57091180596761     -2.01613179804654
  O   1.12528383437838     -1.53461269843144     -1.56091780131212
