14
Coordinates from ORCA-job run
  C   -0.67434130168239      0.12217117417721      0.08073405923006
  C   0.65021018872346      0.22885433322590     -0.10410103231033
  C   -1.50230010383280      1.28724875462370     -0.01701573502138
  N   -2.29187060280545      2.15717930172099     -0.09466694673818
  C   -1.39773189484140     -1.16396777838036      0.36316219030047
  H   -0.71893088590662     -1.99612814835964      0.53405394330190
  H   -2.03646185467055     -1.02651643473216      1.23831341424863
  H   -2.04212218220765     -1.40978075221275     -0.48459991393011
  N   1.57097787435691     -0.90146059595046     -0.02412882556517
  O   2.49433853589064     -0.76223570221618      0.77378928573556
  O   1.35104606283783     -1.86810876191384     -0.74805674603000
  N   1.35580150405027      1.47642541823739     -0.41959848289273
  O   2.25443842549212      1.36183958115188     -1.24793864879899
  O   0.98894623459563      2.49647961062832      0.14905343847026
