14
Coordinates from ORCA-job run
  C   -0.63422855973473      0.10509527926920      0.25037374417382
  C   0.68998007344248      0.06404739982612      0.03344191698854
  C   -1.11763461596078      0.66874476047871      1.47489685328072
  N   -1.61472213645315      1.10793723389253      2.44818355369168
  C   -1.68270124070881     -0.43401677343037     -0.68051294744471
  H   -2.52292147342537      0.25952684558874     -0.72038631815973
  H   -2.05156900393656     -1.38821912702967     -0.29489841255403
  H   -1.29850606622963     -0.59817197118010     -1.68401941444637
  N   1.30301957815614     -0.44730604344530     -1.19052841240657
  O   2.15591392539376      0.28527558489819     -1.68333062131706
  O   0.91088040626903     -1.52764837354242     -1.61857674962647
  N   1.70195215123766      0.53191134201695      0.98714423847405
  O   2.63192809172957     -0.24973663829148      1.16372663736185
  O   1.52860887022039      1.62356048094889      1.51448593198430
