14
Coordinates from ORCA-job run
  C   -0.68008901714373      0.08603046635129      0.11688221162968
  C   0.62832178649802      0.25909318066282     -0.13100992184005
  C   -1.55934430733081      1.21127049849082      0.01377404520042
  N   -2.36022631291943      2.07093989872752     -0.06556952484348
  C   -1.32183203315225     -1.23286894085102      0.44724688373416
  H   -0.61219913414777     -1.94438068200236      0.86450953705533
  H   -1.73996857323832     -1.66806972148904     -0.46452916320150
  H   -2.13625327562133     -1.07323251187577      1.15532309012060
  N   1.24325394676975      1.53427151411446     -0.50996988468510
  O   0.93039433427456      2.52795531982749      0.13396257554596
  O   2.01737640638862      1.46726180293305     -1.46005160936893
  N   1.61454205817642     -0.81590166291069     -0.05785646669822
  O   1.34581041208540     -1.87238397812841     -0.62181186528994
  O   2.63021370936086     -0.54798518385015      0.57810009264107
