14
Coordinates from ORCA-job run
  C   -0.67727009572750      0.12027924636687      0.08059309539105
  C   0.64490690741975      0.23655882918723     -0.11922435322327
  C   -1.52402958369574      1.26273963274845     -0.08763173589688
  N   -2.31416613596086      2.12544325618143     -0.22152637128210
  C   -1.37398325250754     -1.16156871084332      0.44257001905363
  H   -1.92573581254008     -1.52830622753604     -0.42728989549842
  H   -2.09409788028761     -0.96504704172471      1.23886096586338
  H   -0.68034408373711     -1.93673254806354      0.76030691250973
  N   1.33121995240160      1.46820476176695     -0.52217237773023
  O   0.94441343123050      2.52090758092832     -0.03097664660021
  O   2.23225008037752      1.30919374148651     -1.34067617516198
  N   1.57790848399639     -0.87808304744020      0.03063685584018
  O   1.35149852069464     -1.89845974290400     -0.61164874953552
  O   2.50742946833603     -0.67412973015395      0.80617845627064
