14
Coordinates from ORCA-job run
  C   -0.69513495171190      0.06030251473218      0.06918048340893
  C   0.62152423044836      0.24567467840844     -0.12589950972690
  C   -1.53754771416333      1.21241209284043     -0.05181077778605
  N   -2.27199384983284      2.13001711035813     -0.11918539753699
  C   -1.34844233071460     -1.25782941711929      0.38397467029113
  H   -2.33261304275656     -1.08415178685577      0.82306410770193
  H   -1.46683347264143     -1.83806504722409     -0.53449506952034
  H   -0.75167120600524     -1.84412503355908      1.08174449586270
  N   1.21721263183822      1.53278965160554     -0.48279409341344
  O   1.19626811272696      2.42192110247121      0.35747951019932
  O   1.69682841536433      1.56622993336771     -1.61333747029560
  N   1.63670400441413     -0.79375963486595      0.02402197000123
  O   2.71568321417596     -0.41271823573493      0.46893210078558
  O   1.32201595885794     -1.93969792842452     -0.27887501997150
