14
Coordinates from ORCA-job run
  C   -0.67874145825247      0.10471288399290      0.11452540765779
  C   0.63286554834002      0.25477383524623     -0.12928065976154
  C   -1.54765739571424      1.23630272899701      0.00804785706058
  N   -2.34790809318964      2.09601384481624     -0.07382531654247
  C   -1.33467489828148     -1.20791155635695      0.44581730314624
  H   -2.16281551194760     -1.03997490710591      1.13597936969995
  H   -1.73768012736973     -1.65081228226962     -0.46906627211594
  H   -0.63833723645120     -1.91959773914522      0.88506366171273
  N   1.27442144405999      1.51257816752557     -0.51945892280792
  O   0.93319945278914      2.53147689061092      0.06837402920196
  O   2.09588535752658      1.40836963641665     -1.42562279014141
  N   1.59554723183877     -0.84009868117450     -0.04300703592789
  O   2.59113650083829     -0.60434285672376      0.63584671291422
  O   1.32575918581356     -1.88048996482956     -0.63539334409629
