15

C	0.0	0.0	0.0
C	-0.653903	-0.096842	-1.37482
Br	1.940687	0.0	0.0
H	-1.808154	-0.059279	-0.996321
N	-0.527081	1.207776	0.554441
H	-0.237941	1.294098	1.524584
H	-1.564991	1.035889	0.530849
C	-0.33936	-1.228105	0.768682
N	-0.539163	-2.178218	1.433641
N	-0.415092	-1.412337	-2.055702
O	0.740228	-1.702963	-2.372133
O	-1.403785	-2.11313	-2.258471
C	-0.235707	0.974412	-2.245454
N	0.073361	1.824128	-3.000869
H	-2.807339	0.0	0.0
