15

C	0.0	0.0	0.0
C	-0.631011	-0.115908	-1.398586
Br	1.944467	0.0	0.0
H	-1.783602	-0.077758	-1.027003
N	-0.500951	1.162404	0.674284
H	-0.267313	1.981826	0.119321
H	-1.537136	1.011177	0.63791
C	-0.375806	-1.206137	0.764278
N	-0.553784	-2.20424	1.359023
N	-0.403493	-1.423442	-2.103981
O	-1.408459	-2.019922	-2.486347
O	0.754738	-1.807888	-2.264204
C	-0.21925	0.961704	-2.258455
N	0.097305	1.868637	-2.942304
H	-2.776741	0.0	0.0
