15

C	0.0	0.0	0.0
C	-0.604218	-0.034545	-1.384287
Br	1.947581	0.0	0.0
H	-1.788384	-0.086041	-0.991104
N	-0.517828	1.19724	0.595869
H	-1.542778	1.043609	0.556165
H	-0.250648	1.221726	1.574275
C	-0.346587	-1.218762	0.768289
N	-0.510355	-2.124998	1.502221
N	-0.23271	-1.256379	-2.134204
O	0.506126	-1.150435	-3.118498
O	-0.723306	-2.315155	-1.743693
C	-0.2714	1.147331	-2.13897
N	-0.078166	2.103629	-2.798914
H	-2.739314	0.0	0.0
