12

C	-0.073266	-0.065313	0.023237
C	-0.584573	-0.250205	-1.416919
Br	1.849495	0.31124	0.069644
H	-1.688978	-0.272433	-1.275824
H	-0.603417	0.790656	0.445191
C	-0.330281	-1.2537	0.82325
N	-0.485495	-2.226861	1.463082
C	-0.079053	-1.471381	-2.040148
N	0.310471	-2.459045	-2.542802
C	-0.271862	0.911649	-2.24823
N	-0.026493	1.829665	-2.937904
Cl	-3.135789	0.742621	0.056542
