12

C	-0.079708	-0.064516	0.02778
C	-0.595857	-0.281302	-1.406106
Br	1.842249	0.318332	0.058968
H	-1.699541	-0.304931	-1.260685
H	-0.610793	0.798804	0.433328
C	-0.330258	-1.236592	0.853167
N	-0.483109	-2.198858	1.509699
C	-0.0881	-1.513726	-2.005491
N	0.301681	-2.511002	-2.488531
C	-0.290018	0.863647	-2.262962
N	-0.047608	1.769018	-2.970119
Cl	-3.143263	0.742378	0.050354
