17

C	0.0	0.0	0.0
C	-0.416711	0.131753	-1.499576
Cl	1.80172	0.0	0.0
H	0.358627	0.751972	-1.966045
H	-0.300911	-0.973159	0.393491
C	-0.52583	1.105898	0.885532
H	-1.617418	1.046354	0.898573
H	-0.151737	0.996424	1.905923
H	-0.216645	2.084821	0.508862
N	-1.685088	0.764954	-1.784866
H	-1.686505	1.7222	-1.455356
H	-2.472276	0.308896	-1.318503
C	-0.39951	-1.245835	-2.150081
H	0.541892	-1.76928	-1.963157
H	-0.549574	-1.146741	-3.226621
H	-1.223519	-1.842832	-1.748292
Cl	-4.288646	0.0	0.0
