17

C	0.0	0.0	0.0
C	-0.539315	-0.067407	-1.43353
Cl	1.801766	0.0	0.0
H	-1.627932	-0.081398	-1.299775
H	-0.278787	-0.932206	0.497047
C	-0.513786	1.173668	0.805989
H	-0.187292	1.097309	1.845993
H	-0.148989	2.12004	0.402255
H	-1.606902	1.146076	0.768257
N	-0.173054	-1.294812	-2.143763
H	0.820098	-1.465233	-2.023329
H	-0.668647	-2.071495	-1.71968
C	-0.165317	1.136596	-2.285311
H	-0.628727	1.017188	-3.265214
H	0.917351	1.208215	-2.423196
H	-0.525277	2.06805	-1.845279
Cl	-3.864363	0.0	0.0
