14

C	-0.276948	-0.014116	-1.498343
C	0.0	0.0	0.0
Cl	-2.037887	-0.15927	-1.889267
H	1.098429	0.0	0.0
H	0.185164	-0.923536	-1.889005
C	0.321328	1.206777	-2.160513
H	0.237554	1.136744	-3.24696
H	-0.184038	2.114941	-1.825476
H	1.376327	1.244584	-1.866434
C	-0.464033	-1.198031	0.675212
N	-0.802602	-2.195993	1.196698
C	-0.48548	1.202302	0.650955
N	-0.847481	2.204764	1.148697
H	2.548742	0.0	0.0
