14

C	-0.414611	-0.065535	-1.482826
C	0.0	0.0	0.0
Cl	0.033107	1.47769	-2.283298
H	1.097168	0.0	0.0
H	-1.500855	-0.133198	-1.58371
C	0.294467	-1.220208	-2.165764
H	0.088196	-1.216457	-3.238302
H	1.367795	-1.123898	-1.984504
H	-0.051661	-2.167602	-1.744356
C	-0.445379	-1.20837	0.676912
N	-0.806681	-2.198945	1.199164
C	-0.511852	1.169087	0.693808
N	-0.893188	2.121782	1.268697
H	2.573284	0.0	0.0
