14

C	-0.415188	-0.064101	-1.483082
C	0.0	0.0	0.0
Cl	0.030147	1.481727	-2.280124
H	1.097134	0.0	0.0
H	-1.501698	-0.132687	-1.583336
C	0.295219	-1.217149	-2.167811
H	0.087811	-1.211933	-3.239962
H	1.368498	-1.120045	-1.987251
H	-0.049594	-2.16592	-1.74776
C	-0.445582	-1.209111	0.67544
N	-0.80576	-2.201437	1.195163
C	-0.512809	1.168306	0.694523
N	-0.897144	2.119097	1.270561
H	2.574478	0.0	0.0
