14

C	-0.297913	-0.014341	-1.493749
C	0.0	0.0	0.0
Cl	-2.066968	-0.149617	-1.853674
H	1.098437	0.0	0.0
H	0.150775	-0.92728	-1.892038
C	0.294397	1.20359	-2.166497
H	1.355379	1.235946	-1.894497
H	-0.197913	2.11437	-1.819136
H	0.186351	1.135742	-3.250941
C	-0.46041	-1.197099	0.680481
N	-0.79758	-2.194413	1.204277
C	-0.477598	1.202646	0.656884
N	-0.816371	2.206182	1.168535
H	2.548921	0.0	0.0
