14

C	-0.385993	0.009808	-1.486057
C	0.0	0.0	0.0
Cl	0.111802	-1.545958	-2.222442
H	1.096078	0.0	0.0
H	0.247302	0.770124	-1.954718
C	-1.857917	0.244909	-1.766911
H	-2.046837	0.24841	-2.84332
H	-2.458791	-0.54609	-1.312019
H	-2.167333	1.206919	-1.351092
C	-0.539508	-1.133502	0.725517
N	-0.93784	-2.063431	1.3271
C	-0.416957	1.247799	0.617373
N	-0.717963	2.289959	1.073963
H	2.518489	0.0	0.0
