14

C	-0.41502	-0.073233	-1.482499
C	0.0	0.0	0.0
Cl	0.034973	1.465469	-2.290771
H	1.096727	0.0	0.0
H	-1.501581	-0.139126	-1.582592
C	0.291943	-1.233124	-2.158976
H	1.365536	-1.137128	-1.980127
H	-0.054547	-2.177786	-1.73117
H	0.084049	-1.235907	-3.231052
C	-0.440543	-1.204499	0.686375
N	-0.756662	-2.193343	1.24048
C	-0.512976	1.173211	0.686306
N	-0.896375	2.129087	1.254597
H	2.569607	0.0	0.0
