14

C	-0.315918	-0.022014	-1.489343
C	0.0	0.0	0.0
Cl	-2.095447	-0.10451	-1.819769
H	1.100753	0.0	0.0
H	0.095346	-0.95313	-1.885445
C	0.302044	1.169913	-2.184134
H	1.370153	1.166257	-1.938316
H	-0.147082	2.09962	-1.828619
H	0.162929	1.101542	-3.26501
C	-0.46326	-1.187842	0.694819
N	-0.788185	-2.173033	1.248471
C	-0.466958	1.208893	0.654308
N	-0.790783	2.21188	1.176433
H	2.547472	0.0	0.0
