14

C	-0.432431	-0.018072	-1.477752
C	0.0	0.0	0.0
Cl	0.058639	1.529207	-2.247563
H	1.097577	0.0	0.0
H	-1.522263	-0.044738	-1.565811
C	0.223341	-1.180347	-2.200195
H	0.000322	-1.141021	-3.268708
H	1.303196	-1.129918	-2.03847
H	-0.152232	-2.125124	-1.797768
C	-0.438415	-1.226709	0.649087
N	-0.754887	-2.239863	1.157086
C	-0.506333	1.150121	0.729443
N	-0.882601	2.092622	1.323793
H	2.566898	0.0	0.0
