14

C	-0.385136	-0.013643	-1.486164
C	0.0	0.0	0.0
Cl	0.113887	-1.58009	-2.197856
H	1.096089	0.0	0.0
H	0.247621	0.739312	-1.965151
C	-1.856855	0.215454	-1.770957
H	-2.166156	1.183954	-1.371341
H	-2.046741	0.201178	-2.847023
H	-2.457175	-0.567868	-1.303423
C	-0.542868	-1.120139	0.74274
N	-0.94985	-2.038275	1.355619
C	-0.418339	1.25719	0.597579
N	-0.74469	2.29576	1.04384
H	2.522147	0.0	0.0
