14

C	-0.286068	-0.0166	-1.496794
C	0.0	0.0	0.0
Cl	-2.051124	-0.150559	-1.872638
H	1.098579	0.0	0.0
H	0.16551	-0.931151	-1.888555
C	0.315171	1.19759	-2.167624
H	1.374529	1.22581	-1.887015
H	-0.175671	2.111734	-1.82527
H	0.215558	1.128184	-3.253
C	-0.462511	-1.195282	0.681257
N	-0.785292	-2.188849	1.22107
C	-0.480633	1.204385	0.650462
N	-0.824606	2.210156	1.154248
H	2.546693	0.0	0.0
