14

C	-0.392282	0.042056	-1.483461
C	0.0	0.0	0.0
Cl	0.123766	-1.487635	-2.262335
H	1.095947	0.0	0.0
H	0.226325	0.823272	-1.936023
C	-1.868988	0.262516	-1.748732
H	-2.186409	1.213779	-1.314321
H	-2.456485	-0.54329	-1.303071
H	-2.067202	0.281974	-2.823358
C	-0.536611	-1.152178	0.698619
N	-0.936288	-2.097169	1.274987
C	-0.420285	1.230491	0.649402
N	-0.714178	2.257094	1.14423
H	2.519863	0.0	0.0
