12

C	0.0	0.0	0.0
C	-0.447557	-0.35895	-1.426988
Br	1.931305	0.0	0.0
H	0.442977	-0.466232	-2.058923
H	-0.356825	-0.726474	0.721383
H	-0.350662	0.991089	0.260985
N	-1.156788	0.772111	-2.145905
O	-1.819141	0.459356	-3.123974
O	-0.863289	1.908998	-1.803314
C	-1.168945	-1.620671	-1.547808
N	-1.512872	-2.730138	-1.722996
Cl	-3.0222	0.0	0.0
