16

C	0.0	0.0	0.0
C	-0.433623	0.231543	-1.458181
Cl	1.803415	0.0	0.0
H	-0.262714	-0.715503	-1.98303
H	0.254839	0.961604	-1.893711
C	-0.369343	1.155373	0.827589
N	-0.628199	2.096057	1.482007
C	-0.555508	-1.281882	0.595
H	-0.214089	-1.413553	1.62307
H	-0.226798	-2.132228	-0.006038
H	-1.648836	-1.227646	0.584321
C	-1.869654	0.715107	-1.627688
H	-2.623355	0.146917	-1.079721
H	-2.13443	0.666934	-2.688181
H	-1.97012	1.752345	-1.303001
Cl	-4.847521	0.0	0.0
