16

C	-0.361539	0.078519	-1.475247
C	0.0	0.0	0.0
Br	-2.283619	0.455521	-1.778956
H	1.095057	0.0	0.0
N	0.417303	1.039626	-2.189415
H	1.387352	0.905952	-1.873561
H	0.116726	1.965407	-1.904202
N	-0.064433	-1.301489	-2.081237
O	-0.943018	-2.151939	-2.101284
O	1.093948	-1.44759	-2.453511
N	-0.409925	-1.206613	0.674886
H	0.322711	-1.459859	1.329246
H	-1.290172	-1.104267	1.160394
C	-0.389534	1.245075	0.655714
N	-0.716379	2.230962	1.209466
H	2.616577	0.0	0.0
