16

C	-0.591173	-0.0272	-1.396954
C	0.0	0.0	0.0
Br	0.474915	-1.381985	-2.48457
H	1.094003	0.0	0.0
N	-1.958937	-0.304485	-1.396668
H	-2.310544	-0.492891	-2.325547
H	-2.100063	-1.086542	-0.764297
N	-0.363522	1.26299	-2.15567
O	0.450762	2.056911	-1.701261
O	-1.019984	1.404508	-3.184761
N	-0.396015	-1.27153	0.655558
H	-0.593735	-1.08005	1.631826
H	0.455624	-1.834952	0.644625
C	-0.515938	1.134569	0.744321
N	-0.905242	2.013368	1.422512
H	2.601244	0.0	0.0
