16

C	-0.284082	0.079492	-1.491662
C	0.0	0.0	0.0
Br	-2.168475	0.584963	-1.966497
H	1.09609	0.0	0.0
N	0.613286	0.994321	-2.030206
H	1.545548	0.827419	-1.616029
H	0.645728	0.972183	-3.040447
N	-0.123118	-1.370679	-2.070692
O	-1.05364	-2.159118	-2.006397
O	0.992204	-1.6087	-2.525615
N	-0.406837	-1.221292	0.651142
H	0.314338	-1.465945	1.318926
H	-1.295257	-1.129202	1.122181
C	-0.431092	1.224433	0.664718
N	-0.78193	2.157212	1.290081
H	2.616996	0.0	0.0
