16

C	-0.352938	0.049539	-1.477466
C	0.0	0.0	0.0
Br	-2.279058	0.382722	-1.791912
H	1.09539	0.0	0.0
N	0.410761	1.015583	-2.201101
H	1.380427	0.900527	-1.880239
H	0.094338	1.938676	-1.926307
N	-0.016828	-1.32966	-2.056627
O	-0.8796	-2.193661	-2.110153
O	1.159756	-1.459933	-2.373238
N	-0.415891	-1.195978	0.689437
H	-1.317606	-1.096035	1.136024
H	0.293267	-1.418741	1.379858
C	-0.396517	1.256834	0.63024
N	-0.723153	2.248336	1.173991
H	2.620506	0.0	0.0
