16

C	-0.269568	-0.030766	-1.496517
C	0.0	0.0	0.0
Br	-0.312963	1.903804	-2.225614
H	1.094893	0.0	0.0
N	0.656122	-0.837442	-2.099786
H	1.592944	-0.683926	-1.696872
H	0.612401	-0.86273	-3.106869
N	-1.685199	-0.481887	-1.844345
O	-1.850556	-1.005592	-2.939725
O	-2.557753	-0.275267	-1.009376
N	-0.376614	-1.283172	0.578006
H	0.384654	-1.581386	1.180012
H	-1.229294	-1.204808	1.115463
C	-0.522102	1.141669	0.732284
N	-0.914154	1.993384	1.442594
H	2.662201	0.0	0.0
