16

C	-0.598509	-0.023121	-1.393412
C	0.0	0.0	0.0
Br	0.452725	-1.39439	-2.481828
H	1.094006	0.0	0.0
N	-1.96841	-0.286787	-1.385968
H	-2.11627	-1.061715	-0.746064
H	-2.330117	-0.471428	-2.311443
N	-0.355697	1.260398	-2.156237
O	0.483987	2.035168	-1.71447
O	-1.022714	1.416132	-3.176687
N	-0.40518	-1.267358	0.659124
H	-0.564446	-1.075141	1.642243
H	0.435026	-1.847867	0.6209
C	-0.507859	1.139162	0.743202
N	-0.891948	2.025502	1.414968
H	2.604492	0.0	0.0
