12

C	0.0	0.0	0.0
C	-0.522987	-0.045067	-1.42836
Cl	1.783639	0.0	0.0
H	-1.628992	-0.041573	-1.295189
H	-0.278472	-0.93447	0.500544
H	-0.203002	0.861541	-1.948019
N	-0.531463	1.18582	0.608499
H	-0.287397	1.180329	1.595236
H	-1.561043	1.024234	0.547606
C	-0.112985	-1.227477	-2.168741
N	0.191193	-2.187108	-2.774368
H	-3.030662	0.0	0.0
