12

C	0.0	0.0	0.0
C	-0.528303	-0.006842	-1.424983
Cl	1.785801	0.0	0.0
H	-0.188159	-0.900505	-1.955225
H	-0.277743	-0.964044	0.443646
H	-1.63365	-0.050508	-1.28204
N	-0.534176	1.142868	0.676366
H	-1.562744	0.997746	0.581755
H	-0.318855	1.071085	1.667035
C	-0.158441	1.176273	-2.187376
N	0.103143	2.104634	-2.856216
H	-3.022398	0.0	0.0
