12

C	0.0	0.0	0.0
C	-0.53949	-0.031315	-1.421132
Cl	1.783473	0.0	0.0
H	-0.268277	0.900161	-1.924798
H	-0.271962	-0.943555	0.487631
H	-1.645186	-0.067851	-1.264696
N	-0.545958	1.168244	0.629425
H	-0.33161	1.127756	1.621985
H	-1.574799	1.001885	0.542461
C	-0.097819	-1.177309	-2.200578
N	0.237292	-2.102888	-2.842128
H	-3.020826	0.0	0.0
