12

C	0.0	0.0	0.0
C	-0.528051	-0.011157	-1.425012
Cl	1.786716	0.0	0.0
H	-1.633078	-0.058813	-1.281228
H	-0.276914	-0.963013	0.446295
H	-0.185744	-0.904593	-1.953615
N	-0.536873	1.143845	0.671509
H	-1.565584	0.994759	0.575728
H	-0.323611	1.074649	1.66171
C	-0.160347	1.170856	-2.190336
N	0.107079	2.094602	-2.863809
H	-3.019597	0.0	0.0
