14

C	-0.603101	0.024124	-1.39627
C	0.0	0.0	0.0
Br	-0.252613	-1.684238	-2.276075
H	1.087945	0.0	0.0
H	-1.687678	0.114194	-1.327157
C	-0.070758	1.093498	-2.227863
N	0.286119	1.944994	-2.953838
N	-0.561008	-1.173071	0.744882
O	0.215623	-1.985774	1.223557
O	-1.791917	-1.212066	0.80648
N	-0.467324	1.191043	0.783607
O	-1.036823	2.095467	0.175026
O	-0.228146	1.16506	1.984
Cl	3.149958	0.0	0.0
