14

C	-0.59851	0.04638	-1.3969
C	0.0	0.0	0.0
Br	-0.190613	-1.626796	-2.315824
H	1.087904	0.0	0.0
H	-1.685227	0.102469	-1.331586
C	-0.092186	1.1541	-2.194108
N	0.251005	2.03671	-2.889002
N	-0.554998	-1.189731	0.724258
O	-1.785864	-1.267785	0.738287
O	0.22794	-1.971876	1.244503
N	-0.480344	1.170891	0.809158
O	-0.211788	1.136948	2.002295
O	-1.099514	2.061097	0.227115
Cl	3.154413	0.0	0.0
