15

C	-0.598955	-0.018267	-1.596868
C	0.048477	-0.027218	-0.203146
Br	-0.091057	1.536343	-2.676183
H	1.1352	-0.004935	-0.327557
H	-0.236219	-0.889204	-2.143115
C	-2.054987	-0.079391	-1.519308
N	-3.223752	-0.131544	-1.407574
N	-0.248487	-1.339176	0.370121
H	-1.051602	-1.269549	0.986191
H	0.556847	-1.581093	0.942505
C	-0.370446	1.142289	0.670831
H	0.212778	1.088142	1.590673
H	-0.157548	2.103403	0.198437
H	-1.44179	1.091886	0.901423
Br	3.106136	0.101138	1.391217
