15

C	-0.020678	-0.151108	-1.386853
C	-0.023326	-0.224254	0.155046
Br	-1.760924	0.434429	-2.101959
H	1.014387	-0.498724	0.388024
H	0.731509	0.586329	-1.710393
C	0.257191	-1.460413	-1.956616
N	0.472102	-2.549076	-2.345417
N	-0.902464	-1.232226	0.732672
H	-1.859039	-1.020874	0.467648
H	-0.678317	-2.145513	0.351614
C	-0.290384	1.136769	0.772858
H	-1.321768	1.452854	0.593557
H	0.397738	1.871072	0.35061
H	-0.133687	1.068157	1.851211
Br	2.779074	1.844483	-1.380969
