15

C	-0.800765	0.052884	-1.492152
C	0.160951	0.050577	-0.300662
Br	-0.45383	-1.44784	-2.720133
H	1.191497	0.109729	-0.682231
H	-1.81011	-0.12289	-1.113842
C	-0.758058	1.277323	-2.280939
N	-0.725771	2.273537	-2.903353
N	-0.102752	-1.144666	0.485111
H	0.261599	-1.950382	-0.013446
H	0.480208	-1.06802	1.324075
C	-0.110405	1.275272	0.565427
H	-1.144462	1.256982	0.923181
H	0.07487	2.206811	0.025421
H	0.561021	1.223882	1.425496
Br	2.480626	-0.4955	2.690092
