15

C	-0.670607	-0.090297	-1.596116
C	0.074842	0.053133	-0.259996
Br	-0.396867	1.43506	-2.807921
H	1.136646	0.182139	-0.488768
H	-0.265468	-0.957323	-2.116938
C	-2.104612	-0.27248	-1.402076
N	-3.255233	-0.413126	-1.209279
N	-0.070381	-1.247582	0.382456
H	-0.845559	-1.211596	1.036612
H	0.781437	-1.384764	0.933132
C	-0.390769	1.227815	0.586135
H	-0.281425	2.183552	0.067633
H	0.229427	1.242699	1.483968
H	-1.441586	1.104682	0.872776
Br	2.87613	-0.499168	1.905345
