15

C	0.0	0.0	0.0
C	-0.639159	-0.01115	-1.378805
F	1.33912	0.0	0.0
H	-1.744773	0.115608	-1.178856
N	-0.389258	1.287014	0.763141
O	0.012681	1.312409	1.919235
O	-0.977472	2.168394	0.158786
C	-0.453668	-1.150235	0.793132
N	-0.60746	-2.133825	1.418452
C	-0.383477	-1.270701	-2.055937
N	-0.16461	-2.286502	-2.60303
N	-0.174029	1.099079	-2.282932
O	0.772651	1.794306	-1.932693
O	-0.800171	1.197621	-3.330878
Cl	-3.390763	0.0	0.0
