15

C	0.0	0.0	0.0
C	-0.199954	0.161933	-1.552804
F	1.378408	0.0	0.0
H	0.000951	-0.841765	-1.937376
N	-0.342549	1.209696	0.841181
O	-0.348746	2.282454	0.255038
O	-0.407722	1.014184	2.046208
C	-0.483909	-1.245556	0.570259
N	-0.473687	-2.339614	1.009721
C	0.823342	1.06826	-2.091534
N	1.621833	1.754219	-2.611059
N	-1.474086	0.5768	-2.287652
O	-1.761259	1.760775	-2.284484
O	-1.979662	-0.306739	-2.965762
Cl	-2.841349	0.0	0.0
