15

C	0.0	0.0	0.0
C	-0.269359	0.130123	-1.519574
F	1.356978	0.0	0.0
H	0.29532	1.01537	-1.813728
N	-0.360878	1.29372	0.727886
O	-0.393516	2.308335	0.04335
O	-0.413113	1.225182	1.946586
C	-0.484832	-1.170891	0.719047
N	-0.585869	-2.179355	1.319455
C	-1.578795	0.181526	-2.167826
N	-2.238158	0.248209	-3.146931
N	0.474691	-1.027248	-2.163135
O	0.032067	-2.149964	-1.959244
O	1.448707	-0.735698	-2.849739
Cl	-2.946393	0.0	0.0
