15

C	0.0	0.0	0.0
C	-0.18004	-0.357825	-1.521674
F	1.348617	0.0	0.0
H	0.232159	-1.369622	-1.566251
N	-0.393169	1.412508	0.382041
O	-0.336868	1.649337	1.581824
O	-0.567381	2.205306	-0.531055
C	-0.501888	-0.990308	0.94188
N	-0.517097	-1.869207	1.72686
C	0.688799	0.504408	-2.330093
N	1.416942	1.107595	-3.02615
N	-1.483878	-0.482441	-2.291565
O	-1.905878	0.516964	-2.848716
O	-1.888032	-1.630957	-2.411903
Cl	-2.943028	0.0	0.0
