14

C	0.0	0.0	0.0
C	-0.275779	0.110492	-1.508857
F	1.351876	0.0	0.0
H	0.3935	-0.620269	-1.965869
H	-0.432853	0.766402	0.63051
N	-0.379348	-1.347933	0.537347
O	-0.552956	-1.416326	1.747729
O	-0.328573	-2.290015	-0.250744
N	0.297616	1.453544	-1.93279
O	0.134494	2.40694	-1.179019
O	0.866314	1.480203	-3.018644
C	-1.561538	-0.02525	-2.197096
N	-2.17833	-0.130487	-3.200089
Br	-3.215201	0.0	0.0
