14

C	0.0	0.0	0.0
C	-0.185316	-0.003823	-1.549141
F	1.351966	0.0	0.0
H	0.465435	0.827451	-1.832901
H	-0.426951	0.860803	0.504334
N	-0.432217	-1.234865	0.73276
O	-0.662052	-2.246847	0.089466
O	-0.399546	-1.123575	1.953694
N	-1.454852	0.361523	-2.288964
O	-2.022511	-0.514698	-2.919428
O	-1.6955	1.560299	-2.296307
C	0.400616	-1.201981	-2.153091
N	0.965807	-2.07623	-2.695596
Br	-3.311103	0.0	0.0
