15
Coordinates from ORCA-job run
  C   -0.40801494545210      0.18868456647742     -0.27429403005728
  C   0.84912737140241     -0.64545979782065     -0.05954659457514
  Br  -0.37471231623396      0.95791068907163     -2.05706147032428
  H   0.75473716993468     -1.10125541486552      0.92875762826323
  H   0.84045598756097     -1.44849442494914     -0.80956283549968
  N   -0.37095073643632      1.30219048885664      0.77203830936220
  O   -0.37366246771752      0.87727758726670      1.92464748186121
  O   -0.35097904878068      2.47405925551341      0.43673060943404
  C   -1.69144824492571     -0.59548014401061     -0.08457341614859
  H   -1.71390587009710     -1.01062063214084      0.92426538899204
  H   -2.56077508364239      0.04813054780147     -0.22842653463495
  H   -1.73602161854474     -1.40597830473452     -0.81319170747042
  N   2.02597898357716      0.20318749616534     -0.06584037083733
  H   2.31993648974869      0.40483520465665     -1.01228945359020
  H   2.79023432960661     -0.24798711728797      0.41734699522515
