15
Coordinates from ORCA-job run
  C   -0.31550537901990      0.36775707710731     -0.22808116339101
  C   1.08616462366555     -0.06733914101846      0.18790176155503
  Br  -0.32944977938376      0.70018444333412     -2.15580178507667
  H   1.79760254229318      0.71843140379871     -0.08181732980394
  H   1.08219975249489     -0.14363042414523      1.27969011204704
  N   -0.64642318961396      1.71119907263596      0.41380971170873
  O   0.27413551933914      2.32552646941124      0.94786929691701
  O   -1.81247408565582      2.08182557302521      0.35518156252264
  C   -1.39481471698814     -0.62300711463110      0.13405316126261
  H   -1.42730888094772     -0.72548827324334      1.22360544435947
  H   -1.14094116867342     -1.58731431466330     -0.30086933534407
  H   -2.36706845451438     -0.28503160961001     -0.21757387554507
  N   1.37813547328245     -1.38099791458685     -0.37209820302367
  H   2.13475317856913     -1.80735340340175      0.14633664440209
  H   1.68099456515273     -1.28476184401251     -1.33320600259019
