19

C	0.0	0.0	0.0
C	-0.342727	-0.350738	-1.499996
Cl	1.805665	0.0	0.0
H	0.42404	0.149852	-2.103123
C	-0.44493	1.411549	0.338076
H	-0.067292	1.679079	1.326707
H	-0.065069	2.125046	-0.397958
H	-1.539138	1.424829	0.346225
N	-0.532122	-0.878568	1.002985
H	-0.358022	-1.842285	0.742514
H	-1.551629	-0.730992	0.971716
N	-1.633956	0.102372	-1.984192
H	-2.379402	-0.076788	-1.276997
H	-1.610854	1.113317	-2.071349
C	-0.237766	-1.851778	-1.750196
H	-0.294496	-2.029579	-2.826175
H	-1.088771	-2.361348	-1.291775
H	0.694074	-2.278628	-1.366362
H	-3.425041	0.0	0.0
