18

C	-0.589474	0.014332	-1.401345
C	0.0	0.0	0.0
Cl	0.216398	-1.228344	-2.410418
H	1.093275	0.0	0.0
C	-2.083957	-0.199191	-1.475143
H	-2.324078	-1.171811	-1.047443
H	-2.423949	-0.166726	-2.508392
H	-2.5898	0.581169	-0.900404
N	-0.267805	1.349014	-2.091494
O	0.638248	2.02515	-1.630553
O	-0.928433	1.617906	-3.09539
C	-0.331123	-1.283717	0.771196
H	-1.380695	-1.369063	1.062167
H	0.291485	-1.285709	1.668213
H	-0.039058	-2.152157	0.178499
C	-0.506493	1.145395	0.734459
N	-0.951086	2.056513	1.332079
H	2.659305	0.0	0.0
