18

C	-0.331987	0.001248	-1.481055
C	0.0	0.0	0.0
Cl	-0.033112	1.626763	-2.170205
H	1.097181	0.0	0.0
C	0.508695	-1.009274	-2.229504
H	1.54392	-0.852206	-1.89916
H	0.193693	-2.024094	-1.973914
H	0.41022	-0.875841	-3.30512
N	-1.825369	-0.253665	-1.749802
O	-2.628206	0.122163	-0.900265
O	-2.1247	-0.805576	-2.807157
C	-0.382522	-1.300178	0.712625
H	-1.461055	-1.472844	0.736071
H	0.124966	-2.145928	0.244225
H	-0.013417	-1.24088	1.739615
C	-0.494782	1.152725	0.731825
N	-0.841814	2.058163	1.398169
H	2.691597	0.0	0.0
