18

C	-0.380764	0.146015	-1.465645
C	0.0	0.0	0.0
Cl	-2.16173	0.352871	-1.721398
H	1.105921	0.0	0.0
C	0.369526	1.290348	-2.10149
H	1.430418	1.163847	-1.857415
H	0.008416	2.22629	-1.672936
H	0.218336	1.30617	-3.181927
N	-0.002522	-1.160486	-2.16852
O	1.077111	-1.173015	-2.752813
O	-0.761931	-2.118543	-2.056278
C	-0.471002	-1.259642	0.717108
H	0.047788	-2.129849	0.312643
H	-1.549544	-1.412398	0.635243
H	-0.196298	-1.175331	1.771051
C	-0.42449	1.195472	0.703827
N	-0.750919	2.158102	1.295198
H	2.652688	0.0	0.0
