18

C	-0.542759	-0.04121	-1.419976
C	0.0	0.0	0.0
Cl	0.236601	-1.374316	-2.328208
H	1.102883	0.0	0.0
C	-2.045842	-0.183983	-1.545532
H	-2.335783	-0.202253	-2.594961
H	-2.533991	0.657635	-1.045764
H	-2.359543	-1.113192	-1.06964
N	-0.142707	1.240566	-2.169612
O	0.636118	2.009009	-1.621136
O	-0.638313	1.393455	-3.285291
C	-0.345749	-1.255444	0.809251
H	0.017888	-2.140422	0.285369
H	0.203696	-1.191974	1.751709
H	-1.412211	-1.362306	1.026635
C	-0.526704	1.165052	0.687973
N	-0.987603	2.067636	1.287202
H	2.661569	0.0	0.0
