18

C	-0.333367	0.011929	-1.478979
C	0.0	0.0	0.0
Cl	0.009637	1.630504	-2.160679
H	1.097145	0.0	0.0
C	0.47752	-1.018848	-2.230268
H	1.516595	-0.895703	-1.89654
H	0.131665	-2.023889	-1.980842
H	0.383129	-0.875834	-3.30481
N	-1.831778	-0.20448	-1.759228
O	-2.626188	0.063974	-0.861863
O	-2.140045	-0.620389	-2.874454
C	-0.360437	-1.310056	0.705336
H	-0.02865	-1.23361	1.743291
H	0.200186	-2.133531	0.258883
H	-1.430868	-1.527859	0.691962
C	-0.501063	1.145411	0.737513
N	-0.845398	2.055387	1.398086
H	2.685444	0.0	0.0
