18

C	-0.565377	-0.132853	-1.415103
C	0.0	0.0	0.0
Cl	0.145375	-1.548786	-2.2269
H	1.097818	0.0	0.0
C	-2.075586	-0.235913	-1.494049
H	-2.537995	0.602587	-0.973886
H	-2.388481	-1.172511	-1.032125
H	-2.402812	-0.234628	-2.535798
N	-0.120129	1.109413	-2.204204
O	-0.925304	2.042126	-2.206748
O	0.989604	1.119581	-2.713943
C	-0.357258	-1.182517	0.905778
H	0.212979	-1.06354	1.830642
H	-0.025461	-2.112213	0.44096
H	-1.42224	-1.244698	1.146667
C	-0.475913	1.230255	0.607979
N	-0.851521	2.202985	1.15402
H	2.664105	0.0	0.0
