18

C	-0.41596	0.095882	-1.458672
C	0.0	0.0	0.0
Cl	-0.076723	1.723652	-2.087902
H	1.106463	0.0	0.0
C	0.311764	-0.915171	-2.316417
H	0.066569	-0.769037	-3.369857
H	0.043786	-1.93006	-2.033044
H	1.380515	-0.758758	-2.139006
N	-1.933442	-0.106478	-1.534535
O	-2.663903	0.825422	-1.218671
O	-2.316906	-1.246403	-1.806707
C	-0.40814	-1.311259	0.676725
H	-1.488385	-1.400408	0.825065
H	0.088291	-1.34368	1.649755
H	-0.051	-2.1682	0.104677
C	-0.451134	1.122133	0.806484
N	-0.753812	1.992775	1.536858
H	2.651857	0.0	0.0
