16

C	-0.381678	-0.237443	-1.473833
C	0.0	0.0	0.0
Br	0.250782	1.313217	-2.511795
H	1.109448	0.0	0.0
C	0.393885	-1.393352	-1.931167
N	0.892411	-2.373712	-2.346361
C	-1.853487	-0.472206	-1.805528
H	-1.960126	-0.689334	-2.870095
H	-2.213239	-1.328062	-1.227645
H	-2.439846	0.40556	-1.545497
C	-0.547215	-1.050923	0.829486
N	-0.972719	-1.927359	1.490647
N	-0.528871	1.309409	0.506024
O	-1.72941	1.552767	0.350197
O	0.267963	2.055327	1.063668
F	2.454388	0.0	0.0
