16

C	-0.236836	0.069096	-1.497972
C	0.0	0.0	0.0
Br	-2.172763	0.091163	-1.957658
H	1.10819	0.0	0.0
C	0.350765	1.262355	-2.108711
N	0.835292	2.130036	-2.736544
C	0.42592	-1.156303	-2.129533
H	-0.073216	-2.068781	-1.800218
H	0.384488	-1.091044	-3.217456
H	1.461634	-1.143094	-1.773965
C	-0.497787	-1.224106	0.582961
N	-0.863203	-2.256082	1.013178
N	-0.47653	1.164741	0.769198
O	-0.588643	2.235711	0.175345
O	-0.666719	1.001701	1.97337
F	2.44746	0.0	0.0
