16

C	-0.472754	0.029756	-1.462141
C	0.0	0.0	0.0
Br	0.564408	1.321283	-2.532142
H	1.091926	0.0	0.0
C	-0.162489	-1.274713	-2.051768
N	-0.006075	-2.319056	-2.569523
C	-1.962169	0.315477	-1.647616
H	-2.233588	0.230423	-2.701132
H	-2.187904	1.321067	-1.298543
H	-2.535969	-0.416492	-1.071729
C	-0.501681	-1.188077	0.659034
N	-0.902576	-2.183597	1.142453
N	-0.400477	1.185499	0.789795
O	-0.425065	1.053867	2.012823
O	-0.601237	2.246614	0.196581
F	2.419858	0.0	0.0
