16

C	-0.243047	-0.052725	-1.49745
C	0.0	0.0	0.0
Br	-2.184037	-0.01604	-1.945725
H	1.104096	0.0	0.0
C	0.37021	1.066102	-2.212879
N	0.86666	1.860421	-2.922838
C	0.378881	-1.344992	-2.026686
H	1.417588	-1.331674	-1.680884
H	-0.143233	-2.211282	-1.618994
H	0.330796	-1.370735	-3.115664
C	-0.51136	-1.16163	0.687993
N	-0.889787	-2.145617	1.209433
N	-0.462476	1.234654	0.665222
O	-0.513807	2.260208	-0.011899
O	-0.700883	1.171286	1.869894
F	2.448025	0.0	0.0
