16

C	-0.263254	-0.058094	-1.492235
C	0.0	0.0	0.0
Br	-2.204876	-0.151279	-1.919894
H	1.115598	0.0	0.0
C	0.263746	1.107653	-2.202381
N	0.704559	1.948218	-2.89586
C	0.438482	-1.303045	-2.038742
H	1.478394	-1.223931	-1.705959
H	0.37299	-1.328411	-3.12697
H	-0.016987	-2.204074	-1.626026
C	-0.464923	-1.178849	0.693704
N	-0.800686	-2.176339	1.218815
N	-0.476477	1.214686	0.686756
O	-0.716113	2.209509	0.003696
O	-0.540356	1.168511	1.914453
F	2.447329	0.0	0.0
