16

C	-0.310991	0.111939	-1.506313
C	0.0	0.0	0.0
Br	0.109981	-1.662473	-2.268761
H	1.115826	0.0	0.0
C	-1.726947	0.331456	-1.793224
N	-2.872788	0.474157	-2.018711
C	0.628365	1.111806	-2.178842
H	1.624519	0.892698	-1.788367
H	0.589207	0.999988	-3.262147
H	0.339442	2.123513	-1.902851
C	-0.57546	-1.147658	0.664052
N	-1.047817	-2.072918	1.215986
N	-0.405457	1.218618	0.753033
O	-0.28484	1.172149	1.972119
O	-0.785524	2.208854	0.122685
F	2.47844	0.0	0.0
