14

C	0.0	0.0	0.0
C	-0.550929	-0.410077	-1.373035
Cl	1.781647	0.0	0.0
H	-0.162964	0.322497	-2.091288
H	-0.333852	1.015554	0.221289
C	-0.446932	-0.900543	1.062237
N	-0.751613	-1.627697	1.932593
C	-2.081801	-0.397232	-1.366055
H	-2.480146	0.566015	-1.047178
H	-2.466824	-0.606781	-2.365503
H	-2.50383	-1.132934	-0.682868
C	-0.02218	-1.720049	-1.762574
N	0.383407	-2.770479	-2.095162
Cl	-5.065733	0.0	0.0
