14

C	0.0	0.0	0.0
C	-0.388053	0.090274	-1.519812
Cl	1.785549	0.0	0.0
H	0.539987	-0.100512	-2.067883
H	-0.373682	0.860594	0.549259
C	-0.41001	-1.240192	0.653638
N	-0.535599	-2.270963	1.203351
C	-0.853924	1.498557	-1.885451
H	-0.97469	1.583065	-2.967885
H	-1.805067	1.691725	-1.394496
H	-0.100246	2.224622	-1.565594
C	-1.278269	-0.961973	-2.022203
N	-1.746543	-1.836923	-2.653303
Cl	-3.082524	0.0	0.0
