14

C	0.0	0.0	0.0
C	-0.563011	-0.079683	-1.425941
Cl	1.782666	0.0	0.0
H	-1.651253	0.053193	-1.273571
H	-0.341084	0.922188	0.47155
C	-0.420641	-1.13921	0.818684
N	-0.636939	-2.04663	1.531941
C	-0.304416	-1.419862	-2.108833
H	-0.728041	-1.406024	-3.115031
H	-0.802604	-2.209215	-1.543127
H	0.763157	-1.640025	-2.18048
C	-0.053796	1.033404	-2.221661
N	0.350231	1.913064	-2.888015
Cl	-3.434183	0.0	0.0
