14

C	0.0	0.0	0.0
C	-0.556531	-0.279371	-1.40405
Cl	1.781949	0.0	0.0
H	-0.224493	0.552251	-2.036804
H	-0.335915	0.986775	0.323335
C	-0.433804	-1.013005	0.96346
N	-0.715	-1.886417	1.696516
C	-2.086318	-0.359367	-1.381822
H	-2.545875	0.49345	-0.882135
H	-2.443612	-1.242291	-0.854721
H	-2.470116	-0.390667	-2.401784
C	0.033107	-1.500732	-1.960681
N	0.492239	-2.452295	-2.472891
Cl	-5.081597	0.0	0.0
