15

C	0.0	0.0	0.0
C	-0.322636	-0.108252	-1.557204
Br	1.922378	0.0	0.0
H	0.550016	0.324079	-2.054832
H	-0.379584	-0.818292	0.597481
N	-0.395223	1.277819	0.667995
O	-0.571666	1.246357	1.879776
O	-0.416684	2.291351	-0.025484
N	-1.484683	0.508155	-2.136399
H	-1.369076	1.51284	-2.039532
H	-2.24067	0.270411	-1.454852
N	-0.305543	-1.554821	-1.785331
H	-1.230964	-1.859443	-1.508573
H	-0.254237	-1.675587	-2.788728
H	-2.634413	0.0	0.0
