15

C	0.0	0.0	0.0
C	-0.277459	-0.133303	-1.548051
Br	1.933046	0.0	0.0
H	0.574271	0.342805	-2.048931
H	-0.382354	-0.822885	0.585539
N	-0.375531	1.278316	0.677388
O	-0.530799	1.216408	1.896049
O	-0.354458	2.307082	0.008728
N	-1.453035	0.498205	-2.065459
H	-1.633941	0.146261	-3.008173
H	-2.214364	0.26584	-1.384548
N	-0.243065	-1.60343	-1.771541
H	-0.492419	-1.755659	-2.747144
H	0.713361	-1.930526	-1.660182
H	-2.671559	0.0	0.0
