14

C	0.0	0.0	0.0
C	-0.343919	-0.027652	-1.493332
F	1.3567	0.0	0.0
H	0.317665	-0.746765	-1.976923
H	-1.385468	-0.268557	-1.65221
C	-0.599884	1.068506	0.788071
N	-0.576897	2.020354	1.496981
N	-0.407153	-1.329249	0.604224
O	-0.425657	-1.399624	1.832652
O	-0.41929	-2.294678	-0.166839
N	-0.082246	1.280274	-2.159893
O	0.581548	2.138353	-1.58454
O	-0.54443	1.389525	-3.295586
H	-2.242969	0.0	0.0
