14

C	0.0	0.0	0.0
C	-0.507415	-0.04194	-1.414812
F	1.347481	0.0	0.0
H	-1.645249	-0.102173	-1.246234
H	-0.215764	0.882669	-1.91681
C	-0.513187	1.151827	0.727333
N	-0.801342	2.202074	1.212261
N	-0.292136	-1.321837	0.797628
O	-1.232565	-2.025345	0.486692
O	0.523594	-1.533916	1.69073
N	0.062364	-1.133747	-2.20475
O	0.002414	-1.004728	-3.434381
O	0.514457	-2.13368	-1.633519
H	-2.661349	0.0	0.0
