15

C	-0.593589	0.147736	-1.393276
C	0.0	0.0	0.0
Cl	0.191646	-1.082169	-2.481947
H	1.092207	0.0	0.0
H	-0.31599	1.109775	-1.814075
N	-2.011446	0.010231	-1.326158
H	-2.421707	0.117643	-2.244952
H	-2.213275	-0.929604	-1.001349
N	-0.49467	-1.160755	0.667715
H	0.224422	-1.509542	1.289318
H	-1.304672	-0.91644	1.225033
N	-0.391363	1.286677	0.734234
O	-0.985842	1.192429	1.807265
O	-0.077934	2.345849	0.201152
Cl	3.316418	0.0	0.0
