15

C	-0.523049	-0.072775	-1.421176
C	0.0	0.0	0.0
Cl	0.015548	1.415022	-2.330283
H	1.096247	0.0	0.0
H	-1.611188	-0.022848	-1.427071
N	-0.063262	-1.290593	-2.000996
H	0.953647	-1.307997	-1.994428
H	-0.392817	-1.380547	-2.953348
N	-0.533057	-1.110445	0.776773
H	0.185188	-1.377156	1.44089
H	-0.650704	-1.888427	0.137971
N	-0.510866	1.241183	0.676218
O	-1.627575	1.651636	0.359697
O	0.186535	1.710469	1.569977
Cl	3.369726	0.0	0.0
