15

C	-0.399144	-0.172261	-1.466355
C	0.0	0.0	0.0
Cl	-0.170114	1.424471	-2.367436
H	1.08938	0.0	0.0
H	-1.468342	-0.367031	-1.5691
N	0.385501	-1.232882	-1.980307
H	0.236646	-1.362623	-2.971466
H	1.372664	-1.05244	-1.801354
N	-0.455692	-1.072787	0.842704
H	0.248356	-1.797292	0.83824
H	-1.331978	-1.455291	0.51127
N	-0.601372	1.258421	0.532767
O	-1.834986	1.287881	0.517966
O	0.124482	2.146601	0.958223
Cl	3.352439	0.0	0.0
