15

C	-0.590706	0.096199	-1.400362
C	0.0	0.0	0.0
Cl	0.053907	-1.356904	-2.328003
H	1.097003	0.0	0.0
H	-0.191643	0.954831	-1.93465
N	-2.003162	0.130309	-1.308688
H	-2.441766	0.094005	-2.217794
H	-2.30011	-0.657851	-0.738333
N	-0.575159	-1.132842	0.706394
H	-0.601897	-0.893022	1.691643
H	0.083402	-1.900302	0.593607
N	-0.391629	1.273443	0.707529
O	-0.192035	2.321422	0.103088
O	-0.842117	1.195859	1.851437
Cl	3.342832	0.0	0.0
