15

C	-0.610651	0.016638	-1.4064
C	0.0	0.0	0.0
Cl	0.02989	-1.400277	-2.284394
H	1.089309	0.0	0.0
H	-0.265935	0.896602	-1.94458
N	-2.051792	-0.037383	-1.420697
H	-2.425924	0.850432	-1.104107
H	-2.334841	-0.768519	-0.775751
N	-0.509	-1.097131	0.777818
H	-1.095294	-0.738491	1.520913
H	0.278736	-1.57182	1.200206
N	-0.400663	1.33064	0.614353
O	-0.120665	2.339597	-0.027094
O	-1.004964	1.339027	1.689249
Cl	3.299649	0.0	0.0
