15

C	-0.494563	0.031448	-1.451474
C	0.0	0.0	0.0
Cl	0.021386	-1.538449	-2.241726
H	1.090255	0.0	0.0
H	0.05208	0.803736	-1.987565
N	-1.894351	0.270249	-1.542743
H	-2.18054	0.365969	-2.507987
H	-2.422197	-0.489602	-1.131566
N	-0.440483	-1.053823	0.846169
H	0.2154	-1.819196	0.79157
H	-1.383849	-1.370273	0.674323
N	-0.46165	1.335254	0.550584
O	0.02736	2.330259	0.021809
O	-1.318773	1.34912	1.428105
Cl	3.336607	0.0	0.0
