15

C	-0.496242	0.103761	-1.448172
C	0.0	0.0	0.0
Cl	-0.390955	1.779463	-2.060953
H	1.096741	0.0	0.0
H	-1.554698	-0.16815	-1.480814
N	0.257661	-0.768649	-2.313705
H	0.149623	-1.702558	-1.928486
H	1.243624	-0.530987	-2.206192
N	-0.441327	-1.27058	0.507332
H	-1.388006	-1.195177	0.860009
H	0.181535	-1.572614	1.245399
N	-0.549355	1.139199	0.81983
O	-1.749713	1.055802	1.112692
O	0.181748	2.07555	1.115455
Cl	3.34725	0.0	0.0
