15

C	-0.526746	-0.124625	-1.425397
C	0.0	0.0	0.0
Cl	0.126955	-1.635088	-2.125809
H	1.094976	0.0	0.0
H	-0.119337	0.679209	-2.040649
N	-1.976772	-0.227964	-1.4314
H	-2.291779	-0.45247	-2.367361
H	-2.334015	0.689909	-1.188699
N	-0.508417	-0.980515	0.898238
H	-1.284425	-1.474085	0.478068
H	0.228941	-1.612481	1.170398
N	-0.384549	1.383281	0.526938
O	-0.108628	1.627465	1.69016
O	-0.925007	2.186777	-0.247972
Cl	3.319792	0.0	0.0
