15

C	-0.603957	0.011583	-1.396779
C	0.0	0.0	0.0
Cl	0.169694	-1.335221	-2.353646
H	1.089897	0.0	0.0
H	-0.323354	0.920581	-1.921278
N	-2.0184	-0.111243	-1.294333
H	-2.21947	-0.995274	-0.839129
H	-2.44663	-0.110511	-2.210531
N	-0.495223	-1.101201	0.775961
H	-1.171459	-0.759825	1.447938
H	0.281238	-1.503894	1.285135
N	-0.393681	1.33767	0.617934
O	-0.117201	2.343744	-0.025202
O	-0.952255	1.340918	1.714631
Cl	3.308074	0.0	0.0
