15

C	-0.406815	-0.071461	-1.471877
C	0.0	0.0	0.0
Cl	-0.204365	1.585633	-2.260903
H	1.091619	0.0	0.0
H	-1.475515	-0.270066	-1.57897
N	0.381653	-1.086532	-2.065392
H	0.218099	-1.153672	-3.059902
H	1.369375	-0.909441	-1.888432
N	-0.451326	-1.129393	0.768716
H	-1.319449	-1.499681	0.403416
H	0.261483	-1.844989	0.726145
N	-0.599262	1.218443	0.62115
O	-1.832601	1.2483	0.61605
O	0.129145	2.075897	1.101087
Cl	3.3509	0.0	0.0
