15

C	-0.477489	-0.009415	-1.448548
C	0.0	0.0	0.0
Cl	-2.416437	0.047744	-1.360122
H	1.094695	0.0	0.0
H	-0.342585	-1.018622	-1.833218
N	0.075948	0.933043	-2.290918
H	-0.253659	0.896584	-3.241493
H	0.113766	1.860102	-1.898605
N	-0.421793	-1.10703	0.776308
H	-1.324353	-1.47581	0.513771
H	0.299895	-1.812075	0.807759
N	-0.443891	1.300754	0.657866
O	-1.076341	1.262382	1.702095
O	-0.122367	2.340004	0.075386
Cl	3.308985	0.0	0.0
