15

C	0.0	0.0	0.0
C	-0.333469	-0.149298	-1.536713
Br	2.027402	0.0	0.0
H	0.599642	-0.272397	-2.090725
H	-0.262715	-0.93003	0.503046
N	-0.538093	1.083282	0.726772
H	-1.537269	0.881477	0.84815
H	-0.46302	1.943868	0.195815
C	-0.905251	1.093977	-2.058632
N	-1.263153	2.104255	-2.538055
C	-1.200432	-1.378745	-1.82377
H	-0.655445	-2.271524	-1.500795
H	-2.150606	-1.299539	-1.297764
H	-1.385906	-1.460694	-2.898257
Cl	-3.658297	0.0	0.0
