15

C	0.0	0.0	0.0
C	-0.408105	0.005975	-1.510392
Br	1.955985	0.0	0.0
H	0.500148	0.187041	-2.09126
H	-0.264885	-0.965536	0.442171
N	-0.485663	1.152246	0.693178
H	-0.263628	1.067911	1.679974
H	-1.50944	1.112348	0.605067
C	-1.277936	1.121941	-1.900193
N	-1.85599	2.002248	-2.420612
C	-0.97611	-1.346185	-1.940986
H	-1.916011	-1.528782	-1.41918
H	-1.153848	-1.354781	-3.019637
H	-0.2524	-2.132482	-1.704506
Cl	-3.504768	0.0	0.0
