15

C	0.0	0.0	0.0
C	-0.34827	0.248348	-1.494547
Br	1.966579	0.0	0.0
H	0.292881	-0.406155	-2.094547
H	-0.28314	-1.024249	0.247088
N	-0.564545	0.880859	0.958753
H	-0.497947	1.846063	0.655824
H	-1.545707	0.642904	1.093052
C	0.002111	1.627158	-1.847154
N	0.245504	2.743968	-2.118246
C	-1.809525	-0.039741	-1.823996
H	-2.511412	0.575892	-1.266431
H	-1.977202	0.107627	-2.894171
H	-2.055103	-1.072386	-1.571312
Cl	-4.53859	0.0	0.0
