15

C	0.0	0.0	0.0
C	-0.509825	0.0168	-1.459245
Br	1.955974	0.0	0.0
H	-1.596275	-0.123446	-1.337646
H	-0.282483	-0.957978	0.438548
N	-0.500059	1.037036	0.848298
H	-0.325644	1.944677	0.433009
H	-1.51438	0.893733	0.894277
C	0.012337	-1.114154	-2.22215
N	0.423481	-2.012422	-2.858652
C	-0.261763	1.328625	-2.201469
H	-0.796341	2.13952	-1.703942
H	-0.650532	1.258584	-3.219211
H	0.803731	1.565797	-2.248881
Cl	-3.549807	0.0	0.0
