15

C	0.0	0.0	0.0
C	-0.540845	0.000356	-1.415697
Cl	1.801425	0.0	0.0
H	-1.632688	0.095609	-1.281605
H	-0.290026	-0.930659	0.492688
H	-0.164547	0.891839	-1.935827
C	-0.519191	1.176822	0.795822
H	-0.220032	2.117666	0.322443
H	-1.615761	1.085376	0.793454
H	-0.139963	1.163937	1.821395
C	-0.227504	-1.264139	-2.204273
H	-0.712017	-2.123121	-1.732256
H	-0.617035	-1.188641	-3.223275
H	0.846399	-1.459605	-2.264018
H	-3.424994	0.0	0.0
