17

C	-0.529068	-0.029381	-1.430111
C	0.0	0.0	0.0
Cl	-0.08342	1.476494	-2.330676
H	1.095231	0.0	0.0
H	0.002467	-0.831831	-1.945806
C	-2.029442	-0.228148	-1.547434
H	-2.298079	-1.138141	-1.006113
H	-2.571095	0.621583	-1.124073
H	-2.329683	-0.330919	-2.593441
N	-0.35903	-1.30901	0.590325
H	0.499596	-1.690402	0.977794
H	-1.01285	-1.18326	1.355253
C	-0.491735	1.165162	0.840802
H	-0.265002	2.123232	0.368613
H	0.030427	1.137583	1.801831
H	-1.572866	1.116477	1.030801
H	2.957967	0.0	0.0
