17

C	-0.452712	-0.018841	-1.462786
C	0.0	0.0	0.0
Cl	0.084401	1.469002	-2.332675
H	1.095622	0.0	0.0
H	0.089482	-0.830011	-1.955707
C	-1.949883	-0.155679	-1.697757
H	-2.483836	0.697376	-1.277842
H	-2.333655	-1.069576	-1.239518
H	-2.171893	-0.202487	-2.765872
N	-0.323094	-1.269387	0.664789
H	0.409046	-1.933024	0.441884
H	-1.218389	-1.647411	0.377938
C	-0.548058	1.156225	0.815374
H	-1.626997	1.06247	0.987218
H	-0.049571	1.139565	1.7854
H	-0.345794	2.117399	0.339057
H	2.975216	0.0	0.0
