15

C	0.0	0.0	0.0
C	-0.468135	-0.126931	-1.451804
Br	1.968751	0.0	0.0
H	-0.000149	-1.034592	-1.845174
H	-1.549076	-0.285234	-1.394331
C	-0.326361	1.330113	0.554604
N	-0.527232	2.398999	1.002256
N	-0.503464	-1.100814	0.766835
H	-1.526333	-1.051505	0.659625
H	-0.293462	-0.954634	1.74923
C	-0.185755	1.085545	-2.326255
H	0.872614	1.358858	-2.332781
H	-0.768614	1.943323	-1.983783
H	-0.487797	0.872135	-3.355758
Cl	-3.562904	0.0	0.0
