15

C	0.0	0.0	0.0
C	-0.343142	-0.398245	-1.44265
Br	2.040291	0.0	0.0
H	0.314864	0.155133	-2.116266
H	-0.069421	-1.45692	-1.53766
C	-0.293743	1.413713	0.245833
N	-0.51325	2.551721	0.439108
N	-0.569717	-0.833707	0.980915
H	-1.039225	-1.627458	0.567207
H	-1.205899	-0.350234	1.600086
C	-1.802457	-0.156003	-1.801619
H	-1.992383	-0.544125	-2.806415
H	-2.033855	0.910675	-1.805094
H	-2.523893	-0.603632	-1.118823
Cl	-4.695134	0.0	0.0
