15

C	0.0	0.0	0.0
C	-0.518766	0.12988	-1.425144
Br	2.047586	0.0	0.0
H	-0.040769	0.997567	-1.885163
H	-1.59195	0.325491	-1.287078
C	-0.271281	1.223178	0.766116
N	-0.433301	2.201908	1.394974
N	-0.514824	-1.100761	0.658092
H	-0.356649	-1.161542	1.648882
H	-0.483416	-1.976745	0.167816
C	-0.325724	-1.11997	-2.271769
H	-0.985245	-1.922714	-1.933806
H	0.712609	-1.465065	-2.263264
H	-0.604603	-0.904121	-3.305921
Cl	-3.828932	0.0	0.0
