15

C	0.0	0.0	0.0
C	-0.285872	-0.742184	-1.331975
Br	1.982135	0.0	0.0
H	0.193381	-1.721636	-1.220661
H	0.276226	-0.222735	-2.112289
C	-0.372492	1.414488	-0.110868
N	-0.627011	2.551115	-0.259398
N	-0.556399	-0.563317	1.186322
H	-1.542179	-0.304493	1.245227
H	-0.500514	-1.574526	1.134408
C	-1.7611	-0.878896	-1.709574
H	-2.090806	-1.918641	-1.667979
H	-2.447356	-0.333892	-1.05975
H	-1.928124	-0.509422	-2.722968
Cl	-4.501208	0.0	0.0
