15

C	0.0	0.0	0.0
C	-0.384204	-0.380929	-1.444093
Br	1.966043	0.0	0.0
H	-0.203702	-1.458628	-1.509982
H	0.327096	0.110415	-2.11149
C	-0.324123	1.413878	0.278523
N	-0.575708	2.53261	0.539503
N	-0.544222	-0.926398	0.944374
H	-0.42458	-0.588446	1.892907
H	-1.545342	-1.007968	0.763677
C	-1.801327	-0.012684	-1.862542
H	-2.594355	-0.416522	-1.232036
H	-1.975723	-0.36421	-2.883864
H	-1.938624	1.070467	-1.852388
Cl	-4.655538	0.0	0.0
