15

C	0.0	0.0	0.0
C	-0.436409	0.252545	-1.449227
Br	1.976077	0.0	0.0
H	0.048015	-0.515578	-2.062889
H	-1.514139	0.073471	-1.447279
C	-0.36592	1.125099	0.872553
N	-0.587838	2.034154	1.582619
N	-0.479771	-1.224819	0.582002
H	-1.497344	-1.091851	0.647589
H	-0.321646	-1.966739	-0.093522
C	-0.150292	1.649773	-1.982849
H	-0.759475	2.381591	-1.450292
H	0.900151	1.925081	-1.87791
H	-0.415351	1.705709	-3.04142
Cl	-3.540174	0.0	0.0
