14

C	0.0	0.0	0.0
C	-0.461472	0.01452	-1.457875
Br	1.960316	0.0	0.0
H	-1.566735	-0.036306	-1.391652
H	-0.077464	-0.877556	-1.958311
N	-0.442592	1.220228	0.622931
H	-0.144863	1.219358	1.594659
H	-1.474187	1.13416	0.60089
N	-0.439873	-1.256715	0.561643
H	-1.470424	-1.156904	0.569104
H	-0.121717	-1.30475	1.52613
C	-0.063054	1.204809	-2.198061
N	0.21175	2.131426	-2.864995
H	-3.015679	0.0	0.0
