14

C	0.0	0.0	0.0
C	-0.495697	-0.08944	-1.442927
Br	2.038709	0.0	0.0
H	-0.201661	0.801288	-2.004339
H	-1.608679	-0.091361	-1.265457
N	-0.535957	1.117749	0.690795
H	-1.575057	0.92397	0.620704
H	-0.33209	1.965391	0.170814
N	-0.408921	-1.154491	0.691655
H	0.007031	-2.002764	0.335746
H	-0.254515	-1.044337	1.683089
C	-0.083744	-1.292048	-2.148975
N	0.236492	-2.281107	-2.697619
H	-3.025951	0.0	0.0
