14

C	0.0	0.0	0.0
C	-0.464716	0.061542	-1.464828
Br	1.971968	0.0	0.0
H	-0.115793	-0.817993	-2.009821
H	-1.571058	0.036359	-1.367329
N	-0.440074	1.115377	0.79691
H	-1.471229	1.039506	0.747037
H	-0.156177	1.991663	0.367815
N	-0.498088	-1.236522	0.519027
H	-1.528233	-1.128651	0.409049
H	-0.31971	-1.221414	1.519726
C	-0.0622	1.279093	-2.149808
N	0.256144	2.272492	-2.69039
H	-2.981136	0.0	0.0
