14

C	0.0	0.0	0.0
C	-0.46402	-0.03284	-1.466001
Br	1.971966	0.0	0.0
H	-1.569885	-0.004447	-1.371087
H	-0.110504	0.855213	-1.993621
N	-0.494357	1.228151	0.542677
H	-0.31743	1.193673	1.543629
H	-1.525147	1.127479	0.433476
N	-0.437908	-1.131515	0.776147
H	-0.1572	-1.999972	0.328591
H	-1.468541	-1.057854	0.731699
C	-0.065892	-1.239696	-2.171498
N	0.247679	-2.226646	-2.726558
H	-2.989193	0.0	0.0
