15
Coordinates from ORCA-job run
  C   -0.45509449136008      0.37267741574129      0.35585280560714
  C   0.34558430078620     -0.84458649976218      0.77723281338693
  Cl  -1.31704150447796      0.92075163228219      1.81839973359430
  H   -0.31996086538712     -1.64953186770795      1.08734275094960
  H   1.02878448486006     -0.59168928819741      1.58598142729693
  C   0.36041669839444      1.50611620564026     -0.21402067984737
  H   0.81436133285002      1.20730692040331     -1.15815745019645
  H   -0.27352439001694      2.37192559971054     -0.39233356134496
  H   1.13782812039678      1.77709145859838      0.50281862027316
  N   -1.55321726427324     -0.05692707949487     -0.62251684641242
  O   -2.08886274982334     -1.13444151653932     -0.40010137028321
  O   -1.83561285286390      0.72698969564002     -1.51774099877366
  N   1.18299021088019     -1.38829313314594     -0.33567134551660
  O   0.75696755304338     -1.25369318801977     -1.48059161574442
  O   2.21438141699152     -1.96469635514854     -0.00949428298897
