15
Coordinates from ORCA-job run
  C   -0.33869945748607      0.26479562030005      0.27801385520901
  C   0.95759041417843     -0.48510620527568      0.04887049061943
  Cl  -1.04651683988797     -0.20568893512263      1.82027076851427
  H   1.69579277819782     -0.19917135598530      0.79568756909548
  H   1.32771779022388     -0.28757998857613     -0.95775590735085
  C   -0.10813699354309      1.76604102272013      0.24508884411299
  H   -1.06007855638273      2.28360918441835      0.37410550013379
  H   0.33226121913384      2.05354077921193     -0.71080183111696
  H   0.55695784290376      2.05512970703835      1.05942797732163
  N   -1.31292896749945     -0.04006086768599     -0.87160326857090
  O   -2.47384992923364     -0.30466206068759     -0.61746729752464
  O   -0.81405411338597      0.09494238803707     -1.98387251779805
  N   0.79474129970653     -1.96580319741433      0.15792771228850
  O   -0.21425838365654     -2.44984884971368     -0.34488762887580
  O   1.70246189673119     -2.58013724126456      0.70799573394211
