15
Coordinates from ORCA-job run
  C   -0.46544737700384      0.22397569833753      0.17949691061421
  C   0.25776421277391     -1.10851039916444      0.02078050915463
  Cl  -0.89167651691965      0.47421774887014      1.88309057242925
  H   -0.31825234294678     -1.91857477611431      0.45839915621933
  H   0.46466701886965     -1.29867628552492     -1.03128920957680
  C   0.26130755556644      1.43122201628569     -0.36607882622116
  H   -0.37465944161518      2.30822387399072     -0.25973489723892
  H   1.19125220822272      1.58853672244200      0.17633984469009
  H   0.49584972612973      1.27630955208238     -1.42220212347757
  N   -1.79429403274573      0.10050561070756     -0.58584597110370
  O   -2.05005639012536     -0.98433438601581     -1.10093524553655
  O   -2.48925216268677      1.10444916611804     -0.63020419021358
  N   1.57377412834458     -1.07262178491548      0.72162200226180
  O   1.64684606488776     -1.63628972477961      1.80996365766884
  O   2.49017734924853     -0.48643303231949      0.14659781033014
