15
Coordinates from ORCA-job run
  C   -0.46272928678580      0.15696718973863      0.24406762644155
  C   0.31885161485533     -1.07444133459242     -0.19926876132654
  Cl  -0.78229252604474      0.06676789662923      1.98663310848318
  H   -0.18218777343115     -1.98593696518656      0.11317671788455
  H   0.46350426311410     -1.05689517579036     -1.27842653380691
  C   0.15724226083179      1.48826959656827     -0.11152064923449
  H   1.11348397816970      1.60636331105847      0.39378880144046
  H   0.32416228814183      1.54220872102503     -1.19026636224383
  H   -0.51644461718274      2.28753435786632      0.19221651270497
  N   -1.83319918643246      0.08639749712547     -0.45173819557421
  O   -2.06393789670185     -0.90038220405439     -1.14504075143538
  O   -2.58364014414348      1.03270548278468     -0.26695554125366
  N   1.67559162473210     -1.08050585563933      0.42015034932865
  O   2.51697124191810     -0.33854346659429     -0.08544700526241
  O   1.85362415895927     -1.82950905093874      1.37663068385409
