15
Coordinates from ORCA-job run
  C   -0.44622107059810      0.23241288684174      0.21339070385044
  C   0.23671490999859     -1.11341204037773     -0.00198019642365
  Cl  -0.74212165029747      0.48267066792368      1.94430576153668
  H   0.36390635564199     -1.30156647872080     -1.06699753163692
  H   -0.32343907343970     -1.91390656831291      0.47225056514390
  C   0.26301909052587      1.42759769990568     -0.37982683188251
  H   -0.34592383857576      2.31642860695479     -0.22457583734258
  H   1.23310524723428      1.56387854593009      0.09352885409377
  H   0.41655598770050      1.27291417193645     -1.45076464310294
  N   -1.82944849959288      0.13921182432136     -0.45358280340255
  O   -2.50551526520333      1.15683111204261     -0.44269114620403
  O   -2.14352179761949     -0.93739399405326     -0.95347220833921
  N   1.59976138226220     -1.10822655597475      0.60334919673127
  O   2.48409381078012     -0.53458601891581     -0.03138494340166
  O   1.73903441118318     -1.68285385950114      1.67945106038001
