15
Coordinates from ORCA-job run
  C   -0.28440783724131      0.34619190476490      0.24751608755147
  C   0.90923293439105     -0.56888398837191      0.06538622734990
  Cl  -0.87799268311541      0.24496225205204      1.90254978814324
  H   1.19630794248803     -0.59995437027092     -0.98627748378884
  H   1.73982642874866     -0.23280702125384      0.68312470598187
  C   0.07865665090407      1.78220592637258     -0.09014472167278
  H   0.84419026788328      2.14093952504289      0.59856754469869
  H   0.44763022935432      1.84088728579460     -1.11520045466078
  H   -0.80447175619748      2.41487367128187      0.01251413081801
  N   -1.38993529671590     -0.05633996938656     -0.74155506912126
  O   -2.53959615090254     -0.14421694419440     -0.35066789066098
  O   -0.99198407657565     -0.18024099743333     -1.89507437127831
  N   0.62315902834975     -1.97820310896804      0.46840263215542
  O   -0.47015960956933     -2.43387056007952      0.14880157738352
  O   1.52054392819846     -2.57654360535038      1.05205729710082
