15
Coordinates from ORCA-job run
  C   -0.45063444595084      0.37619703043455      0.35783174665063
  C   0.48107556334349     -0.72661024688921      0.82297427820628
  Cl  -1.22159527546471      1.01858443145351      1.83275712641030
  H   -0.08662017897071     -1.53767403768178      1.27790837005299
  H   1.21042709616493     -0.33757052858195      1.53112285442573
  C   0.21593124080186      1.49586474226876     -0.40156558251026
  H   1.02846855982809      1.89949925162957      0.20548939498515
  H   -0.50022105348007      2.28867986494507     -0.60618515061799
  H   0.60837462837818      1.12848157804160     -1.34906074624975
  N   -1.59180655968753     -0.23629129614088     -0.46035992983709
  O   -2.01407283046053      0.42086035172369     -1.40142132605830
  O   -2.01693444346025     -1.31763478242821     -0.07632155173972
  N   1.25776763626234     -1.32889807248256     -0.30360413893367
  O   0.72292508260862     -1.35167092673049     -1.40989552820778
  O   2.35691498008714     -1.79181735956167     -0.02066981657651
