15
Coordinates from ORCA-job run
  C   -0.31804599784471      0.30959084747953      0.25382274554731
  C   0.95536959761827     -0.48837990833171      0.06054343927568
  Cl  -0.92691970496135      0.09225101318842      1.89185370128115
  H   1.25720662884415     -0.45667068229257     -0.98691725666465
  H   1.74396010355125     -0.10146508566226      0.70309550381433
  C   -0.07938487409923      1.78402492801653     -0.02337966647826
  H   0.30111462845772      1.91459596785801     -1.03753572997048
  H   0.63837236479305      2.18279588008860      0.69413981350456
  H   -1.01730399238078      2.33142376234622      0.08326488710356
  N   -1.36766604392372     -0.15087831365182     -0.77099515009111
  O   -0.94292432936600     -0.19065650214375     -1.92094061324268
  O   -2.51009812686673     -0.35909292476478     -0.40538627089475
  N   0.79043251455975     -1.93058803373752      0.41121520217351
  O   1.72340509130784     -2.46481954673658      1.00122788224824
  O   -0.24851785968951     -2.47213140165632      0.04699151239360
