15
Coordinates from ORCA-job run
  C   -0.45337692620849      0.36579411872498      0.36483624826554
  C   0.50097780622415     -0.72443115753378      0.81316675559263
  Cl  -1.22126698912678      0.98434162163304      1.85156640196338
  H   -0.04879678672316     -1.54842849666840      1.26693197972666
  H   1.22998343459369     -0.32845589678672      1.51781703773780
  C   0.18702566128467      1.50192753405987     -0.39249391959294
  H   0.57642498415332      1.14807594790848     -1.34638035873682
  H   0.99822455837693      1.91504304257962      0.20994073334669
  H   -0.54422349648747      2.28397648588012     -0.58485679975799
  N   -1.59202820070146     -0.26003402370294     -0.44718525246004
  O   -1.99546818664973     -1.35091655243348     -0.06690666915117
  O   -2.03392383004351      0.39668175117504     -1.37947316915632
  N   1.27731821332845     -1.30515144277653     -0.32492762085646
  O   2.38713872589241     -1.75052891845601     -0.05596968581331
  O   0.73199103208698     -1.32989401360328     -1.42606568110765
