15
Coordinates from ORCA-job run
  C   -0.45709095512235      0.36181202503724      0.36460542507549
  C   0.51554303839790     -0.71099832439069      0.81579339591372
  Cl  -1.22706378132677      0.97902049728174      1.85080527554663
  H   1.24191589607147     -0.29928288587045      1.51414052104031
  H   -0.01962111566505     -1.53994126087795      1.27792654067447
  C   0.16291961347233      1.50212057207843     -0.40335608988166
  H   0.55281700744882      1.14772699473558     -1.35683427212177
  H   -0.58064836498875      2.27215266508951     -0.59703723599578
  H   0.97090371043992      1.93097563063143      0.19236267077428
  N   -1.59002487984619     -0.28638637623990     -0.43769607757560
  O   -2.04584382645595      0.35718257060512     -1.37243139699129
  O   -1.97565772821414     -1.38023944500316     -0.04759006671067
  N   1.29492152289291     -1.28813714635338     -0.32198936414504
  O   0.74468340583034     -1.32826927568150     -1.42025845305194
  O   2.41224645706550     -1.71573624104201     -0.05544087255114
