15
Coordinates from ORCA-job run
  C   -0.45689819620152      0.24017627614269      0.18078910281280
  C   0.28384162680256     -1.09198458063373      0.15029808722143
  Cl  -0.77015113637498      0.71203256596169      1.86169558410070
  H   0.42195291074420     -1.41931140903836     -0.87903129827984
  H   -0.24185646924649     -1.84280365523277      0.73287134322539
  C   0.20289125892776      1.37210654739549     -0.57190547070095
  H   0.36570234085928      1.07935689629355     -1.61222630874730
  H   -0.44334615872331      2.24739588450117     -0.53791321367711
  H   1.16513027464283      1.61281811943415     -0.12486889745296
  N   -1.83197392166830     -0.00300073919368     -0.46439069034052
  O   -2.09853656929038     -1.15100848181886     -0.80882398394263
  O   -2.55041862467267      0.97675681412306     -0.59394513593856
  N   1.64387976754853     -0.94464297495724      0.74460435520794
  O   2.50529495186344     -0.42971173516464      0.03266919734915
  O   1.80448794478904     -1.35617952781252      1.89017732916247
