15
Coordinates from ORCA-job run
  C   -0.45004681964394      0.24858275085747      0.18495117375953
  C   0.27188216909248     -1.09375448121667      0.15905907545449
  Cl  -0.72799833761143      0.74568645367536      1.86486929778553
  H   -0.25510746094745     -1.83043060150541      0.75830016199474
  H   0.38911107997224     -1.43573278788374     -0.86813990035814
  C   0.21170099818533      1.36208218841981     -0.59318793886379
  H   -0.42288123369411      2.24589563230056     -0.55978679155212
  H   1.18398988245849      1.59595637669068     -0.16462792827880
  H   0.35387940492435      1.05379837159177     -1.63200995738188
  N   -1.83938580280174      0.01638766719035     -0.43364961049787
  O   -2.54736982558972      1.00389289203799     -0.56138792858899
  O   -2.12642241521188     -1.13147462418051     -0.76169852905142
  N   1.64305533092753     -0.95828426523868      0.73025925050924
  O   1.81652188625860     -1.36127860464562      1.87700506941549
  O   2.49907114368126     -0.46032696809337      0.00004455565399
