16

C	-0.431438	-0.015158	-1.466839
C	0.0	0.0	0.0
Br	-2.576208	-0.152752	-1.462548
H	1.100075	0.0	0.0
N	-0.003761	1.122099	-2.110617
H	-0.127086	1.930266	-1.5083
H	-0.33442	1.241149	-3.05472
C	-0.088207	-1.240126	-2.180836
N	0.170028	-2.231774	-2.757145
N	-0.533874	-1.134554	0.749323
H	0.146138	-1.342655	1.472555
H	-0.571234	-1.958984	0.159081
N	-0.407992	1.275281	0.564882
H	-1.295354	1.140969	1.037835
H	0.292418	1.570197	1.233799
Cl	3.360227	0.0	0.0
