16

C	-0.399313	-0.073292	-1.472993
C	0.0	0.0	0.0
Br	-2.666233	-0.232314	-1.397082
H	1.100748	0.0	0.0
N	-0.028274	1.017987	-2.173376
H	-0.237308	1.065869	-3.156595
H	-0.100375	1.866093	-1.622231
C	-0.137868	-1.341275	-2.130507
N	0.073217	-2.378447	-2.643627
N	-0.422923	-1.117217	0.810604
H	-1.318761	-1.481587	0.510186
H	0.279234	-1.845159	0.77116
N	-0.416713	1.311662	0.475937
H	-1.351502	1.232773	0.860894
H	0.213643	1.565501	1.227446
Cl	3.331733	0.0	0.0
