16

C	-0.426642	-0.032216	-1.483688
C	0.0	0.0	0.0
Br	-0.024179	1.673187	-2.357821
H	1.094803	0.0	0.0
N	0.244089	-1.078535	-2.230999
H	1.239489	-0.858669	-2.180349
H	0.116716	-1.915877	-1.665011
C	-1.883717	-0.21126	-1.548814
N	-3.046326	-0.379545	-1.506915
N	-0.377763	-1.320687	0.528064
H	-1.28571	-1.281566	0.976557
H	0.313362	-1.602599	1.212682
N	-0.498183	1.160502	0.699214
H	-1.432892	1.00223	1.058464
H	0.122296	1.379094	1.467195
Cl	3.370699	0.0	0.0
