16

C	-0.559788	0.205365	-1.425878
C	0.0	0.0	0.0
Br	0.265881	-1.187919	-2.647928
H	1.095301	0.0	0.0
N	-1.973673	0.109683	-1.376993
H	-2.391619	0.10897	-2.297587
H	-2.186286	-0.745457	-0.867955
C	-0.157011	1.489875	-1.995983
N	0.097259	2.547534	-2.439288
N	-0.558263	-1.267735	0.490663
H	-0.577665	-1.16463	1.498636
H	0.106572	-2.00409	0.275473
N	-0.442668	1.073826	0.871
H	0.253058	1.808848	0.861939
H	-1.335083	1.443891	0.56324
Cl	3.416421	0.0	0.0
