16

C	-0.587826	-0.083877	-1.421776
C	0.0	0.0	0.0
Br	-0.010424	-1.715434	-2.324053
H	1.091482	0.0	0.0
N	-2.032757	-0.091571	-1.3176
H	-2.267361	0.729549	-0.7651
H	-2.450617	-0.014636	-2.237008
C	-0.101278	1.036297	-2.247184
N	0.165801	1.97867	-2.898001
N	-0.450556	-1.125226	0.766795
H	0.170668	-1.277177	1.549187
H	-1.40832	-1.010407	1.07092
N	-0.506747	1.294952	0.537233
H	0.106653	2.031853	0.189259
H	-0.340013	1.259666	1.538488
Cl	3.415731	0.0	0.0
