17

C	0.0	0.0	0.0
C	-0.544331	0.027029	-1.413819
Cl	1.785398	0.0	0.0
H	-1.611705	-0.204465	-1.318583
H	-0.064551	-0.769348	-1.984442
C	-0.527849	1.090292	0.893898
H	-0.199038	2.057653	0.512165
H	-0.159143	0.963344	1.909766
H	-1.621162	1.029513	0.877925
N	-0.335123	-1.369525	0.622549
O	-0.452672	-1.422278	1.840969
O	-0.390701	-2.328527	-0.138391
C	-0.373692	1.376587	-2.100456
H	-0.665086	1.28722	-3.149933
H	-1.022477	2.127963	-1.64781
H	0.661746	1.728752	-2.067007
Cl	-3.811669	0.0	0.0
