15

C	-0.544609	-0.026103	-1.396144
C	0.0	0.0	0.0
Cl	-0.547815	-1.733152	-2.057061
H	1.091352	0.0	0.0
H	-0.380694	-0.861689	0.554864
N	-2.091578	0.269727	-1.351028
O	-2.720848	-0.218315	-0.423712
O	-2.558094	0.974837	-2.240076
N	0.099088	0.858584	-2.256964
H	-0.533003	1.324157	-2.88433
H	0.685594	1.481747	-1.732429
N	-0.380291	1.292556	0.587206
H	-1.158495	1.19438	1.226993
H	0.425654	1.621202	1.108696
F	2.63667	0.0	0.0
