15

C	-0.136053	0.144285	-1.532515
C	0.0	0.0	0.0
Cl	-1.41211	-1.054687	-2.250417
H	1.093402	0.0	0.0
H	-0.40863	-0.968017	0.305464
N	-0.809409	1.515912	-1.890463
O	-1.971603	1.700654	-1.55901
O	-0.087482	2.342825	-2.444543
N	1.092424	-0.021335	-2.099781
H	1.21486	0.336664	-3.032131
H	1.908637	0.028178	-1.427713
N	-0.474719	1.156142	0.737808
H	-1.423293	1.028092	1.065967
H	0.139182	1.285741	1.52919
F	2.756586	0.0	0.0
