15

C	-0.589014	0.010378	-1.393088
C	0.0	0.0	0.0
Cl	0.384796	1.159212	-2.430341
H	1.091947	0.0	0.0
H	-0.40779	-0.875235	0.510847
N	-0.455247	-1.338932	-2.09273
O	0.041476	-2.270404	-1.473391
O	-0.924098	-1.408639	-3.22628
N	-1.968339	0.305365	-1.393146
H	-2.2912	0.549353	-2.319957
H	-2.074928	1.079111	-0.741255
N	-0.468686	1.246254	0.662442
H	-0.67239	1.027746	1.630097
H	0.348076	1.850408	0.681977
F	2.655841	0.0	0.0
