13
Coordinates from ORCA-job run
  C   -0.87077508608564     -0.18738878628888      0.13815443001604
  C   0.59702435261621      0.16332391194787     -0.23914712681468
  Cl  -0.88722824108613     -1.09623676405843      1.67964167222600
  H   0.53803987198412      0.71963981987854     -1.18162095244348
  C   -1.62692158302328      1.05543419814626      0.29863323554902
  N   -2.24784934629368      2.04867702489169      0.38961900738600
  C   -1.47389901359480     -1.01169593298988     -0.91035980409697
  N   -1.93015626391509     -1.66314230659836     -1.77587676206705
  C   1.34861876426754     -1.08058006858487     -0.48956566092838
  N   2.00417581498391     -2.04162077855163     -0.65573481496591
  N   1.15152526871609      1.03094883935624      0.77052325506856
  H   1.93083021076089      1.55899493548671      0.40063429114157
  H   1.46661525066986      0.50364590736475      1.57509922992929
