13
Coordinates from ORCA-job run
  C   -0.94647737741125      0.08593445601508     -0.24210560856560
  C   0.59489805149686      0.33793229965963     -0.31447470450284
  Cl  -1.67134197713099      0.33586997965555     -1.85549007547968
  H   0.71679089676016      1.36024250056138     -0.69012643150930
  C   -1.19359794279778     -1.28194874104494      0.21068337540403
  N   -1.35895393014258     -2.38919273946828      0.56800506972206
  C   -1.51564659814756      1.04908212430559      0.70080630807946
  N   -1.97268737035268      1.83943835530686      1.44042984067247
  C   1.19323083430837     -0.58491167680136     -1.28523156303587
  N   1.69187419756135     -1.35603203770895     -2.01769770621649
  N   1.13453204763636      0.18342890947405      1.01513110514761
  H   1.75672065338034     -0.60554858968790      1.10960325120863
  H   1.56965851483939      1.02570515973330      1.35946713907553
