13
Coordinates from ORCA-job run
  C   -0.84333720584517     -0.21731051871101      0.31744190653433
  C   0.55566212653131      0.08832948035417     -0.32233298782042
  Cl  -0.63135745030452     -1.07084997544643      1.86387716112503
  H   0.33988672920760      0.52884613370550     -1.30573200762347
  C   -1.50675386406426      1.06674872772301      0.54780755240552
  N   -2.00317826234859      2.12279399071731      0.68620970935512
  C   -1.63679922798167     -1.04023060324467     -0.59631909811979
  N   -2.23473742608493     -1.69330729967458     -1.36954901781617
  C   1.26157136791187     -1.17500739374804     -0.54938810194311
  N   1.86492321575282     -2.16667422096314     -0.72723250435257
  N   1.28919116968646      0.98194935821990      0.54115767889784
  H   2.22145913667731      0.65592444120100      0.74732566034185
  H   1.32346969086180      1.91878787986699      0.16673404901584
