13
Coordinates from ORCA-job run
  C   -0.76657929194621     -0.24382250498865      0.26486021354947
  C   0.61462630043998      0.14360376467416     -0.39943045999782
  Cl  -0.46864013922126     -1.15134677176252      1.77381103225862
  H   0.35206685290535      0.65948233540647     -1.33115117187488
  C   -1.46703311962287      1.00069546429474      0.58034955436753
  N   -1.96124296840295      2.04287843214566      0.80729936395327
  C   -1.55665416094361     -1.05855841774373     -0.65457849278323
  N   -2.16098352592281     -1.69770114831297     -1.43492262969530
  C   1.31517430194485     -1.09798280857515     -0.74789612519438
  N   1.87742512440586     -2.09360469498531     -1.01389879326804
  N   1.46111829108370      0.99973344772568      0.37547286848410
  H   1.71384362271561      0.58604418876084      1.26343707310188
  H   1.04787871256435      1.91257871336077      0.51664756709876
