13
Coordinates from ORCA-job run
  C   -0.91173695212714      0.16662665924817      0.30485224649347
  C   0.60553461390031      0.44226922487901      0.06011774978162
  Cl  -1.36723297327646      0.83875193146176      1.89179087164895
  H   0.73913625204534      1.52006586545394      0.19543770307906
  C   -1.71678452354893      0.81370609545675     -0.73217866408726
  N   -2.33563231757363      1.35923489591211     -1.56959501801981
  C   -1.13731478534280     -1.27954373990482      0.30184951668216
  N   -1.25738479966614     -2.44869522345048      0.29359289973588
  C   0.92946242766457      0.09801602461630     -1.33712944285342
  N   1.24069208336891     -0.21845080690295     -2.42573013454539
  N   1.38514522055058     -0.26238174306397      1.04684076657024
  H   1.55188712170820     -1.22255694235226      0.77034363615746
  H   2.27422863229718      0.19395775864644      1.19980786935703
