13
Coordinates from ORCA-job run
  C   -0.84646350039990     -0.19452885152299      0.24276236948731
  C   0.56263514843408      0.16636094371969     -0.30928236909473
  Cl  -0.67045668772270     -1.09013915273538      1.78171782127698
  H   0.38639352403780      0.71219244700425     -1.24325477236058
  C   -1.59096989067060      1.04247922096056      0.48245651207234
  N   -2.20457461846180      2.03193850384266      0.64007324592927
  C   -1.56039504826956     -1.03258049264101     -0.72192949053035
  N   -2.10752197065891     -1.69188225100159     -1.52675275740793
  C   1.29109749960882     -1.07379866508706     -0.63564562671881
  N   1.92939143012281     -2.03266730616436     -0.86789065664721
  N   1.22425881103822      1.04936161918985      0.61919230246528
  H   1.63828453967716      0.53347088763729      1.38533433225768
  H   1.94832076326458      1.58079309679808      0.15421908927074
