13
Coordinates from ORCA-job run
  C   -0.85240347438500     -0.09205711495023      0.27512711724332
  C   0.57048090338784      0.05633668883978     -0.33590068671307
  Cl  -0.71422901656239     -0.55468782234548      1.99812249503985
  H   0.41714156392210      0.34254638775435     -1.38270995972196
  C   -1.54742507167310      1.19160426959961      0.17038633125753
  N   -2.12303445742435      2.20909237855461      0.05302371945671
  C   -1.59884725271149     -1.12728795310826     -0.44169864049797
  N   -2.18606365522075     -1.94406271625540     -1.04986992465615
  C   1.25016349912034     -1.25236883516064     -0.31472400272700
  N   1.85115419329589     -2.26142804615395     -0.27614913811235
  N   1.26532496162534      1.12768543399439      0.33428114739487
  H   2.01201253056040      1.48800261889463     -0.24515297239433
  H   1.65572527606515      0.81762471033659      1.21526451443056
