13
Coordinates from ORCA-job run
  C   -0.91919748540617      0.15086534165330      0.28615345778495
  C   0.59617962751766      0.45673813465070      0.06575899344150
  Cl  -1.41851194783637      0.83042296458200      1.85679412926336
  H   0.70397998058430      1.53881576704362      0.18965369801894
  C   -1.71951956855032      0.76822706665385     -0.77235273221688
  N   -2.33993838231314      1.28927294493110     -1.62413543241450
  C   -1.11294687155668     -1.29989186130745      0.29602302097515
  N   -1.20668767920763     -2.47151835252104      0.29720538372125
  C   0.95067153831356      0.10137305372355     -1.32122407259770
  N   1.27979151007895     -0.22468252344957     -2.40154399153165
  N   1.37274218628418     -0.21848783358514      1.07493257585756
  H   2.24904665964270      0.25832402782968      1.23796473039394
  H   1.56439043244894     -1.17845873020459      0.81477023930407
