13
Coordinates from ORCA-job run
  C   -0.87892635610973     -0.17834315924461      0.08288960951451
  C   0.61152716166232      0.16719504286015     -0.19826492853816
  Cl  -0.98602788023105     -1.19758640855691      1.54966380156352
  H   0.60855820191218      0.78996483053961     -1.10013853779771
  C   -1.62046591676314      1.06465890667244      0.29995652694886
  N   -2.23069924655216      2.05948260173129      0.43582531977048
  C   -1.44511694290457     -0.90941351075632     -1.05182135519189
  N   -1.87034259359104     -1.48387233161114     -1.98510680507912
  C   1.35094425749424     -1.07217104702875     -0.50207536424085
  N   1.99414023422313     -2.03444567858104     -0.70514557711863
  N   1.13197028472472      0.94850874206690      0.89620769216007
  H   1.93675095002960      1.48607753124513      0.60242423116078
  H   1.39868784610550      0.35894448066324      1.67458538684814
