13
Coordinates from ORCA-job run
  C   -0.85676621683270     -0.15284443904072      0.23628166301498
  C   0.57428108767145      0.12355266273373     -0.30763126103552
  Cl  -0.74211586530935     -0.90466434759960      1.85588125961170
  H   0.43527059386035      0.58296729937924     -1.29296417570555
  C   -1.57567266385029      1.11765589353104      0.33981638274863
  N   -2.17041193238006      2.12986119250151      0.38746864860919
  C   -1.56713023499885     -1.06089730312759     -0.66544939759491
  N   -2.11078977541012     -1.78072374342043     -1.41924304399691
  C   1.28141662598744     -1.15671839927036     -0.49676001667716
  N   1.90393863422582     -2.14559250912031     -0.62218941647284
  N   1.23300338249132      1.07521612579724      0.55264556454931
  H   1.97957647629647      1.54742419116892      0.06000938734782
  H   1.61639988824852      0.62476337646734      1.37413440560127
