13
Coordinates from ORCA-job run
  C   -0.89789811646932      0.18177005805978     -0.34574032084807
  C   0.60762166531877      0.44640807225235     -0.04754920170138
  Cl  -1.34696315837384      0.95055005196402     -1.89391346441497
  H   0.71525584700506      1.53286718207422      0.02973683072664
  C   -1.12208407636942     -1.26203440365088     -0.42707838496192
  N   -1.24306531080955     -2.42989839080749     -0.48082252978450
  C   -1.69739804265099      0.76275154502269      0.73338578332787
  N   -2.33884823726358      1.26500848102290      1.57986650100505
  C   1.42933134087928     -0.02885877672684     -1.17409144179414
  N   2.13277525433880     -0.44894172768055     -2.01641889423811
  N   0.91841831981495     -0.16042512295864      1.22556933996386
  H   1.67063459528619      0.32703164593735      1.69333417089674
  H   1.17021991929364     -1.13622861450890      1.12372161182293
