13
Coordinates from ORCA-job run
  C   -0.91682992362723      0.16178153914576      0.29210145348959
  C   0.59985090464575      0.45075681777303      0.05645247425210
  Cl  -1.39655067209813      0.86157217582284      1.85993844068950
  H   0.71901833881185      1.53275316404825      0.16979240422772
  C   -1.71828744946332      0.77767548057759     -0.76642911440929
  N   -2.33359452362281      1.29922040085231     -1.62152425608483
  C   -1.12398083188507     -1.28685464216016      0.31814384000323
  N   -1.22703623470806     -2.45758268041408      0.33528289431047
  C   0.93983963405569      0.08014122078161     -1.33016946547393
  N   1.26014279370315     -0.25818752159757     -2.40943231058991
  N   1.37800087854781     -0.22311820372254      1.06537525826126
  H   1.56045413638809     -1.18631354878474      0.81064922635720
  H   2.25897294925228      0.24815579767770      1.21881915496687
