13
Coordinates from ORCA-job run
  C   -0.82699767815762      0.20031767163767      0.28221024766777
  C   0.69784110869825      0.42859706164514     -0.06294585824275
  Cl  -1.13276670400055      0.91288151856718      1.89593596501487
  H   0.84367597810593      1.51410937081756     -0.02545530670135
  C   -1.67978139828738      0.86541013451996     -0.69870517816226
  N   -2.32982419950852      1.42673094119745     -1.50179950776481
  C   -1.09481212498238     -1.23484405250201      0.33171484714471
  N   -1.23352296800540     -2.40112590078591      0.38050815224181
  C   0.91390955550934     -0.02855150628444     -1.44107560067704
  N   1.08415177976443     -0.41471025353108     -2.53715512054359
  N   1.63814063067607     -0.20230009301534      0.81414817598736
  H   1.55814257902391     -1.21172987788723      0.80087917274072
  H   1.56084344116392      0.14421498562108      1.76074001129458
