13
Coordinates from ORCA-job run
  C   -0.84798709140870      0.16604232619008     -0.33953138902564
  C   0.69981188540565      0.42200887382461     -0.18244593034200
  Cl  -1.41047649554650      0.80615461070466     -1.90617587022499
  H   0.83217151897220      1.50278762442429     -0.30554593010707
  C   -1.11104168524745     -1.26935048220039     -0.25346532857111
  N   -1.26190388402967     -2.43134394327650     -0.15752089442914
  C   -1.52656708929839      0.86890215179584      0.74952147852274
  N   -2.00161219758551      1.45769595118591      1.64928380877267
  C   1.39254248461941     -0.26266242188270     -1.27999370958155
  N   1.94428543145796     -0.83605797859691     -2.14309876762855
  N   1.25151773110930      0.01668445998946      1.07730297200305
  H   0.86701436078391      0.53861254880883      1.85371853750382
  H   1.17324503076779     -0.97947372096718      1.23795102310777
