13
Coordinates from ORCA-job run
  C   -0.95094598018159      0.15203707723035     -0.18127406173565
  C   0.58308346138582      0.41470301699567     -0.24054369912730
  Cl  -1.71056597906492      0.68127311910182     -1.70835049640117
  H   0.70088871524239      1.49650042798181     -0.35735976921381
  C   -1.18293280141087     -1.27921040392563      0.01745353497082
  N   -1.30737032877265     -2.43653944597128      0.18051040302224
  C   -1.51248343174897      0.91925800309673      0.93130145653153
  N   -1.96390062083593      1.56783099661303      1.80082931763418
  C   1.15853915346076     -0.25098513330911     -1.42175127623551
  N   1.67649259137723     -0.81445662846593     -2.31337879499982
  N   1.15019322741586      0.00194103299377      1.02159909797000
  H   1.98090634804556      0.53277374104932      1.24536859714168
  H   1.37709564508729     -0.98512580339056      1.02559569044281
