13
Coordinates from ORCA-job run
  C   -0.78209693186734     -0.28014834199842      0.15927423800855
  C   0.64497040817234      0.20233719973338     -0.32029053366826
  Cl  -0.59981658726521     -1.40697814585459      1.53261537482384
  H   0.45506022670965      0.85526831597034     -1.18094324317250
  C   -1.52080606648557      0.90263198544158      0.60005940056423
  N   -2.04603026706385      1.89794592224239      0.93962079509604
  C   -1.48437268106165     -0.94475967409455     -0.93542546284713
  N   -2.01476552003393     -1.45892402634666     -1.85026107211016
  C   1.38554870995871     -0.97285404281765     -0.79363960206523
  N   1.97475935389511     -1.91989797884514     -1.15947782235881
  N   1.41410682364590      0.92875497551695      0.64463209393237
  H   1.59199233458538      0.38513188291669      1.47906916454111
  H   0.98145019681047      1.81149192813569      0.88476666925597
