13
Coordinates from ORCA-job run
  C   -0.91551598106201      0.18690534183239      0.28121235728605
  C   0.60613742906017      0.44496467825301      0.04189961346738
  Cl  -1.39271620315859      0.95571474827072      1.81686974607023
  H   0.74038536599043      1.52884250842128      0.11195117694991
  C   -1.70394538067047      0.76967788816763     -0.80554461561379
  N   -2.31045843096061      1.26246331260751     -1.68369838284600
  C   -1.14272458626261     -1.25671229782642      0.36339617168565
  N   -1.26156333332668     -2.42449767954967      0.42264330960637
  C   0.94725752986358      0.01319670983590     -1.32671164328366
  N   1.26734581777976     -0.37584452952296     -2.38882563507403
  N   1.36975784153373     -0.19836858817842      1.08130419364739
  H   2.25718701138798      0.26545915702744      1.21942481843555
  H   1.53885291982533     -1.17380124933839      0.86707888966895
