13
Coordinates from ORCA-job run
  C   -0.90917765556165      0.14549079036759      0.32144644810550
  C   0.59311161458826      0.46259072408991      0.03662847870316
  Cl  -1.35154506543505      0.83858889716971      1.90302357109023
  H   0.69529174208412      1.54700381779335      0.14330414285368
  C   -1.75618203859302      0.74409797902932     -0.71128608740331
  N   -2.41245411079317      1.25092597608832     -1.54451446829821
  C   -1.08862261202211     -1.30672182697158      0.35494306190870
  N   -1.17153612352553     -2.47902493810094      0.37375943979586
  C   0.89584322167454      0.09341921403378     -1.35908794720961
  N   1.18804617880496     -0.24327235095805     -2.44678209041304
  N   1.41604741701498     -0.19318480374218      1.02198238069461
  H   2.29405157703014      0.29343126452333      1.14200721137743
  H   1.60612585473352     -1.15434474332254      0.76457585879500
