13
Coordinates from ORCA-job run
  C   -0.83807417134747      0.20559475566896      0.24188551341273
  C   0.69894986756677      0.43118248284314     -0.04782553978450
  Cl  -1.21380279729857      0.96733466050641      1.81789625428265
  H   0.83822049842512      1.51809813947650     -0.04292262521275
  C   -1.65204309321048      0.83452669781486     -0.79445305465599
  N   -2.26768578188298      1.37047577285798     -1.64089881735511
  C   -1.10103520303304     -1.22903616649764      0.32552985249550
  N   -1.23407939012750     -2.39480881901062      0.39871666488445
  C   0.97088784019956     -0.07429917550565     -1.39888978988604
  N   1.17688072511245     -0.50376036588705     -2.47236006905346
  N   1.60486127868596     -0.16345742589043      0.88850513256250
  H   1.53231636463839     -1.17338409726499      0.90455914806634
  H   1.48460386227180      0.21253354088854      1.81925733024367
