13
Coordinates from ORCA-job run
  C   -0.88912009957478      0.09503924436627     -0.25435397008381
  C   0.66128992813288      0.35984473315468     -0.36667677007890
  Cl  -1.66415274872579      0.36357729283010     -1.83754016441784
  H   0.75754040275140      1.38045190678823     -0.75366784191614
  C   -1.11119226437940     -1.27841977742324      0.19458165815300
  N   -1.22452442414574     -2.38524606836803      0.57441051844999
  C   -1.43026054844218      1.03863669404720      0.72415282756704
  N   -1.79218298491312      1.82430514610013      1.52014482642529
  C   1.21613237789947     -0.57107204739570     -1.35603518565808
  N   1.66196333844391     -1.33761370428560     -2.12528516801531
  N   1.38099944828901      0.25072379072814      0.86880965379498
  H   1.34250184189675     -0.68025778511623      1.26402045978685
  H   1.09000573276758      0.94203057457406      1.54743915599291
