13
Coordinates from ORCA-job run
  C   -0.81334668858505     -0.21892523613584      0.08620098801420
  C   0.68564945893081      0.14453148519630     -0.25916317618672
  Cl  -0.85190181176398     -1.30890693006890      1.50029143759476
  H   0.63093380321613      0.77899171944864     -1.15233991373417
  C   -1.50196879042801      1.02776109053168      0.41872752772909
  N   -1.98282287632900      2.06875985061754      0.67765958619528
  C   -1.45120709130967     -0.86862093723276     -1.05586397905027
  N   -1.92478181870007     -1.37430239631212     -2.00591721247677
  C   1.38275179375972     -1.09497332214191     -0.62211432152637
  N   1.94110755221650     -2.08998461127210     -0.89828916250875
  N   1.40668599611415      0.84783751479341      0.75879286971442
  H   1.46253861699508      0.32110092073168      1.62053029670012
  H   1.01736185588339      1.76573085184439      0.93148505953518
