13
Coordinates from ORCA-job run
  C   -0.83098383779745      0.20328574283909      0.26643635549234
  C   0.69459352359388      0.43467846336638     -0.07480394028848
  Cl  -1.16137158343726      0.97958284902447      1.84540213686835
  H   0.82724754794588      1.52240001347005     -0.08736017592594
  C   -1.68136351561875      0.81614017967528     -0.75011985266132
  N   -2.32679770735875      1.33885576259772     -1.58252432277226
  C   -1.08166938151088     -1.23202797814850      0.37336097811061
  N   -1.20335097332824     -2.39787549915352      0.46286038023316
  C   0.92584898127914     -0.08589958130458     -1.42775669236384
  N   1.09693697819064     -0.52763122458832     -2.50229603689674
  N   1.63384565670273     -0.14321330638378      0.83910950172851
  H   1.56701808328471     -1.15326121342537      0.87024197444411
  H   1.54104622805438      0.24396579203111      1.76844969403148
