13
Coordinates from ORCA-job run
  C   -0.95798112020323      0.07745548913811     -0.18522833435791
  C   0.56379378559476      0.36793631947166     -0.34485675065651
  Cl  -1.76674683879075      0.22245532787978     -1.77070920494376
  H   0.63978529411198      1.39672166489553     -0.71061037527822
  C   -1.13273411617656     -1.27804249524311      0.33840008617277
  N   -1.21124788859688     -2.37143612915334      0.76208719876121
  C   -1.52713275965314      1.05702115485485      0.74114847238490
  N   -1.99101721270610      1.86385256605562      1.45797778711383
  C   1.13884282183076     -0.53408681615111     -1.35765732926990
  N   1.65452829126915     -1.27115722236357     -2.11387215905440
  N   1.17034025216498      0.27473811644429      0.96215937618546
  H   1.98242052628706      0.87193163596506      1.03707898537620
  H   1.43714896486798     -0.67638961179377      1.18508224756632
