13
Coordinates from ORCA-job run
  C   -0.82462719686129     -0.18984787065589      0.01345659707210
  C   0.66712358305374      0.31688350227707     -0.11653194387679
  Cl  -0.90842185961254     -1.91723587035487     -0.43175670725637
  H   0.63243496400463      1.38420476441779      0.13415219168267
  C   -1.22122707474441     -0.03253516064705      1.41231985874902
  N   -1.45949970280958      0.11698292447614      2.55371001301844
  C   -1.70010861972268      0.58836343513381     -0.85901550686397
  N   -2.36703277634620      1.25076658252336     -1.56552729022771
  C   1.06821958510934      0.19126289854598     -1.52261491315956
  N   1.38506271417439      0.07589452248855     -2.64708876338892
  N   1.61979808683074     -0.32395048958821      0.73901297463056
  H   1.67359983198041     -1.32012416881114      0.57240230065479
  H   1.43367846494343     -0.13966506980554      1.71648118896575
