16

C	-0.557784	0.000582	-1.418332
C	0.0	0.0	0.0
Cl	0.145727	-1.324391	-2.357501
H	1.086042	0.0	0.0
H	-0.383364	0.866118	0.535226
C	-2.069829	-0.04231	-1.524904
H	-2.453787	-0.965353	-1.09564
H	-2.502162	0.799299	-0.977244
H	-2.353974	0.015995	-2.574803
N	-0.124088	1.314279	-2.087477
O	0.397916	2.167818	-1.374019
O	-0.404714	1.43846	-3.274558
N	-0.515848	-1.187025	0.73179
O	-1.621474	-1.062294	1.282813
O	0.167261	-2.205534	0.743918
Cl	3.342228	0.0	0.0
