16

C	-0.648249	0.00472	-1.371686
C	0.0	0.0	0.0
Cl	-0.086902	-1.471392	-2.206993
H	1.089553	0.0	0.0
H	-0.330943	-0.887364	0.540558
C	-2.159621	0.025735	-1.356358
H	-2.513558	0.97296	-0.948924
H	-2.513862	-0.80024	-0.737319
H	-2.546863	-0.088676	-2.365865
N	-0.143771	1.17429	-2.224398
O	1.012647	1.523428	-2.054952
O	-0.934497	1.630953	-3.049251
N	-0.458271	1.159499	0.810521
O	-0.518661	1.001187	2.026729
O	-0.722836	2.207786	0.219066
Cl	3.32703	0.0	0.0
