16

C	-0.430219	0.089977	-1.45364
C	0.0	0.0	0.0
Cl	-2.205328	0.349602	-1.589965
H	1.088915	0.0	0.0
H	-0.402277	-0.886464	0.476644
C	0.325654	1.101391	-2.273434
H	1.394182	0.889248	-2.169704
H	0.021447	1.049633	-3.316917
H	0.130689	2.091356	-1.86911
N	-0.216126	-1.314765	-2.057565
O	-0.381853	-2.280451	-1.321663
O	0.049534	-1.370121	-3.252397
N	-0.467977	1.150582	0.811409
O	-0.276964	2.290284	0.393612
O	-1.00066	0.88267	1.888794
Cl	3.274568	0.0	0.0
