16

C	-0.567906	-0.019747	-1.412494
C	0.0	0.0	0.0
Cl	0.160744	-1.303674	-2.379396
H	1.086048	0.0	0.0
H	-0.380794	0.873061	0.522335
C	-2.081616	-0.113149	-1.484354
H	-2.396503	-0.047126	-2.526208
H	-2.419248	-1.061985	-1.069599
H	-2.527908	0.700349	-0.906356
N	-0.219823	1.3281	-2.074707
O	-0.296761	1.380571	-3.295428
O	0.007954	2.271844	-1.325735
N	-0.529748	-1.171521	0.743939
O	0.033327	-2.253202	0.617077
O	-1.535131	-0.978322	1.435346
Cl	3.322839	0.0	0.0
