16

C	-0.541441	-0.001155	-1.426935
C	0.0	0.0	0.0
Cl	0.031604	-1.416654	-2.303354
H	1.088457	0.0	0.0
H	-0.381609	0.877355	0.518028
C	-2.049449	0.120777	-1.568331
H	-2.303758	0.208234	-2.627056
H	-2.537536	-0.758914	-1.154465
H	-2.397966	1.003375	-1.029557
N	0.027104	1.260496	-2.101091
O	-0.085959	2.286334	-1.436072
O	0.433396	1.186048	-3.250532
N	-0.531563	-1.175081	0.7363
O	-1.693694	-1.082373	1.152806
O	0.199819	-2.147595	0.895582
Cl	3.349286	0.0	0.0
