16

C	-0.465191	-0.020333	-1.436583
C	0.0	0.0	0.0
Cl	-0.039327	1.480652	-2.259078
H	1.088315	0.0	0.0
H	-0.352279	-0.897406	0.510338
C	0.193439	-1.190166	-2.147633
H	-0.10796	-2.125347	-1.671344
H	1.275898	-1.07355	-2.06207
H	-0.101144	-1.20052	-3.198847
N	-1.980468	-0.243268	-1.51999
O	-2.399974	-1.136852	-0.788401
O	-2.646313	0.386573	-2.326743
N	-0.545584	1.140779	0.780993
O	0.065397	1.465909	1.790449
O	-1.606782	1.638177	0.398936
Cl	3.313018	0.0	0.0
