16

C	-0.447031	-0.046931	-1.44433
C	0.0	0.0	0.0
Cl	-0.141347	1.499623	-2.237616
H	1.088281	0.0	0.0
H	-0.364577	-0.890851	0.514105
C	0.320303	-1.146045	-2.159367
H	0.033312	-1.17724	-3.21244
H	0.103088	-2.107141	-1.689164
H	1.387495	-0.934421	-2.063105
N	-1.938132	-0.397156	-1.54911
O	-2.274889	-1.367244	-0.875932
O	-2.658975	0.219511	-2.3164
N	-0.573831	1.15573	0.732949
O	0.121745	1.711567	1.575574
O	-1.745314	1.440679	0.475125
Cl	3.345892	0.0	0.0
