16

C	-0.527942	-0.004759	-1.434554
C	0.0	0.0	0.0
Cl	0.003979	-1.534391	-2.149726
H	1.088991	0.0	0.0
H	-0.375139	-0.898551	0.49007
C	-2.025734	0.144104	-1.624836
H	-2.539536	-0.657196	-1.094982
H	-2.254918	0.07641	-2.690684
H	-2.36448	1.098933	-1.229874
N	0.108503	1.159958	-2.201218
O	-0.103233	2.250298	-1.676759
O	0.689687	0.962401	-3.25499
N	-0.527428	1.131787	0.81832
O	-1.730632	1.084606	1.102491
O	0.245996	2.008171	1.183586
Cl	3.31519	0.0	0.0
