16

C	-0.439455	-0.066117	-1.450138
C	0.0	0.0	0.0
Cl	-0.258601	1.592314	-2.101936
H	1.088484	0.0	0.0
H	-0.38879	0.874071	0.512684
C	0.355996	-1.019719	-2.307232
H	0.153792	-2.042318	-1.992441
H	1.41368	-0.795451	-2.147388
H	0.094701	-0.90114	-3.357289
N	-1.938148	-0.349657	-1.535941
O	-2.633006	0.070727	-0.616754
O	-2.348624	-0.935442	-2.531573
N	-0.453269	-1.171128	0.793204
O	-0.442634	-1.034457	2.012362
O	-0.788437	-2.198443	0.199606
Cl	3.286506	0.0	0.0
