17

C	0.0	0.0	0.0
C	-0.620344	-0.198532	-1.389413
Cl	1.795025	0.0	0.0
H	-1.718134	-0.282104	-1.067349
C	-0.489557	1.29055	0.649498
H	-1.584711	1.219828	0.592267
H	-0.143558	1.333764	1.684501
H	-0.09109	2.153125	0.112084
C	-0.380885	-1.143332	0.844605
N	-0.589966	-2.087081	1.512391
C	-0.139075	-1.419145	-2.015477
N	0.242302	-2.385391	-2.567664
C	-0.447939	1.003733	-2.314666
H	-0.80265	0.750348	-3.316825
H	0.596462	1.322759	-2.390006
H	-1.057053	1.830076	-1.945786
F	-2.852592	0.0	0.0
