17

C	0.0	0.0	0.0
C	-0.465814	0.045879	-1.496459
Cl	1.798936	0.0	0.0
H	0.437965	0.21641	-2.094458
C	-0.406902	1.223454	0.822879
H	0.00829	1.133085	1.829797
H	-1.500584	1.208277	0.822946
H	-0.004114	2.124357	0.353866
C	-0.423645	-1.230242	0.669595
N	-0.57895	-2.250253	1.232166
C	-1.317529	1.206487	-1.774695
N	-1.822958	2.183426	-2.186945
C	-1.139021	-1.238952	-1.979601
H	-0.476837	-2.097735	-1.834508
H	-1.368554	-1.150681	-3.045166
H	-2.051148	-1.330165	-1.391076
F	-2.599479	0.0	0.0
