17

C	0.0	0.0	0.0
C	-0.278325	0.169936	-1.552584
Cl	1.797026	0.0	0.0
H	0.506336	-0.420256	-2.037738
C	-0.637304	1.05143	0.87246
H	-0.367888	0.884629	1.918419
H	-1.729791	0.892003	0.711027
H	-0.307516	2.045897	0.565391
C	-0.416797	-1.347106	0.401404
N	-0.640889	-2.451573	0.733487
C	0.004189	1.563316	-1.914144
N	0.227734	2.667673	-2.247849
C	-1.617163	-0.283704	-2.138846
H	-1.630576	-0.001355	-3.197164
H	-1.673007	-1.373476	-2.064998
H	-2.458513	0.09919	-1.538381
F	-3.091234	0.0	0.0
