13

C	-0.457118	0.073775	-1.442834
C	0.0	0.0	0.0
F	-0.307727	-1.145042	-2.094194
H	1.095324	0.0	0.0
H	-1.515706	0.353503	-1.522335
H	0.16737	0.808639	-1.962644
C	-0.544448	-1.171592	0.664618
N	-1.009488	-2.098978	1.21858
C	-0.396618	1.281198	0.737316
H	-1.481154	1.430806	0.775562
H	0.070052	2.134774	0.236691
H	-0.005499	1.253318	1.755768
H	2.791333	0.0	0.0
