13

C	-0.354232	0.026632	-1.464437
C	0.0	0.0	0.0
F	-1.732183	0.182146	-1.685736
H	1.097277	0.0	0.0
H	-0.044855	-0.896989	-1.958371
H	0.152521	0.874129	-1.933828
C	-0.507544	-1.200805	0.646266
N	-0.920881	-2.163986	1.179367
C	-0.45128	1.260193	0.735247
H	0.025637	2.126539	0.267767
H	-1.53618	1.389101	0.707973
H	-0.118647	1.223618	1.774885
H	2.793945	0.0	0.0
