13
Coordinates from ORCA-job run
  C   0.99891990100320     -0.14264364579737     -0.21674856452177
  C   -0.32951368027767     -0.07751613004112      0.00515571409505
  H   1.42516876580391     -0.99076393523983     -0.74983958507697
  N   1.84027294411910      0.90701664683545      0.28270643544102
  H   2.55479460798903      1.14455972189662     -0.39261378234125
  H   2.30760227982551      0.62625852202495      1.13724922192161
  N   -0.88599315140492      0.94064000299194      0.78345771383682
  H   -1.79297539543551      1.24135168306884      0.45567930158369
  H   -0.23192384081283      1.71062274431906      0.86537091880492
  C   -1.28119893368165     -1.13752227983159     -0.45393360835747
  H   -0.76336641125720     -1.91495306722652     -1.01700454331452
  H   -1.78346342119117     -1.59744168550507      0.40163940339794
  H   -2.05732366467979     -0.70960857749537     -1.09811862546905
