13
Coordinates from ORCA-job run
  C   0.99473457473906     -0.27284680642606     -0.03754089749682
  C   -0.33241567773434     -0.03438200940299     -0.05455225602188
  H   1.39283463328996     -1.18854846740888     -0.47129285605304
  N   1.87091675112038      0.70783256336819      0.53629298065214
  H   2.31557282847571      1.26701258956245     -0.18271140747121
  H   2.60265430952788      0.26313131319171      1.07453733314419
  N   -0.85661089659886      1.18103475371187      0.39277411647196
  H   -1.74896797912115      1.08348577191472      0.85600765813822
  H   -0.17439651266711      1.66078554759802      0.96881834339334
  C   -1.31923106504580     -0.98520721814958     -0.65634063658680
  H   -0.82633694655115     -1.88927755006670     -1.01591483050792
  H   -1.84412306678528     -0.51403398199822     -1.49197865527017
  H   -2.07463095264930     -1.27898650589452      0.08090110760797
