13
Coordinates from ORCA-job run
  C   1.07618997999146     -0.13329383224852     -0.20372005138901
  C   -0.26110109965814     -0.06540927810842     -0.06987173682883
  H   1.53466355226811     -0.74150542404106     -0.97563701314109
  N   1.93489944501227      0.67700507371453      0.57149616978703
  H   1.55492022651599      0.78362672184475      1.50637204107083
  H   2.86829317415528      0.29647345289718      0.62511409878910
  N   -0.78717709411874      0.80510593315345      0.92640013357642
  H   -0.46083605710108      1.75581639669264      0.79268567615476
  H   -1.79657774797449      0.79644965590547      0.94508584337126
  C   -1.22352454095120     -0.88077975093016     -0.87360523983008
  H   -0.69569235704361     -1.56077330183475     -1.54502006492375
  H   -1.88170768209359     -0.24396994631869     -1.47592817818614
  H   -1.86334979900226     -1.48874570072643     -0.22337167845050
