13
Coordinates from ORCA-job run
  C   0.95007541292951      0.48676489402261      0.13399564890479
  C   -0.37410479424801      0.23337519768137      0.15634281492686
  H   1.31158752335334      1.44532237072322      0.51933836005441
  N   1.89068644591009     -0.48184694143117     -0.34679812697382
  H   2.49209064722054     -0.06832075587185     -1.04829337119086
  H   2.48635125737839     -0.80287352842771      0.40725641788412
  N   -1.29360851913599      1.10875621402849      0.75860113445641
  H   -0.91468092621373      2.03189124626984      0.92085369834629
  H   -2.16427950767764      1.16832526113546      0.24957191808148
  C   -0.97577898641988     -1.04239429460332     -0.34428615816435
  H   -1.72566351969964     -0.83672140384989     -1.11667997807321
  H   -0.19889614091113     -1.67871623181006     -0.76149202849562
  H   -1.48277889248586     -1.56356202786699      0.47258967024350
