13
Coordinates from ORCA-job run
  C   0.93397013584575      0.46726034762220      0.25853779894018
  C   -0.38611947000184      0.21148565492237      0.15823290955270
  H   1.25921391887343      1.37031037599564      0.78453589953752
  N   1.91398678866229     -0.43336941081782     -0.27283240018629
  H   2.56361296863462      0.06634212890021     -0.86698381397839
  H   2.45342283328260     -0.85362886600073      0.47475338961111
  N   -1.35284503558815      1.00358522557669      0.80083006423422
  H   -2.18577168339573      1.12904927814781      0.24290095063465
  H   -0.99353112629804      1.89776119695062      1.10659498556646
  C   -0.94059528535562     -0.99035120416542     -0.54046860030307
  H   -0.13164362374889     -1.56570451583582     -0.98452806683097
  H   -1.64160864177399     -0.68791941912207     -1.32676259145669
  H   -1.49309177913644     -1.61482079217368      0.16718947467856
