13
Coordinates from ORCA-job run
  C   0.98377889376528     -0.30805433249128      0.04579005602436
  C   -0.33016625140258     -0.02780389350639     -0.07028060327629
  H   1.36915196348610     -1.27448336158586     -0.27469469234009
  N   1.86583039227234      0.69474569813164      0.57075891707132
  H   2.54860699985185      0.28140451047057      1.19200769682775
  H   2.37146756761583      1.16259796345951     -0.17280473216628
  N   -0.82994273067981      1.24263376850683      0.22647427319726
  H   -1.74863500995985      1.22142376336570      0.64598920727898
  H   -0.16103430564062      1.75420901286356      0.79065412017053
  C   -1.31986273896933     -1.00056101206478     -0.63090255732119
  H   -0.84322592322208     -1.95066130632301     -0.87532453555855
  H   -1.78401519431190     -0.59651485540038     -1.53487467103264
  H   -2.12195366280522     -1.19693595542611      0.08920752112483
