13
Coordinates from ORCA-job run
  C   1.00807428850420     -0.15969568156438     -0.15223641014675
  C   -0.33169620560485     -0.04243746272293     -0.05376595870806
  H   1.44683176809320     -0.85032546220450     -0.87033911495175
  N   1.84172991966323      0.65425152700170      0.68545153396377
  H   2.20895024335905      1.44897984334587      0.17453509490623
  H   2.62973737075858      0.12213343272863      1.03034333831306
  N   -0.91693914142458      0.91491153313153      0.77869708714201
  H   -1.77331504055542      0.59711553421170      1.21011714397363
  H   -0.24106451965809      1.24059122308251      1.46028539213999
  C   -1.27888778768717     -0.82981916304270     -0.90406493920606
  H   -1.97104365773261     -1.40742378781390     -0.28136162540485
  H   -1.87982760055901     -0.16167856835012     -1.52720555744842
  H   -0.74254963715652     -1.52560296780341     -1.55045598457279
