13
Coordinates from ORCA-job run
  C   0.99350569441203     -0.00488464449695     -0.27969142316168
  C   -0.32627437988558     -0.08903956185607     -0.01600690828123
  H   1.42570557316088     -0.57230718706422     -1.10211769180182
  N   1.81844245323406      0.82338467803572      0.55257064847193
  H   2.49659613093285      1.32648914061381     -0.00425036516940
  H   2.32938955328675      0.26820342362017      1.22946598395709
  N   -0.88477406578762      0.53991750270933      1.09956594643704
  H   -1.81451908611066      0.89726184666607      0.93111674543902
  H   -0.25498524367850      1.25496582872696      1.44526389236448
  C   -1.25880562208062     -0.94712577102312     -0.81238966601550
  H   -2.07767078776102     -0.34904916166307     -1.22739586904706
  H   -1.70583080480156     -1.71768220819097     -0.17815250213841
  H   -0.73877941492100     -1.43113388607765     -1.63997879105445
