13
Coordinates from ORCA-job run
  C   1.02580359032460      0.35743483578728      0.46009224807009
  C   -0.29273517642995      0.25568376923325      0.20795095020605
  H   1.33641126043936      1.12364315546909      1.16386616755932
  N   2.05257009374678     -0.47871687781071      0.00420821697804
  H   2.93563023056303      0.00110580899155     -0.07479802867402
  H   1.83725457386869     -0.96253859149299     -0.85426777608828
  N   -1.15247311689771      1.18464930430914      0.89436058576740
  H   -1.78926406227570      0.68559781648784      1.50675682168330
  H   -1.72554009714052      1.68825546673056      0.22580433984137
  C   -0.91943257807912     -0.76194369610163     -0.70458130426527
  H   -1.62519509107102     -1.39162744429093     -0.15081073757549
  H   -1.48872206940906     -0.27272381518940     -1.50359793125541
  H   -0.19430755763939     -1.43081973212304     -1.17498355224710
