13
Coordinates from ORCA-job run
  C   1.00451225461219     -0.06834663406080     -0.22488935026748
  C   -0.32882605316790     -0.07926858444407     -0.02315876322778
  H   1.45737402888923     -0.75706920328508     -0.93608627981991
  N   1.80881228196590      0.88043206551428      0.49107102888895
  H   2.06063036399087      1.66517975862975     -0.09897662750715
  H   2.66705435163482      0.45181437164338      0.81182565548211
  N   -0.94674837835936      0.86987918173694      0.79489300392748
  H   -0.25800577110162      1.30948631720388      1.39471887320417
  H   -1.72825596423106      0.49851068853120      1.31620253551233
  C   -1.24965654918235     -1.01269314110440     -0.74497758171816
  H   -0.69355893697582     -1.69423445522226     -1.38984189409072
  H   -1.96175879265096     -0.45104440829176     -1.35589026146201
  H   -1.82957283542393     -1.61264595685106     -0.03489033892185
