13
Coordinates from ORCA-job run
  C   1.00056541601808     -0.25132069176993     -0.02276445436483
  C   -0.33256089380065     -0.04913137330662     -0.04224036694594
  H   1.41554195015655     -1.20651457208181     -0.33990483341436
  N   1.86102508409482      0.81832956249762      0.39492481986246
  H   2.61323288261624      0.46762310691918      0.97292888108448
  H   2.27857346181816      1.28465247801520     -0.40226976194091
  N   -0.88044008105047      1.20245124671186      0.25096163461593
  H   -0.20024620449248      1.77094035625084      0.74242686460847
  H   -1.76043940781041      1.14565943605949      0.74371803290841
  C   -1.30483256683361     -1.09541869941766     -0.48936441703600
  H   -1.85499908228609     -0.75463622267136     -1.37083506075456
  H   -2.04038199927483     -1.30309231248427      0.29563884388898
  H   -0.79503855915531     -2.02854231472254     -0.73222018251213
