13
Coordinates from ORCA-job run
  C   0.93995580903287      0.49635022757086      0.16682102616589
  C   -0.38341790296832      0.24362448402628      0.11215801483961
  H   1.27693035813415      1.47942072897796      0.51036101948245
  N   1.90839078726646     -0.50247977028964     -0.17728260071054
  H   2.44160371045805     -0.77675272764712      0.63937737940945
  H   2.56493648611780     -0.13584776587103     -0.85492332149470
  N   -1.34010424165664      1.15698568318194      0.58611511254124
  H   -2.17180763644964      1.18192336097603      0.01313955322123
  H   -0.97008599075964      2.08900135317092      0.71444019091623
  C   -0.95275696955185     -1.06388871266904     -0.34244771630145
  H   -1.51412821876585     -1.53170453076358      0.47118735895501
  H   -1.64938121504671     -0.91119465284307     -1.17469424893398
  H   -0.15113497581069     -1.72443767782053     -0.66425176809043
