13
Coordinates from ORCA-job run
  C   1.00104296524768     -0.07812102122653     -0.23749494393970
  C   -0.32837561037976     -0.08316417007767     -0.01168977253596
  H   1.44265849157615     -0.79359447713924     -0.92908057612490
  N   1.82313051258323      0.86573047392209      0.46386350748770
  H   2.29436076042661      0.42986311094590      1.24827990385656
  H   2.53369128901103      1.24545007563535     -0.14755594272636
  N   -0.90339520689155      0.74846137913136      0.95294048089348
  H   -0.26315387653069      1.49848513579702      1.18773976609513
  H   -1.81537481783225      1.09283731120505      0.68779142257975
  C   -1.25984778296942     -1.04775168718217     -0.67640773516218
  H   -1.75144067074141     -1.68029251473651      0.06791452437950
  H   -2.04555377558297     -0.51441747735843     -1.22295727968406
  H   -0.72774227791664     -1.68548613891623     -1.38334335511898
