13
Coordinates from ORCA-job run
  C   1.00157907364438     -0.01437269135431     -0.24869931015133
  C   -0.32668096837971     -0.08442381538377     -0.02729117311723
  H   1.45202475897686     -0.57870781677096     -1.06333072298250
  N   1.80911943417270      0.79833849256125      0.61531318017144
  H   2.51164555152401      1.29610515250815      0.08461045421502
  H   2.29009035183032      0.23279833286797      1.30541884191378
  N   -0.91209619685874      0.54186217682160      1.07611383324564
  H   -0.28540891001426      1.24761935494961      1.44573945369455
  H   -1.83222137230617      0.91074084018756      0.88169827133458
  C   -1.24376282413260     -0.92639892945638     -0.85808537801223
  H   -1.71968047732410     -1.69487146407314     -0.24265143252433
  H   -2.04180979286321     -0.31616876291286     -1.29529541715293
  H   -0.70379862826946     -1.41252086994471     -1.67154060063446
