13
Coordinates from ORCA-job run
  C   0.97759729220049     -0.20422095493818      0.26098009350178
  C   -0.32499276392741     -0.07175117345330     -0.06137532950718
  H   1.37628317580768     -1.17706471086703      0.54315116384812
  N   1.82841364987676      0.95008315485743      0.20791293508008
  H   2.46914845416348      0.95850467598497      0.99043621473306
  H   2.38179811009689      0.95802745740669     -0.64127222718387
  N   -0.83612119633763      1.14070522578927     -0.53164836896045
  H   -0.20308900160355      1.89684924185397     -0.29718576157554
  H   -1.78012999899975      1.32125477490651     -0.22060141349510
  C   -1.28127149826685     -1.22314582366143     -0.06154232048180
  H   -2.13121599380697     -1.02220372913401      0.59999241549647
  H   -0.79574379004631     -2.13880056357327      0.27819886009151
  H   -1.68067643915684     -1.38823757517162     -1.06604626154709
