13
Coordinates from ORCA-job run
  C   0.94662003164041      0.48214122721491      0.17117666626553
  C   -0.37943615351648      0.26756814290694      0.05492605771787
  H   1.29630809865089      1.46835778216737      0.49223330389384
  N   1.90147742713514     -0.53703959632417     -0.15049694411171
  H   2.55277611731993     -0.66089637350286      0.61449981001984
  H   2.44259844326087     -0.27278145535494     -0.96526238147652
  N   -1.32159238067082      1.29652291204178      0.22155715563332
  H   -0.94217956978418      2.11199513835000      0.68316387079753
  H   -2.16113652721681      0.98364560261026      0.68838643392847
  C   -0.96672584312485     -1.04104529536780     -0.37271628177554
  H   -1.67331487565650     -1.40901865968517      0.37992904204253
  H   -0.17556855515214     -1.77451269222220     -0.50915689377484
  H   -1.52082621288545     -0.91593673283413     -1.30723983916033
