13
Coordinates from ORCA-job run
  C   1.03103635129515      0.56897008881790      0.05696323641777
  C   -0.29155616000289      0.31941221931414      0.08782065370364
  H   1.34808731906278      1.57741525423061      0.30471191630617
  N   2.05536791159484     -0.29004917361301     -0.35988514584164
  H   2.93461522565740     -0.08993637330688      0.09065138373334
  H   1.83104508566198     -1.26962451382015     -0.27351047136129
  N   -1.14473052994115      1.41639174114991      0.46458286988514
  H   -1.72390898122146      1.15221897970712      1.25438525207498
  H   -1.77605453835244      1.64557223320061     -0.29601187516985
  C   -0.92692348875793     -0.99805601600479     -0.26098933292297
  H   -1.62919793789965     -0.87636700020986     -1.09357770249824
  H   -1.50179894920082     -1.39288609446621      0.58492441795223
  H   -0.20598130789582     -1.76306134499937     -0.56006520227929
