13
Coordinates from ORCA-job run
  C   1.04315267414301      0.52930791624388      0.15405389490143
  C   -0.28570297123276      0.32556168015124      0.08179176690791
  H   1.37601220133832      1.53805276464670      0.37872701709033
  N   2.06232692460623     -0.42801941079560      0.07806397432667
  H   2.92209703350645     -0.04922684745252     -0.28744883945473
  H   1.80424000898273     -1.26321927703643     -0.42519639943198
  N   -1.12529505658442      1.47470757479492      0.30113611139696
  H   -1.75545885038190      1.60071856007084     -0.48373068967580
  H   -1.70572715242154      1.33273138104710      1.12122183616395
  C   -0.94098224320709     -1.00205195914202     -0.18066444484441
  H   -1.58650190047054     -1.28480417942778      0.65877693739501
  H   -1.57930114447697     -0.95443451711461     -1.07067912763262
  H   -0.22885952380152     -1.81832368598572     -0.32605203714271
