13
Coordinates from ORCA-job run
  C   1.01011474893468     -0.18082582300080     -0.10575782904367
  C   -0.32924355610332     -0.02736765687494     -0.07593813416164
  H   1.47225675053064     -0.82723086752146     -0.84987674392602
  N   1.81435624628812      0.53541910209962      0.84264253597383
  H   2.56321960354980     -0.04894791912295      1.19013607420102
  H   2.23594693466743      1.35455725455102      0.41991727137731
  N   -0.93558465958334      0.88086818199521      0.79573395526898
  H   -0.29203787689886      1.12835096025860      1.53876953712106
  H   -1.82479010866885      0.55874426140735      1.15079647925676
  C   -1.24497923089851     -0.71164943445014     -1.04180267835555
  H   -1.78724179209284      0.02414660000835     -1.64209429042430
  H   -0.69065695595358     -1.37146875587678     -1.71033211490745
  H   -1.99036010377137     -1.31359590347309     -0.51019406238034
