13
Coordinates from ORCA-job run
  C   1.00902570765047     -0.21364058817004      0.02846611943980
  C   -0.33131416314283     -0.07070053432953     -0.00864530944177
  H   1.45544961707142     -1.20653029604518      0.03059570501744
  N   1.83312596585212      0.95974317868405      0.08586139744463
  H   2.64592556275006      0.85533593804712     -0.50700236165785
  H   2.16198765759982      1.12993112433979      1.02942207196043
  N   -0.92942127393265      1.18739360613711      0.10003348857573
  H   -1.76342334241683      1.28150341934126     -0.46219548601337
  H   -0.24849693998797      1.91157844204135     -0.09845995832126
  C   -1.26988792695483     -1.23589582255870     -0.04183172993334
  H   -0.72492850219963     -2.17956759653288     -0.08732217772828
  H   -1.92749838591376     -1.17992251389464     -0.91644871610167
  H   -1.90754397637538     -1.23922835705970      0.84652695675953
