13
Coordinates from ORCA-job run
  C   1.01335593763657     -0.07492137205099     -0.17990257415589
  C   -0.32854172611788     -0.06791202557255     -0.04667228743563
  H   1.48702296566794     -0.70887464735442     -0.92752932710867
  N   1.80079196140762      0.78273331591843      0.65888112173400
  H   2.09162934591773      1.61567741432065      0.15986234874903
  H   2.63630378093562      0.30691002301744      0.97279068863690
  N   -0.96633082259964      0.81870278115231      0.82493879166623
  H   -1.78273453218059      0.42183793406412      1.26825564982415
  H   -0.30066155808462      1.17992619158059      1.49862477453763
  C   -1.23175146800792     -0.90657411186565     -0.89572873806998
  H   -1.86184208695620     -1.55133363655866     -0.27306581070575
  H   -0.65871947746425     -1.54257004299057     -1.57155301895231
  H   -1.89752232015439     -0.27260182366071     -1.48790161871972
