13
Coordinates from ORCA-job run
  C   1.05013839964430     -0.16425117837547     -0.27103944266256
  C   -0.28155070026644     -0.05868256025499     -0.07795473502833
  H   1.41599208607264     -0.85738941239236     -1.02253019948675
  N   2.06655805869578      0.49104147940726      0.47398599080691
  H   1.72924529242780      0.86426099754717      1.34976000782085
  H   2.54031013151129      1.21922134725329     -0.04386539431383
  N   -0.89545815786225      0.90620961550965      0.74783154831752
  H   -0.24151232186780      1.48298937328721      1.25562326749458
  H   -1.58252932472946      0.51313874671451      1.37663506910074
  C   -1.25617709565936     -0.93021923751188     -0.80924140077962
  H   -1.83390900400799     -1.54907963726183     -0.11246642158304
  H   -0.74285206495988     -1.60164304817270     -1.49904723240577
  H   -1.96825529899864     -0.31659648574986     -1.36769105728070
