13
Coordinates from ORCA-job run
  C   1.04352405831025      0.41376696634281      0.36174390926599
  C   -0.28533091754171      0.26885159797963      0.20237381024175
  H   1.37685217156642      1.18809065830476      1.04598309968598
  N   2.06618846502444     -0.24744625070130     -0.33030581138241
  H   1.79780312358690     -1.14862722740454     -0.69549878345103
  H   2.91037486128570     -0.32781346876003      0.21487586429315
  N   -1.12590680013790      1.15009854672162      0.97053979788353
  H   -1.78510695655348      0.61027109257343      1.52101966860850
  H   -1.67493890323220      1.73752109152766      0.35160076594477
  C   -0.93824753885270     -0.71861833954485     -0.72483556722315
  H   -1.59119189458619     -1.40402529557490     -0.17167295538657
  H   -1.56873919108916     -0.19933653940439     -1.45552455724380
  H   -0.22428047778037     -1.32273283205989     -1.29029924123671
