13
Coordinates from ORCA-job run
  C   1.05853947019758      0.51477549256700      0.00199667064982
  C   -0.27649174891626      0.34574000646450      0.03531562918769
  H   1.43326787626557      1.52573582312433      0.12947384670445
  N   2.03228916144475     -0.45199050166950     -0.28060908563885
  H   2.92572531906187     -0.23110287065190      0.13016673381322
  H   1.75840718213627     -1.39220992695073     -0.03927908447496
  N   -1.06944165122492      1.52298067794921      0.27728203116679
  H   -1.65067862659399      1.38950433552832      1.09788505480592
  H   -1.69848929127148      1.68648187963206     -0.50190703499601
  C   -0.97666237360238     -0.96944437617644     -0.16811840411631
  H   -1.49951487687057     -1.28982133514827      0.74107072555724
  H   -0.30172188313514     -1.77439518291299     -0.46999193438834
  H   -1.73422855749131     -0.87725402175557     -0.95428514827066
