13
Coordinates from ORCA-job run
  C   1.00622033852628     -0.05671562513005     -0.22234006971542
  C   -0.32850788878395     -0.07670067016176     -0.03093651561827
  H   1.45943168034772     -0.67460378569475     -0.99556529560914
  N   1.81792759030959      0.77245626389613      0.62240098298710
  H   2.26856227622149      0.22626435169534      1.34763710881510
  H   2.54487102944942      1.22657562130489      0.08544870556839
  N   -0.92000276800323      0.62003527394856      1.02559560291912
  H   -1.82388479097485      1.00595665082832      0.79230088831227
  H   -0.28000190777661      1.32274734388338      1.37768716377016
  C   -1.25135736540771     -0.92885478810043     -0.84468252172307
  H   -0.70747571492564     -1.46840626323211     -1.62096105394880
  H   -2.01900707482446     -0.31559499295163     -1.32952161331637
  H   -1.76577540415805     -1.65315938028592     -0.20706338244108
