13
Coordinates from ORCA-job run
  C   1.06474987965969     -0.02859501421991     -0.35543895441305
  C   -0.24986272230418     -0.08556910242280     -0.06177970444576
  H   1.46547224085311     -0.65027126105369     -1.15020182560840
  N   1.97034865107596      0.89817179921656      0.21490394330549
  H   2.67825948017338      0.48664042661665      0.80677242788723
  H   1.49939080396598      1.65435611352465      0.68996740422478
  N   -0.82264066981562      0.73866231677458      0.93837043099246
  H   -0.22334057009498      0.81410848956571      1.75077667242516
  H   -1.73132184150768      0.40357391715622      1.22528035676942
  C   -1.21973174022261     -0.90055651730441     -0.85915191997280
  H   -1.95667955859022     -0.25602683765019     -1.34999824199106
  H   -0.70619273523725     -1.47448511130394     -1.63157484565173
  H   -1.76945121795557     -1.59900921889942     -0.21792574352174
