14
Coordinates from ORCA-job run
  C   0.79775217340814      0.02473303187566      0.32410110412564
  C   -0.28128924861257      0.83204825582473     -0.39637210515373
  Br  2.40593816601973      1.26535742392088      0.52787572001927
  H   -0.42150575219919      1.77160998452156      0.14175241413902
  H   0.11241244782805      1.08851373931174     -1.38588588910971
  N   1.10945064402135     -1.16637649578470     -0.36863273457869
  H   1.81038267344979     -1.72243753799199      0.10413949324856
  H   1.40718485919265     -0.97176977687920     -1.31687229924333
  C   0.40473776945486     -0.28799377174568      1.69880191075540
  N   0.05393069598119     -0.54676408661161      2.78994965705295
  C   -1.59722636920136      0.06736243751031     -0.50892267347074
  H   -2.33440929022710      0.67970177402874     -1.03303345271373
  H   -1.99983815359116     -0.16908058316816      0.47841180550938
  H   -1.46752061552439     -0.86590439481230     -1.05631295058029
