14
Coordinates from ORCA-job run
  C   0.66562510815264      0.08909713537663      0.45068720356414
  C   -0.84040542931636     -0.09824725441862      0.25206584509704
  Br  1.09324369493350      1.99824965668748      0.68091360462497
  H   -1.01330979636140     -1.18270220979227      0.23648864549635
  H   -1.34955495513446      0.28705184727219      1.13916315986749
  N   1.39324760182163     -0.38011685625453     -0.70429176800582
  H   1.17431840300227     -1.35958213414895     -0.86074183963943
  H   2.39267409440249     -0.29145781897309     -0.56024791872500
  C   1.07683736644160     -0.55828020362836      1.70859201519356
  N   1.40416998170159     -1.14680124984529      2.67290242973395
  C   -1.39006454748975      0.54033999862829     -1.01662387380860
  H   -0.87355309684929      0.16962518321237     -1.90125162739527
  H   -2.45346438452274      0.30905040719924     -1.10998412472718
  H   -1.28076404078172      1.62477349868490     -0.98867175127620
