14
Coordinates from ORCA-job run
  C   0.80169688328453      0.02509526853158      0.29641628150301
  C   -0.37231353326621     -0.09400760766578     -0.68441968484725
  Br  1.37869270223351      1.91389875652702      0.36082871949635
  H   -0.58055644929687     -1.16874891944455     -0.76374436521370
  H   -0.00463135490765      0.23721779492421     -1.66153861479047
  N   1.97091744371130     -0.75591842061223     -0.03722739781743
  H   2.24876358457661     -0.56234064918854     -0.99317274377861
  H   1.75862236360464     -1.74431824027563      0.05347440420637
  C   0.36831118072447     -0.34123427361120      1.64808396888830
  N   -0.02379544163258     -0.68610637288235      2.70066499261988
  C   -1.64081694596292      0.65474962553924     -0.29883587771184
  H   -1.46889996724151      1.73061231879859     -0.25916048587563
  H   -2.01182626700811      0.32789118238347      0.67498294221980
  H   -2.42316419881921      0.46320953697617     -1.03635213889878
