14
Coordinates from ORCA-job run
  C   0.86749230814907      0.20078089356085      0.23962377767844
  C   -0.35253090606249      0.85811197584750     -0.40291180414815
  Br  2.33020921664916      1.51278865566596      0.30185918953763
  H   -0.04250494937493      1.17716763824203     -1.40115384424485
  H   -0.60083467210643      1.75210598465259      0.17460213545423
  N   1.32942131751675     -0.91408365381678     -0.55642888563432
  H   0.61255766574631     -1.63203108763023     -0.57621917657776
  H   2.16637035004207     -1.31635071801386     -0.14926485639093
  C   0.57946995927141     -0.15459547321505      1.64087657150001
  N   0.30850735918988     -0.50568235518464      2.73037094817378
  C   -1.55974627174440     -0.07416730107675     -0.48002066140239
  H   -2.42120660503308      0.47437306783593     -0.86607045755650
  H   -1.83131380416392     -0.46627917215669      0.50315555361679
  H   -1.38489096807939     -0.91113845471086     -1.15941849000598
