13

C	0.0	0.0	0.0
C	-0.437738	-0.33904	-1.407641
F	1.358619	0.0	0.0
H	-0.241966	0.536699	-2.04337
H	-0.366083	-0.757768	0.712253
H	-1.517239	-0.504874	-1.369538
N	-0.586973	1.253935	0.451391
O	-1.750951	1.427995	-0.123237
O	-0.319721	1.587257	1.636477
N	0.249084	-1.566059	-1.834583
H	1.238264	-1.36888	-1.926005
H	-0.094621	-1.823571	-2.751899
H	-2.834158	0.0	0.0
