13

C	0.0	0.0	0.0
C	-0.395196	-0.140017	-1.462624
F	1.36511	0.0	0.0
H	0.371413	0.443994	-1.990233
H	-0.397615	-0.74273	0.686937
H	-0.176822	-1.201657	-1.681606
N	-0.351002	1.343245	0.591854
O	-0.16574	2.326091	-0.118741
O	-0.676729	1.360084	1.777134
N	-1.722257	0.303257	-1.830705
H	-2.418624	0.208538	-1.037381
H	-2.079636	-0.317785	-2.547552
H	-3.511972	0.0	0.0
