13

C	0.0	0.0	0.0
C	-0.500329	-0.334882	-1.385712
F	1.35956	0.0	0.0
H	-1.588652	-0.189302	-1.367059
H	-0.330574	-0.735193	0.73359
H	-0.062469	0.3899	-2.075212
N	-0.631686	1.257852	0.411699
O	-1.754517	0.985235	1.022572
O	-0.43494	2.26045	-0.328215
N	-0.20399	-1.703463	-1.820982
H	0.747997	-1.929661	-1.553844
H	-0.810296	-2.331721	-1.305434
H	-2.930126	0.0	0.0
