12

C	-0.402081	-0.000746	-1.449606
C	0.0	0.0	0.0
Br	-2.394037	0.035265	-1.67014
H	1.094722	0.0	0.0
H	-0.094897	0.930117	-1.928629
H	-0.369069	0.883188	0.52637
H	-0.360386	-0.899725	0.506708
C	0.161935	-1.188912	-2.197995
H	1.250398	-1.159866	-2.065282
H	-0.215265	-2.123083	-1.774655
H	-0.08791	-1.159453	-3.261427
H	3.09258	0.0	0.0
