14
Coordinates from ORCA-job run
  C   -0.50046931864490     -0.36724431175452     -0.03607835511746
  C   0.74257952171757      0.31952044908785     -0.66753127114778
  Cl  -0.76516569961405     -1.88878311036802     -1.01218693894795
  H   0.51382882636066      0.58294765278991     -1.70754101161189
  N   -1.59051232683316      0.54162979476746     -0.10722224404691
  H   -2.41139604567284      0.15136080752779      0.33959503827869
  H   -1.82251210095989      0.79964274473171     -1.05931211064465
  N   -0.18590201867444     -0.76917343733635      1.30304756459525
  H   -0.68532330900744     -1.60224362817038      1.58016797408531
  H   -0.37995199590302     -0.00870288425100      1.94416887557973
  C   1.90611478570091     -0.56922321935423     -0.65978240670829
  N   2.85763188914533     -1.25524356698064     -0.68587448353977
  C   1.04263688686630      1.54463360331577      0.08066298555520
  N   1.27844090551896      2.51987910599465      0.68988638367051
