14
Coordinates from ORCA-job run
  C   -0.47337498321136     -0.40429782756848      0.01151811500682
  C   1.03745360580070     -0.06842822723004     -0.12877195010638
  Cl  -0.72397169023657     -1.93929295899174     -0.94598775851489
  H   1.62522031980385     -0.87916716934229      0.31910854127812
  N   -1.24395538618052      0.62343799771138     -0.62311806829697
  H   -1.41891051724816      1.37583024834952      0.03291555857802
  H   -2.11269876053908      0.27300143776500     -1.00067858327585
  N   -0.76483567638331     -0.55243519463799      1.39482805649026
  H   -1.75355431545196     -0.72106460318041      1.53598477975075
  H   -0.23621764156239     -1.30144101459747      1.82675758622147
  C   1.31736939484958      1.17824416514507      0.59115486403021
  N   1.52626475711175      2.18114238936493      1.16405785607066
  C   1.42939305646906      0.06605300683544     -1.53303732496961
  N   1.79081783677841      0.16741775037706     -2.64473167226260
