14
Coordinates from ORCA-job run
  C   -0.45748201470836     -0.33516413902316     -0.09983805504450
  C   0.84988393529602      0.49519479757947     -0.01405247724501
  Cl  -0.42737717135395     -1.28111706514473     -1.60733448065494
  H   0.80237776618165      1.06700541224406      0.92443048181843
  N   -1.54876492039633      0.60641141308394     -0.20759685834758
  H   -1.70819476445865      1.05690220444912      0.68765134990551
  H   -2.40042862686698      0.13690788666848     -0.49119154992373
  N   -0.43166758896376     -1.27678956319632      0.99641505990656
  H   -0.60968732172983     -0.79530128628385      1.87180473950958
  H   -1.13698023039889     -1.99291043182614      0.87033787066974
  C   0.95591783456283      1.45519375052151     -1.11513614276131
  N   1.07026907879557      2.24555290720423     -1.97493329180968
  C   2.03477188651912     -0.36356167929179      0.04764304969640
  N   3.00636213752156     -1.01832420698483      0.11180030428053
