13
Coordinates from ORCA-job run
  C   0.50923201617634      0.05887466324896      0.27525751953242
  C   -0.71161421913824      0.03623118210545     -0.35318657294768
  N   1.01905139377141     -0.78306199896963      1.17575415956686
  H   2.00857006552115     -0.70772753278922      1.35788688825021
  H   0.52059662193906     -1.64523181022805      1.34011393250502
  N   1.43925161788349      1.19404215442559     -0.00699904097331
  O   0.95628931449839      2.25282783701137     -0.38709923568270
  O   2.63026416763288      0.96328036765751      0.19120135064994
  N   -1.63603667832715     -1.06876688092671     -0.11301836896811
  O   -1.28696505041603     -1.95684637952314      0.67289659825073
  O   -2.70533450661913     -1.04078626390822     -0.71014603665625
  C   -1.16317205653644      0.97952058853736     -1.31168165824454
  N   -1.58013268638572      1.71764407335874     -2.12897953528260
