13
Coordinates from ORCA-job run
  C   0.47374957953500      0.16218440163802      0.26424187898367
  C   -0.78084420943328      0.04212619014825     -0.24487201577800
  N   0.89958386436877      1.09403800179168      1.14074672741140
  H   0.20481562105050      1.61531279928427      1.65541379003092
  H   1.75832673125577      0.88703757137460      1.62922657906750
  N   1.58671501396302     -0.68634983153790     -0.21851153410729
  O   1.74373893637285     -0.76309186680251     -1.42909735902371
  O   2.28820814702705     -1.18273567122713      0.65916838523095
  N   -1.16892654040547     -1.02050762855101     -1.17018557093675
  O   -2.06375793307329     -0.73940895859623     -1.96174038110233
  O   -0.59916105943962     -2.10108279914000     -1.05929664330907
  C   -1.79003070600481      0.94926583486988      0.15921355581139
  N   -2.55341744521650      1.74321195674807      0.57669258772132
