13
Coordinates from ORCA-job run
  C   0.56744577731368     -0.00817952489416     -0.02957601041121
  C   -0.77377703192276     -0.12938749653965     -0.22582004546299
  N   1.52974975234369     -0.53272548858035     -0.80875523682649
  H   2.46617259072310     -0.57929691758776     -0.43868813605499
  H   1.26848799633380     -1.24219337236526     -1.47780625470244
  N   1.11796965278860      0.82792368688108      1.05500589569120
  O   1.81364904632709      0.23355207162337      1.87258285449382
  O   0.89130464423524      2.02821483362053      0.99247154235723
  N   -1.76829404638397      0.46746452300406      0.65747831475790
  O   -1.42439454778328      0.72833768529954      1.80602092440526
  O   -2.88245674786600      0.63802076384279      0.17071291102892
  C   -1.25767569342015     -0.88458465459297     -1.32204558202568
  N   -1.54818139268905     -1.54814610971122     -2.25058117725054
