13
Coordinates from ORCA-job run
  C   0.53343220954447      0.06821364057912      0.22373976358599
  C   -0.67051203543024     -0.11204281996437     -0.41113473613091
  N   0.97620811261714     -0.44483638398888      1.37289788121371
  H   1.79408951737801     -0.01550862028661      1.77891515240751
  H   0.31646723630925     -0.95204987812424      1.94331974882395
  N   1.56672950420195      0.92209923538597     -0.43316389461341
  O   1.54894047927090      1.00727257657686     -1.65457589517335
  O   2.37350013639089      1.45394087275298      0.32613139093172
  N   -1.71999546317783     -0.90621533041130      0.22312517073148
  O   -1.46177693767039     -1.45308909999068      1.30125261164903
  O   -2.79403521117321     -0.97979679503690     -0.36162559053471
  C   -1.04551632724793      0.47215327337859     -1.64796521446686
  N   -1.41753122101302      0.94085932912946     -2.66191638842415
