13
Coordinates from ORCA-job run
  C   0.48499043783043      0.14487237556712      0.25172958286213
  C   -0.78302200059269      0.06332340970738     -0.23355030136991
  N   0.94880482394006      1.05852312191903      1.12632092042741
  H   1.81588449193319      0.84358234181241      1.59417708607518
  H   0.27546456514883      1.60418695222120      1.64468837645170
  N   1.56723102986323     -0.72617928624158     -0.25965988235966
  O   1.75503903824849     -0.72614923741778     -1.46762385266030
  O   2.21457254015632     -1.31614737437184      0.60089670366599
  N   -1.22385702755390     -0.98290643870336     -1.15008214446609
  O   -0.61713493322525     -2.04879857697023     -1.12910420539800
  O   -2.19563802869998     -0.70648167753011     -1.84788257932533
  C   -1.75805244611732      0.98938970821005      0.21111221189665
  N   -2.48228249093142      1.80278468179772      0.65997808420023
