13
Coordinates from ORCA-job run
  C   0.54900215458474     -0.00551762525732      0.19308810983575
  C   -0.69908869743142      0.03378414794589     -0.37713455757686
  N   1.10910435130784     -0.94526193019750      0.95731663338141
  H   0.51330913881967     -1.68597789968385      1.29605348294520
  H   1.94457043046860     -0.68262479160466      1.45878237603192
  N   1.49105445304831      1.12152146202215     -0.07512977622440
  O   1.36588530001763      1.73632834752306     -1.12662376213256
  O   2.33852904366818      1.31936443850970      0.79271165096564
  N   -1.65971953298807     -1.03356226532323     -0.10934170284503
  O   -2.76664410368929     -0.92887494323929     -0.62361146945484
  O   -1.29867817122447     -1.97130850002152      0.61062392022872
  C   -1.20524296399560      1.09158178235023     -1.17529985671779
  N   -1.68308140258612      1.95054777697635     -1.82343504843716
