13
Coordinates from ORCA-job run
  C   0.47350332620019      0.17543256764540      0.25415518847417
  C   -0.77653066651018      0.02900460444396     -0.26037067130509
  N   0.90380867230565      1.18306108068527      1.03912688225288
  H   1.74658170494820      1.01305109240189      1.56703586905308
  H   0.21144827958674      1.77606703499873      1.47291258682926
  N   1.57663675776532     -0.73803904348921     -0.11750902416429
  O   1.77897648198968     -0.90839827354902     -1.31124888649520
  O   2.22892551934926     -1.18365609337371      0.82288942979427
  N   -1.17384655189541     -1.10816288202544     -1.08606375094091
  O   -0.59745246697387     -2.17387399492425     -0.89481825435488
  O   -2.08147085272069     -0.89741392906119     -1.88521695003719
  C   -1.77089295356711      0.99252815288441      0.03712592882612
  N   -2.51968725047777      1.84139968336317      0.36298165206778
