13
Coordinates from ORCA-job run
  C   0.49064288359435      0.06807364620638      0.32442382103450
  C   -0.75977479805630      0.07794212062921     -0.21186143520256
  N   0.89886609134612      0.77633916596396      1.40069335908417
  H   1.89502483249313      0.89316641024003      1.50484318589492
  H   0.30495189195836      1.52149444726069      1.73097996001790
  N   1.54875251477663     -0.80654492893435     -0.23084144675080
  O   2.66555603877045     -0.68852874904213      0.26901352254148
  O   1.23927918062432     -1.55651105565073     -1.15008602678897
  N   -1.22631852519890     -0.80417181937825     -1.29693932452258
  O   -1.63115950511940     -1.91036808730979     -0.96496835448716
  O   -1.22435138203731     -0.31536783039093     -2.42072443996994
  C   -1.72518236712335      0.98175521473059      0.28913157133842
  N   -2.47528685602809      1.76272146567530      0.75533560781063
