13
Coordinates from ORCA-job run
  C   0.45153310790547      0.12235471271692      0.30799420977427
  C   -0.78237130494267     -0.00710276172319     -0.25290331892916
  N   0.76927598086471      0.93655504719992      1.32991657490365
  H   0.09123389412644      1.61654063902384      1.64202839151107
  H   1.73847713183539      1.14105364034718      1.51258248094899
  N   1.60359865785923     -0.68271065026330     -0.13919191056534
  O   1.91456964759299     -1.62056739905074      0.58280984822251
  O   2.17099543014480     -0.27891321317966     -1.14665807395353
  N   -1.09279699455032     -0.98525589717175     -1.28445520421505
  O   -2.19253115218016     -0.87270254781778     -1.81751275312203
  O   -0.24483680337235     -1.83650268551463     -1.53353234462344
  C   -1.82614905908043      0.85046528718811      0.17613440763694
  N   -2.59999853620311      1.61778582824509      0.62278769241112
