13
Coordinates from ORCA-job run
  C   0.57268242294332     -0.07243919958993      0.08270973894996
  C   -0.74991389678337      0.13564218376349     -0.22601906820362
  N   1.14682688046078     -1.09999873918912      0.70992376371793
  H   2.09910628133258     -0.96739980152149      1.01573299108583
  H   0.54362004589827     -1.77487971075607      1.15500875338768
  N   1.58344461091986      0.93929903949419     -0.35702071447275
  O   1.28221209655950      1.69322929713756     -1.27366757601619
  O   2.65436264900387      0.91484216050981      0.24507747022725
  N   -1.76116446691384     -0.82487159792524      0.21336318732719
  O   -2.92440742375134     -0.58346978771060     -0.08586319929677
  O   -1.38530148142292     -1.81485648045893      0.85012808349884
  C   -1.27883583855362      1.26690356799727     -0.89801358705346
  N   -1.78363187969307      2.18799906824905     -1.43035984315190
