13
Coordinates from ORCA-job run
  C   0.49264271596889      0.18844169093089      0.20278987132995
  C   -0.81153242706625     -0.03447105117232     -0.10888217234497
  N   0.97744539068471      1.19737016788721      0.95407412202899
  H   0.37646462381234      1.98960910791594      1.12867487661153
  H   1.96363236031808      1.39060367396068      0.86429219408676
  N   1.55209451279157     -0.77756436178514     -0.16552682710650
  O   1.37012191949267     -1.94613554537029      0.14695380876488
  O   2.54959667486435     -0.29004896764173     -0.69073744794084
  N   -1.25476568814573     -1.13894886280026     -0.95563210625342
  O   -0.47668355195173     -1.53842682786772     -1.81560991578485
  O   -2.39114303417523     -1.55204624588786     -0.74433202409294
  C   -1.80562636434367      0.85191940404972      0.37248080746874
  N   -2.54224713225000      1.65969781778089      0.81145481323267
