13
Coordinates from ORCA-job run
  C   0.49436044514610      0.21545683718632      0.16957212797311
  C   -0.81298112937536     -0.05393174152254     -0.08928454166468
  N   0.97886568765929      1.30729575884252      0.79383609169929
  H   0.36746745269486      2.10359724126547      0.89738813387345
  H   1.96006200304917      1.50387582770631      0.66638140897151
  N   1.56044883839097     -0.77570722615755     -0.10473894510234
  O   1.41535728893687     -1.89375940244022      0.36808479528640
  O   2.52509816531872     -0.34593974146008     -0.73182977609797
  N   -1.25678555813122     -1.25717287476970     -0.78899818080290
  O   -2.39408098981293     -1.63844833251824     -0.52852575178615
  O   -0.47862929867359     -1.76411662885978     -1.58988327018956
  C   -1.80901444325142      0.87554314274440      0.29700493325229
  N   -2.54916846195145      1.72430713998310      0.64199297458753
