13
Coordinates from ORCA-job run
  C   0.48470593391109      0.11736580173044      0.26740816411679
  C   -0.77510659903787      0.10310923963052     -0.24403524550710
  N   0.98031182534214      1.00564842839177      1.15248019191224
  H   0.32651786697628      1.58187148936109      1.66231043447816
  H   1.81492322616248      0.72786505664103      1.64666662054016
  N   1.52727032967132     -0.81334607987153     -0.21825448124748
  O   1.69072867778648     -0.88409144354178     -1.42817585508964
  O   2.17432879500800     -1.38073174625383      0.65821937855033
  N   -1.24549842590316     -0.90982447677814     -1.18534870225240
  O   -2.12018924316774     -0.54852891892693     -1.96694906624354
  O   -0.75535503060601     -2.03094819363801     -1.09913869925284
  C   -1.70538836921318      1.08861706683436      0.16688803369340
  N   -2.39724898692981      1.94299377642102      0.58992922630190
