13
Coordinates from ORCA-job run
  C   0.49366081655346      0.07437629063414      0.31576185955910
  C   -0.76087625695040      0.07374709425186     -0.21290759761733
  N   0.90208219401500      0.79077124851007      1.38466295243638
  H   0.29064767554665      1.50679906658760      1.74528660807361
  H   1.89567667492052      0.91851604614842      1.49472121371283
  N   1.55925061404606     -0.78423241386951     -0.25067731894076
  O   2.64956795304599     -0.73817142454798      0.31531936072892
  O   1.28437891364969     -1.44399804809488     -1.24668926526462
  N   -1.24001239887599     -0.84257529524524     -1.26191578970056
  O   -1.41289796786849     -0.34016888280404     -2.36658113484239
  O   -1.48099879792173     -1.99313039894226     -0.92068432658696
  C   -1.71901602694175      0.99279045070100      0.27377993951750
  N   -2.46146339321900      1.78627626667083      0.73092349892428
