13
Coordinates from ORCA-job run
  C   0.55748311602040     -0.04367468229411      0.15217992805326
  C   -0.72589622950728      0.10100848049695     -0.30506971708972
  N   1.14961518997614     -1.09168987722879      0.73843042352609
  H   1.97557461053305     -0.86696076922616      1.27910192693831
  H   0.54518612869170     -1.84998888344430      1.01994076010957
  N   1.50876388434144      1.08142614130773     -0.04045364335134
  O   2.31110788040064      1.26780897314553      0.87111407030217
  O   1.44655098213594      1.70420790362534     -1.09392408621515
  N   -1.70137014247169     -0.96782542004746     -0.09485946689078
  O   -1.29221833880643     -2.04208436722977      0.35574296732024
  O   -2.86337683959257     -0.72862166720001     -0.39673745978875
  C   -1.22769473079416      1.25069422175278     -0.96675072564692
  N   -1.68372551092718      2.18569994634225     -1.51771497726698
