13
Coordinates from ORCA-job run
  C   0.58694750937837     -0.00760073684872     -0.06516364016826
  C   -0.76715102982935     -0.04370313497445     -0.19976170598461
  N   1.48707309513578     -0.27839142106872     -1.03483926337287
  H   2.42462146556967     -0.49506170898578     -0.73504715805842
  H   1.15751667033269     -0.70142699751038     -1.88873187989097
  N   1.21410717792542      0.38585201511891      1.21743295666513
  O   0.47013170182944      0.60441788245735      2.16718819005047
  O   2.44256866938972      0.42947867498996      1.22809596481441
  N   -1.73129668110253      0.42477605619170      0.81019904910619
  O   -1.86308012828485      1.63587472857967      0.92877016362080
  O   -2.35551341727102     -0.45476790174288      1.39307449414755
  C   -1.33356745991467     -0.53821691052825     -1.39707643793498
  N   -1.73135757315868     -0.96123054567841     -2.42314073299445
