13
Coordinates from ORCA-job run
  C   0.56683184180618     -0.00597917706617      0.13389841789862
  C   -0.73537083252030      0.01602241698636     -0.30162852118166
  N   1.16040073041844     -0.82620590378996      1.00268094084028
  H   2.06291201452569     -0.54095772578167      1.35278627631365
  H   0.57230231232558     -1.45474977327185      1.52935087083734
  N   1.53103997159658      0.98026126934064     -0.44064945142872
  O   2.50576338251346      1.23748743439305      0.26267096518517
  O   1.29578521058610      1.43307302686986     -1.55345419188369
  N   -1.71162067119058     -0.90935029916269      0.26839435199409
  O   -2.87024573187185     -0.80308174810420     -0.11506244942302
  O   -1.31229813243580     -1.73821361477024      1.09396594201397
  C   -1.27750926945917      0.93327330009801     -1.23814990597928
  N   -1.78899082629432      1.67842079425887     -1.99280324518675
