13
Coordinates from ORCA-job run
  C   0.49649693033663      0.19990236780342      0.16221410253309
  C   -0.82001230145263     -0.04689789036310     -0.08062079264042
  N   0.99230259976190      1.22410473719944      0.87293826601840
  H   1.98352840989674      1.40130817267056      0.85224935436163
  H   0.37419617339724      1.94916481333268      1.20198053570622
  N   1.55041878356994     -0.75087435217751     -0.25021453599541
  O   1.39979554537109     -1.92061764007891      0.07548368581289
  O   2.52108027500650     -0.25345013659558     -0.81507897312322
  N   -1.28060036041842     -1.17647071716376     -0.88196540876648
  O   -0.56182700832055     -1.54334778047046     -1.80587331099070
  O   -2.36894692727433     -1.64654036442682     -0.56407810477129
  C   -1.79260022342539      0.86557929747162      0.38952243074884
  N   -2.49283189644872      1.69813949279841      0.84144275110643
