13
Coordinates from ORCA-job run
  C   0.50211759838173      0.11975998032288      0.26659373413854
  C   -0.70158523559428     -0.02601084573717     -0.37527923300108
  N   0.87545279550187     -0.26060819440891      1.49145289851608
  H   1.86811961537121     -0.29794807084381      1.66883792551410
  H   0.24611806201320     -0.86384055324916      2.00161497825318
  N   1.59081379656491      0.84896905785836     -0.44030796012530
  O   2.72925387809872      0.44226187678927     -0.21657349553811
  O   1.27699383547187      1.79085585578940     -1.15751051060268
  N   -1.77446942132480     -0.79437828867605      0.24630902674176
  O   -1.60873904267124     -1.17610918450347      1.41062795382783
  O   -2.77422003179095     -1.00587365578654     -0.42901594687494
  C   -0.98162385145665      0.43361626121998     -1.68832508564391
  N   -1.24923199856557      0.78830576122524     -2.77842428520547
