13
Coordinates from ORCA-job run
  C   0.54787796869043      0.02163445032771      0.20249340485617
  C   -0.68562548812410     -0.04382391660228     -0.39541827392405
  N   1.03861857409917     -0.67809050776347      1.22752472303456
  H   0.39602150262852     -1.26252543587917      1.74193532403746
  H   1.87497211809219     -0.31822903353336      1.66286454034324
  N   1.55779927289586      0.96926815527735     -0.35271922346178
  O   2.39859571075278      1.37503118980558      0.44671645543159
  O   1.48839125500873      1.24742355699870     -1.54331167653580
  N   -1.71528580404235     -0.92695694616065      0.14661371452975
  O   -2.81688817544354     -0.89289504585565     -0.38834154324329
  O   -1.41333255310923     -1.65142040386708      1.10141057501505
  C   -1.11780997762550      0.75483690251158     -1.48534985629420
  N   -1.55133440382295      1.40674703474073     -2.36541816378871
