13
Coordinates from ORCA-job run
  C   0.49928699476084      0.21983688471677      0.19804170018982
  C   -0.77163870705174      0.06439446403336     -0.25098245496830
  N   1.00729612216188      1.27661046192240      0.86065413942091
  H   1.90048148883755      1.13785886770636      1.30583516907421
  H   0.38295473725049      1.94467753350860      1.28358142564960
  N   1.52821351460764     -0.80928164370591     -0.09748720216661
  O   2.38949800055537     -0.96705133575211      0.76390516573559
  O   1.45026239979205     -1.38580592717701     -1.17527536925114
  N   -1.23844242795634     -1.17345929805341     -0.89522361814186
  O   -1.84402125233988     -1.01945938226679     -1.95067782233540
  O   -1.02085014694469     -2.22832009287216     -0.31322547009275
  C   -1.74894103060214      1.05085155531156      0.00060794647339
  N   -2.53509969307103      1.88714791262836      0.27124639041254
