13
Coordinates from ORCA-job run
  C   0.51602704394752      0.20459090486470      0.18799339655106
  C   -0.78094184141090      0.01085563494124     -0.17796154466116
  N   1.02408717825975      1.31228993752030      0.75599925373179
  H   1.93777361709662      1.26228394540425      1.17561306479284
  H   0.41270492077933      2.07252854919760      1.00814701243992
  N   1.53017349326854     -0.86096928656660     -0.01531325399719
  O   1.11960898732973     -2.00171295675143     -0.18978249971514
  O   2.70501581035604     -0.50572070796795      0.04756309098966
  N   -1.24741459079272     -1.12532924244202     -0.98326965955019
  O   -2.15536009913655     -1.78598980684947     -0.48706324455459
  O   -0.73957005178710     -1.27798894896634     -2.08677769989624
  C   -1.77194647661104      0.94482008358697      0.20359430890148
  N   -2.55215799129922      1.75234189402877      0.56225777496778
