13
Coordinates from ORCA-job run
  C   0.46261598528891      0.10866912640529      0.30430527070605
  C   -0.75286155151376      0.09904473638638     -0.30570528473787
  N   0.87708365553024      0.98229823610523      1.24350272462367
  H   0.17904222815945      1.54800915186556      1.70496828588300
  H   1.66510572049988      0.70139118240574      1.80582492659065
  N   1.55773133527076     -0.79256934881593     -0.11845269500024
  O   1.93026090553812     -0.70083317532164     -1.27905062548988
  O   2.03656018454212     -1.48604869575699      0.77397986151180
  N   -1.14631197520157     -0.89017246400761     -1.30131570037511
  O   -2.09946893137448     -0.58467847255805     -2.01228108880985
  O   -0.52479253277697     -1.94712433924523     -1.32884833241554
  C   -1.72475368008509      1.06169897005107      0.06576710067329
  N   -2.46021134387763      1.89931509248619      0.44530555684004
