13
Coordinates from ORCA-job run
  C   0.49362336749553      0.11235918106701      0.29922695002377
  C   -0.75432010250016      0.08785524148965     -0.24349866402375
  N   0.89817388038319      0.90976943459131      1.30309955455221
  H   0.25657056467269      1.55415277718690      1.73476117283641
  H   1.78709228720318      0.72544987441678      1.73754790471306
  N   1.56104986687452     -0.79608972216865     -0.19015602849096
  O   1.20930307125902     -1.76821056728027     -0.84757508808968
  O   2.70931143001031     -0.50859310901558      0.13960462810974
  N   -1.12728229164898     -0.65795329668729     -1.45192359188666
  O   -1.98586858035714     -1.51951859147215     -1.29878154325689
  O   -0.58459865711761     -0.32953404476378     -2.49993384757092
  C   -1.80860601134259      0.79697910305396      0.37611107391608
  N   -2.65244882493195      1.39433371958209      0.94351747916759
