13
Coordinates from ORCA-job run
  C   0.51028679074736      0.22690822974456      0.16942124785445
  C   -0.77922409775384     -0.00983822998734     -0.18645143972837
  N   1.00281523165116      1.36800516449647      0.68955553527854
  H   0.37256554248519      2.06409185343928      1.05315845046819
  H   1.93019588886031      1.32362940216810      1.08080625904753
  N   1.55500341785384     -0.78574834861417     -0.08571202838622
  O   1.31684782998282     -1.63335443659569     -0.93827819075907
  O   2.57738129392992     -0.68958764945345      0.58947755007426
  N   -1.26728519887375     -1.26804025195771     -0.76941182523541
  O   -1.36986589926513     -2.22627437954922     -0.01109099543273
  O   -1.59284669805340     -1.21915860388429     -1.95015389967294
  C   -1.75693337408123      0.98413856844901      0.05047061701392
  N   -2.49894072748327      1.86522868174442      0.30820871947785
