13
Coordinates from ORCA-job run
  C   0.57676684636764     -0.00410314158702      0.04914273488312
  C   -0.70418561039043     -0.18989547135380     -0.36453769180523
  N   1.68935577521226     -0.11281476405027     -0.70160014338369
  H   2.51873639695826      0.31194329898868     -0.31801808808148
  H   1.60626504430119     -0.05467685514508     -1.70639333921529
  N   0.88794556694610      0.20399526975082      1.47951475619581
  O   1.59047264943949      1.17502037505547      1.74523706835701
  O   0.47169553862697     -0.64857367864825      2.25226709501296
  N   -1.85131247467686      0.04264669178018      0.50960500649449
  O   -2.89239706429393     -0.53267620836397      0.20223061471429
  O   -1.69905357729971      0.79530459974223      1.46498749089669
  C   -0.98987158731591     -0.43738016936753     -1.72957872132939
  N   -1.20541750387505     -0.55078994680145     -2.88385678273928
