13
Coordinates from ORCA-job run
  C   0.46320421048812      0.16045394889416      0.26733188834171
  C   -0.77027073644811      0.02046434763048     -0.29090043201507
  N   0.82034011189751      1.10042298975216      1.16331109657872
  H   1.65629234752894      0.94608349389092      1.70502859331652
  H   0.09173300179840      1.64255138447552      1.60563101297821
  N   1.60698929861589     -0.68418420086156     -0.12434118974656
  O   1.86054837788206     -1.60747322590595      0.64095708109709
  O   2.22482823092756     -0.33109369152555     -1.11819907279499
  N   -1.09509281903118     -0.99706214039157     -1.27943441460470
  O   -0.21082009895942     -1.78560147993214     -1.59670059394791
  O   -2.24467919210200     -0.97835528743059     -1.71032083254437
  C   -1.81745309287033      0.87231693433426      0.14241489862325
  N   -2.58661963972745      1.64147692706986      0.59422196471812
