13
Coordinates from ORCA-job run
  C   0.48454687905154      0.12792821556920      0.25763939176424
  C   -0.80124932721168      0.03805805342700     -0.17464283308523
  N   0.95522323842136      0.97030820443382      1.19785690398791
  H   0.28575383491438      1.43551759533598      1.79360983452024
  H   1.84130363495576      0.74120502847036      1.62084956655671
  N   1.57106278994621     -0.64577792609184     -0.38151574342195
  O   2.25150934204662     -1.32358263171005      0.38292279247042
  O   1.73313429682967     -0.48124195686886     -1.58235764321225
  N   -1.22507951711676     -0.89618037820352     -1.21528109900660
  O   -2.21013999691810     -0.56231958216214     -1.86674076431174
  O   -0.58952962884906     -1.93942846067532     -1.32885487309092
  C   -1.78746868742015      0.88773236511939      0.38239604283248
  N   -2.51106685864978      1.64878147335597      0.91511842399669
