13
Coordinates from ORCA-job run
  C   0.48563048483036      0.20764818014198      0.23754940910015
  C   -0.78715425331193      0.00145892458827     -0.19522930748655
  N   0.96847994114728      1.32826479411053      0.81142164682556
  H   0.31918697286560      1.98072660621804      1.22445341057676
  H   1.87261368636007      1.22457769040701      1.24859228416785
  N   1.55427124149252     -0.77201315889731     -0.04754553508113
  O   2.48316923139078     -0.81210475836459      0.75828018590919
  O   1.46673393368697     -1.41394474678258     -1.08947065028047
  N   -1.25006727521787     -1.27282234373613     -0.74701766563518
  O   -1.92587077432388     -1.20517720606535     -1.76762175190211
  O   -0.97205741358675     -2.28544427334181     -0.10960572453673
  C   -1.72929421982860      1.05845595307959     -0.16870608391032
  N   -2.48464155550455      1.96037433864236     -0.15610021774703
