13
Coordinates from ORCA-job run
  C   0.49878400740839      0.16241437151206      0.21412635467741
  C   -0.79892636160833      0.02998624103151     -0.17111569078361
  N   0.97197346152816      1.02432635387795      1.13917279028947
  H   1.85602002611425      0.78545361548292      1.56354100948575
  H   0.29014043738755      1.44660851304809      1.75531002809803
  N   1.58816813229764     -0.58110733758744     -0.45221675232098
  O   1.70978006946481     -0.43335282689798     -1.65854899756365
  O   2.31192665802621     -1.22393692710745      0.30462342963134
  N   -1.24850539982290     -0.93546446278385     -1.16788542611451
  O   -0.55054188548294     -1.92655447717160     -1.35439955565736
  O   -2.32236176011672     -0.68348953581561     -1.70907820232136
  C   -1.79058688246795      0.82567534860594      0.45574044243694
  N   -2.51587050272817      1.51044112380547      1.08173057014253
