13
Coordinates from ORCA-job run
  C   0.56479425710240      0.00314247796922      0.14361764757431
  C   -0.73253246385949      0.01678085482493     -0.30985988514973
  N   1.13271886910421     -0.78499413989001      1.05806033528959
  H   0.53044084060638     -1.38132672384876      1.60509551008058
  H   2.04043726346003     -0.50435373849458      1.39763356332156
  N   1.55572752278301      0.94161220618101     -0.46386897144893
  O   2.57764080496153      1.13438433929798      0.19196935269628
  O   1.29676359587712      1.42408804539170     -1.55890513940170
  N   -1.72627852332365     -0.86694062571233      0.29936449493938
  O   -2.88674417930516     -0.73784834110398     -0.07067364721974
  O   -1.34018656838360     -1.68164625481780      1.14453989309917
  C   -1.25855613850456      0.87386932491178     -1.30996472729398
  N   -1.75522528051823      1.56123257529083     -2.12700842648680
