13
Coordinates from ORCA-job run
  C   0.56527392770500     -0.09431948491173      0.14700214956480
  C   -0.75242485933977     -0.27891154720965     -0.11962713971873
  N   1.51529397429768     -1.04550360319883     -0.00613208980921
  H   1.58674022840389     -1.43108867511817     -0.92961501161880
  H   2.40629029545817     -0.81420656271586      0.41715333384098
  N   1.04602494800511      1.21389742173121      0.68773870070547
  O   2.26318294909421      1.37566593485091      0.62189873303829
  O   0.22028935300910      1.95367962434321      1.20042946906542
  N   -1.70693998699713      0.82864673915242     -0.27687443269904
  O   -2.74218252909833      0.74162371986455      0.37313441694275
  O   -1.40020817932733      1.72855511664301     -1.05398469862782
  C   -1.28838329265892     -1.56040370726232     -0.38565616804896
  N   -1.71195682855167     -2.61863497616876     -0.67546726263514
