13
Coordinates from ORCA-job run
  C   0.55806407519297      0.03753485927147      0.17111863389901
  C   -0.73343199353058      0.02623992219535     -0.30642426419466
  N   1.11217564981534     -0.73438760160273      1.10168444249744
  H   2.07585165647823     -0.56669922892629      1.34578815516488
  H   0.53920343567479     -1.41956605804154      1.56938706626284
  N   1.54181967625013      1.01862152068278     -0.39408348575353
  O   2.67840100219731      0.95771050453449      0.06908632519087
  O   1.15499079212421      1.79523090743461     -1.25713728090885
  N   -1.70518844746508     -0.91706437156787      0.24854783551655
  O   -1.32389391777012     -1.70246036062883      1.12416458658761
  O   -2.84588226937990     -0.86659027551623     -0.19530064280951
  C   -1.26713313292537      0.86146411257576     -1.32030160640426
  N   -1.78597652666193      1.50996606958901     -2.15552976504839
