13
Coordinates from ORCA-job run
  C   0.51395283055926      0.21219523009130      0.17178898256480
  C   -0.79009175151762     -0.01706837983053     -0.15066830566078
  N   1.01576660416114      1.34994339787296      0.67925402009024
  H   1.98717835659202      1.37488974879471      0.93971853184011
  H   0.42831514214767      2.15165300272975      0.84167904051038
  N   1.53352108961095     -0.85078562426817      0.00111819001441
  O   2.70021748780600     -0.51132814623871      0.18242301070177
  O   1.13947471890211     -1.96981363802329     -0.30205481279049
  N   -1.29538152697410     -1.24200573528676     -0.79076176514805
  O   -1.97576642086074     -1.97111337426909     -0.07590136511036
  O   -1.03865123558706     -1.39617717904106     -1.97743912073569
  C   -1.74883673563449      0.98822967032169      0.10937101536582
  N   -2.47069855920511      1.88338102714719      0.37047257835785
