13
Coordinates from ORCA-job run
  C   0.51268586158240      0.20255038935350      0.21299078533380
  C   -0.77374583460695      0.00256820281902     -0.18090927180590
  N   0.97279592944986      1.24974836649191      0.93607582285395
  H   0.29620520226485      1.80901386596417      1.43342742326221
  H   1.86989968986349      1.11456693109401      1.37706337721355
  N   1.58669716412985     -0.72440712213373     -0.20998347786718
  O   1.30186475384401     -1.58175278990431     -1.03834870407350
  O   2.68495585109227     -0.55533475481270      0.31730988418793
  N   -1.23339205103847     -1.10083069278520     -1.04160224521912
  O   -1.52787481407794     -2.14602469347401     -0.47438147356894
  O   -1.34072841880966     -0.84338830297705     -2.23385685310999
  C   -1.78082962477000      0.89749410747428      0.24834333377088
  N   -2.56853370892370      1.67579649289012      0.65287139902229
