13
Coordinates from ORCA-job run
  C   0.53679005126754      0.04961164990655      0.20721122150647
  C   -0.67823768189549     -0.13268699832922     -0.40162423912341
  N   1.01903022616977     -0.47597640626082      1.33510519790536
  H   0.36930055078916     -0.99084011579461      1.91243730276392
  H   1.80973282241441     -0.01210401261026      1.75540303172026
  N   1.55262144178974      0.89576732097372     -0.48302620880410
  O   2.28174245210013      1.54632738703177      0.26281681983287
  O   1.59540565519514      0.85935237011553     -1.70608950397666
  N   -1.73026900752552     -0.87519988834781      0.27822128976874
  O   -1.42899380177412     -1.48695133815879      1.31044057711817
  O   -2.84662315533965     -0.85419964927117     -0.22764775626731
  C   -1.06476199841597      0.48540383009558     -1.61944026216778
  N   -1.41473755477514      0.99049585064954     -2.62380747027653
