13
Coordinates from ORCA-job run
  C   0.49371585609103      0.16913119676349      0.20940126720557
  C   -0.80801791264058     -0.01436243241333     -0.14403344056805
  N   0.95077400050521      1.07293869510879      1.09293930868268
  H   1.88387229759548      0.97812842903073      1.45902526613433
  H   0.28814077466814      1.59318937512905      1.64950786211440
  N   1.58163781092551     -0.62779266630565     -0.39018670151530
  O   2.35609076463601     -0.01745922679087     -1.11658801027117
  O   1.63807500378830     -1.79967702416765     -0.03852004498246
  N   -1.22343364813303     -0.91203519290530     -1.21246331591526
  O   -2.41654296676267     -1.19887712859105     -1.23910103606219
  O   -0.36204566548967     -1.29688765620759     -1.99713479529215
  C   -1.82009939250431      0.70012347400731      0.54402701548020
  N   -2.56116692267941      1.35458015734208      1.18412662498939
