15

C	-0.528837	-0.050486	-1.409228
C	0.0	0.0	0.0
F	-0.430421	1.285502	-1.92042
H	1.097901	0.0	0.0
H	-0.312734	-0.942027	0.462461
N	0.186909	-1.033715	-2.075234
H	1.226142	-1.008092	-1.970439
H	-0.14655	-1.313736	-2.988438
N	-1.947282	-0.350836	-1.552862
H	-2.45592	0.341562	-1.011141
H	-2.086302	-1.247123	-1.100927
N	-0.617848	1.107415	0.746478
H	-0.245925	1.969159	0.362891
H	-0.275856	1.055094	1.699979
Cl	3.575538	0.0	0.0
