15

C	-0.420015	0.195472	-1.451737
C	0.0	0.0	0.0
F	-0.225863	1.510284	-1.814161
H	1.091777	0.0	0.0
H	-0.293138	-1.030114	0.276122
N	0.408231	-0.566928	-2.373516
H	1.377019	-0.288516	-2.213686
H	0.355423	-1.54562	-2.10623
N	-1.826544	-0.08272	-1.63503
H	-2.034413	-0.996985	-1.252046
H	-1.996782	-0.11898	-2.635363
N	-0.519527	1.017818	0.902093
H	-1.396549	0.730543	1.31116
H	0.153304	1.164101	1.641611
Cl	3.542041	0.0	0.0
