15

C	-0.385568	-0.028072	-1.471924
C	0.0	0.0	0.0
F	-1.730351	-0.485036	-1.546751
H	1.093623	0.0	0.0
H	-0.34189	-0.944906	0.44882
N	-0.284616	1.250501	-2.066557
H	0.052063	1.927978	-1.397441
H	0.275366	1.206704	-2.904089
N	0.375181	-1.001208	-2.229167
H	0.125111	-1.926708	-1.898092
H	1.357209	-0.860227	-1.999204
N	-0.480136	1.19948	0.679604
H	0.061604	1.335943	1.522708
H	-1.453942	1.092588	0.933902
Cl	3.504996	0.0	0.0
