15

C	-0.510629	-0.068897	-1.424591
C	0.0	0.0	0.0
F	-0.134021	1.157735	-2.033296
H	1.099312	0.0	0.0
H	-0.350953	-0.901206	0.511751
N	0.091206	-1.089423	-2.239072
H	1.100275	-1.001689	-2.149069
H	-0.179557	-1.984794	-1.850958
N	-1.925409	-0.218904	-1.444433
H	-2.311036	0.507789	-0.852692
H	-2.252003	-0.091898	-2.394198
N	-0.58223	1.177766	0.6719
H	-0.126673	1.984625	0.258424
H	-0.273997	1.156196	1.638121
Cl	3.527349	0.0	0.0
