15

C	-0.422229	-0.026445	-1.463058
C	0.0	0.0	0.0
F	-0.273458	-1.298605	-1.969396
H	1.094637	0.0	0.0
H	-0.2916	0.996731	0.385088
N	-1.823416	0.306487	-1.601883
H	-2.008357	0.395924	-2.596321
H	-1.98286	1.212627	-1.17791
N	0.422565	0.80989	-2.301072
H	0.398357	1.75367	-1.929277
H	1.38483	0.495309	-2.17199
N	-0.529273	-1.110345	0.773593
H	-1.488057	-0.927913	1.042127
H	0.032747	-1.221575	1.607327
Cl	3.549853	0.0	0.0
