15

C	-0.595595	-0.005274	-1.390966
C	0.0	0.0	0.0
F	-2.054718	0.025525	-1.147222
H	1.090617	0.0	0.0
H	-0.33128	-0.924825	0.495015
N	-0.24861	1.149505	-2.126978
H	-0.177526	1.909893	-1.459967
H	-0.986384	1.358859	-2.78745
N	-0.307465	-1.192912	-2.10746
H	-0.522729	-1.080151	-3.089028
H	-0.83321	-1.966333	-1.723801
N	-0.432291	1.218347	0.692056
H	0.231499	1.424239	1.426165
H	-1.349071	1.090977	1.098473
Cl	3.64338	0.0	0.0
