15

C	-0.597226	-0.021914	-1.390071
C	0.0	0.0	0.0
F	-2.056767	-0.041803	-1.144106
H	1.090592	0.0	0.0
H	-0.331005	0.934146	0.477149
N	-0.305893	1.149876	-2.131143
H	-0.523885	1.017114	-3.109715
H	-0.827668	1.933243	-1.762029
N	-0.255648	-1.192803	-2.101928
H	-0.994642	-1.413233	-2.757468
H	-0.186533	-1.939763	-1.419811
N	-0.432463	-1.205027	0.715931
H	0.233218	-1.398075	1.451808
H	-1.347907	-1.068158	1.121711
Cl	3.641369	0.0	0.0
