16
Coordinates from ORCA-job run
  C   0.83002488011196     -0.16631792373396      0.10857417448824
  C   -0.62601011828258     -0.44296655834453      0.47604902651453
  F   1.61876029093496     -1.10108305524749      0.77350698370607
  H   -0.66865533204998     -0.49844118477126      1.56666888942976
  N   1.05313880185028     -0.09643280790648     -1.26399845198675
  H   2.00269470987952      0.17897330669611     -1.47706025004105
  H   0.80985853312736     -0.96471306689963     -1.72328247146288
  N   1.29295461905177      1.15141951556524      0.73628037525322
  O   0.76993520019512      1.47080888433311      1.79777283766085
  O   2.20854802154290      1.73804938713459      0.17088542144324
  C   -0.96604115381559     -1.75847328644929     -0.07062756018300
  N   -1.23893192368194     -2.79123270867204     -0.55808473913670
  C   -1.59156806485494      0.62508271478898     -0.04355232579356
  H   -1.50561572498881      0.72343353739856     -1.12508067391227
  H   -2.61627471945494      0.34762839257131      0.20807978571331
  H   -1.37381801956510      1.58526485353678      0.42386897830699
