16
Coordinates from ORCA-job run
  C   0.68430231000122      0.17624719860243      0.23658447777685
  C   -0.68216656060349      0.07651502997388     -0.43241699339821
  F   0.51173777582750      0.63497346949160      1.53074151750638
  H   -0.51079234942910     -0.04859705611075     -1.50402436097427
  N   1.43142401159146     -1.00763298956034      0.15695326644241
  H   0.97652679902472     -1.76202795192566      0.65329418474450
  H   2.35645679962893     -0.85519091386198      0.54346244632238
  N   1.54756218055133      1.24962253010344     -0.43081474811210
  O   1.10973285859199      1.81422694335738     -1.42580741672877
  O   2.63544247158082      1.43722293950803      0.10166530303274
  C   -1.42727146587446      1.32104399707519     -0.22824765558589
  N   -2.07708425549030      2.28078351752348     -0.04519474028858
  C   -1.48324742402465     -1.11126073103593      0.11514697545561
  H   -2.49640858592232     -1.08662797577094     -0.28667441454063
  H   -1.54776519149997     -1.06436672449515      1.20356309652044
  H   -1.02844937395369     -2.05493128287467     -0.19023093817285
