16
Coordinates from ORCA-job run
  C   0.68107359991028      0.03232964262229      0.31363746885988
  C   -0.69451940520692      0.05590312032993     -0.35477376364237
  F   0.57618412512643      0.31426085379092      1.62974251989872
  H   -0.54129030305672     -0.17771751371195     -1.41336367522141
  N   1.33008503203579     -1.21217524384096      0.15886287701768
  H   1.56957038170735     -1.37242676791467     -0.81128880350052
  H   2.16607470789418     -1.24753378798062      0.73082658389287
  N   1.51092938481747      1.18521232907397     -0.30797930681974
  O   1.88780913805628      2.10120435417734      0.40575801201132
  O   1.72678774955118      1.04036953503891     -1.50970697426947
  C   -1.25570410660441      1.40642711633041     -0.27471350959797
  N   -1.73087279899218      2.47738334861968     -0.20018563589898
  C   -1.63413394045749     -0.96591131405314      0.29093755391408
  H   -1.79394676524010     -0.72093733133172      1.34098468458561
  H   -2.59793109567641     -0.95511080916416     -0.21973476855238
  H   -1.20011570386469     -1.96227753198623      0.22199673732267
