16
Coordinates from ORCA-job run
  C   0.73481148843532      0.13198600805172      0.34568362618968
  C   -0.63280308277979      0.09572978370953     -0.36040892557191
  F   0.53812165892639      0.40550992695955      1.65386134572326
  H   -0.43247568826967     -0.05485721607778     -1.42609263093830
  N   1.57391204114113     -1.00611360303470      0.24366253298518
  H   1.18092962013442     -1.79667300804639      0.73555010157583
  H   1.77739750588817     -1.23560046804196     -0.71928654953122
  N   1.52576355333940      1.28473347488549     -0.27064325849379
  O   1.82063289465699      1.10988917630681     -1.45051139434785
  O   1.78821484103961      2.24939379582195      0.42704205067383
  C   -1.30436919308925      1.38812370181228     -0.20736497736778
  N   -1.86401365131771      2.41210885665231     -0.07724275024700
  C   -1.50996220343695     -1.03603735679753      0.18045140009401
  H   -1.04945402677860     -2.00540296399703     -0.01744650252745
  H   -2.48277524031165     -1.02083724579252     -0.31198803892889
  H   -1.66493051757783     -0.92095286241173      1.25373397071238
