16
Coordinates from ORCA-job run
  C   0.69427479410956      0.17915398405878      0.20446721219605
  C   -0.69701538348882      0.06690206512597     -0.40815500119624
  F   0.57396986351093      0.68211019417202      1.48829803628151
  H   -0.56698340312595     -0.09710027616687     -1.48028878881191
  N   1.43058248338443     -1.01191290655383      0.13574182914906
  H   2.37132077006837     -0.85504161498399      0.48033598944074
  H   0.99024439350629     -1.74807530319461      0.67107495208962
  N   1.53820719617990      1.22343313301130     -0.53057621662730
  O   1.06483809826242      1.76062608303605     -1.52448632148688
  O   2.64726657829344      1.41939818006581     -0.04729154670485
  C   -1.42786565177997      1.32217520199606     -0.22020453892693
  N   -2.06779317244431      2.29067955531660     -0.04873723453583
  C   -1.48449933614582     -1.09485373671473      0.21083829427172
  H   -1.50725425590031     -1.00851334098462      1.29841997337845
  H   -2.51193543560759     -1.07643492946521     -0.15313161691040
  H   -1.04835753882256     -2.05254628871872     -0.07730502160681
