16
Coordinates from ORCA-job run
  C   0.73508480445547      0.13160727545270      0.34608050890155
  C   -0.63329326761304      0.09687100136856     -0.35871904837106
  F   0.54053237065388      0.40287552157753      1.65477826649922
  H   -0.43306347495807     -0.04902186409453     -1.42497841850595
  N   1.57375011419407     -1.00676514800799      0.24074340721644
  H   1.18120588287906     -1.79772574154876      0.73239014159023
  H   1.77479868074649     -1.23517557350385     -0.72306944911293
  N   1.52563262472093      1.28493550954111     -0.26968751054436
  O   1.81779196691865      1.11270221453476     -1.45057147068930
  O   1.79019879347079      2.24809008061322      0.42929568212021
  C   -1.30519001774237      1.38858579587011     -0.20094402185307
  N   -1.86460131402315      2.41235015871395     -0.06825420300392
  C   -1.50925013667581     -1.03735788343679      0.17837442005988
  H   -1.04938992800165     -2.00572127722715     -0.02524985524945
  H   -2.48318814237623     -1.01992198852017     -0.31163186380362
  H   -1.66201895664903     -0.92732808133270      1.25244341474612
