16
Coordinates from ORCA-job run
  C   0.85174599201725     -0.33640948863754      0.17459573642732
  C   -0.62657554067949     -0.48547729399607     -0.24479818328301
  F   1.05966750455988     -1.23728556486951      1.16614865686047
  H   -0.74159508755346     -1.55980856678737     -0.43812785808272
  N   1.86101996210889     -0.48294352942524     -0.80426975272940
  H   1.81723660466168      0.26435186992597     -1.48508186436274
  H   1.78986504434442     -1.38228530586852     -1.26315482475360
  N   1.02191868120978      1.05577519175340      0.77237033726061
  O   1.05737177320121      1.96640784766072     -0.05041507270385
  O   1.05786666840735      1.15592998464923      1.98902113929360
  C   -0.87912096254449      0.21565712661525     -1.50279330092574
  N   -1.10009079905133      0.76179513125551     -2.51856216835487
  C   -1.60882520902160     -0.06026385338851      0.85040916753121
  H   -1.58607806297549      1.02101978150214      0.99485191805425
  H   -2.62356831444575     -0.34531461347700      0.57013232271383
  H   -1.35083825423885     -0.54814871691248      1.79067374705466
