16
Coordinates from ORCA-job run
  C   0.85353379821841     -0.31697102762218      0.20091428530428
  C   -0.60695480737915     -0.50158357892966     -0.26435583119200
  F   1.05202291402625     -1.21359568983234      1.19832005351394
  H   -0.68911605888640     -1.57826606877818     -0.46116110638512
  N   1.89544817772523     -0.43712861812460     -0.74669692410179
  H   1.85226733353295     -1.33134065643266     -1.21918713401355
  H   1.86123425460612      0.31804840751517     -1.41938106905580
  N   0.97161515682973      1.07818482411817      0.80501252109234
  O   1.01070947295496      1.99118024682089     -0.01493619615374
  O   0.96741962733531      1.17673711568727      2.02230684016866
  C   -0.83601967929474      0.19468232975777     -1.52954092422129
  N   -1.03533930707868      0.73618414496568     -2.55219780455417
  C   -1.63256568621442     -0.10158297158643      0.80014550452750
  H   -1.64389246515308      0.98015429596415      0.94161984254008
  H   -1.38877138845778     -0.58006329143521      1.74880983564331
  H   -2.63059134276471     -0.41463946208784      0.49132810688735
