16
Coordinates from ORCA-job run
  C   0.84644729830880     -0.11977065056599      0.00657734860310
  C   -0.55591359466610     -0.63195099475901      0.32734464348085
  F   1.74565228392476     -1.14528106345897      0.28760901145001
  H   -0.51288939922553     -1.04971775698939      1.33617427745577
  N   0.96304051107901      0.41487104903228     -1.27286239783788
  H   0.75337931037659     -0.27366361123651     -1.98419784474090
  H   1.86746173942044      0.84060887487779     -1.42533127761198
  N   1.25628219982187      0.95503251867819      1.01771349431597
  O   2.04649982157057      1.80762446517917      0.63020245782143
  O   0.82521323975212      0.82580576787958      2.15785845283566
  C   -0.84785580193501     -1.71430220613963     -0.61462153779184
  N   -1.09248178345360     -2.54537843951594     -1.40724516796231
  C   -1.62480336096435      0.46059108562355      0.24547856816141
  H   -1.43090252864378      1.23103202208524      0.99178036649426
  H   -2.60661979629037      0.03013022588694      0.44734909090621
  H   -1.63251013907542      0.91436871342269     -0.74482948557974
