16
Coordinates from ORCA-job run
  C   0.78076181509520     -0.34221937129981      0.15300962857401
  C   -0.69087141845262     -0.40335512265013     -0.27820320274418
  F   0.95505304482834     -1.06293158526009      1.30211119500866
  H   -0.77888807265773     -1.39876267804096     -0.72969296834854
  N   1.63061293866265     -0.83048067037531     -0.84105740837082
  H   1.38819103183981     -0.47138450496559     -1.75521139931416
  H   2.59761650585579     -0.60863110493249     -0.63812279141554
  N   1.16826310244094      1.10039866726964      0.61047838537526
  O   2.27201107188526      1.50714067324600      0.26249123020938
  O   0.36782577752939      1.69575929912058      1.32115173769002
  C   -0.90677829361613      0.57811111124064     -1.34228611988453
  N   -1.05848332182806      1.36326256952701     -2.20250730296931
  C   -1.73715705296601     -0.29103819738778      0.83490534865590
  H   -1.79469076501124      0.71809028619223      1.23178804744528
  H   -1.48392425604176     -0.97843926984314      1.64163352053814
  H   -2.70954210756382     -0.57452010184080      0.42851209955043
