16
Coordinates from ORCA-job run
  C   0.94068524164071     -0.20807432721083      0.05976038791887
  C   -0.50857810076913     -0.67044854403512      0.30820788132334
  F   1.75150986953211     -1.22876424065888      0.46717817016973
  H   -0.53175541458998     -1.09129861245906      1.31844591153367
  N   1.30147024811129      0.22435333452025     -1.22063537691525
  H   0.87979983951921     -0.31889327093128     -1.95997652832757
  H   1.20033003297761      1.21930026661017     -1.34813890368346
  N   1.17996712334518      0.94106636439278      1.04748750355862
  O   1.24535756951255      2.08194684051075      0.60072153841827
  O   1.22424419022734      0.61516859132688      2.22574414999260
  C   -0.79665481265702     -1.73479565202187     -0.65214552501542
  N   -1.02508369701947     -2.54369144287462     -1.47227580892054
  C   -1.52164731947462      0.46863748850939      0.17879395131855
  H   -2.53474390685960      0.07852155167657      0.28125696592313
  H   -1.43776428989218      0.95441824893113     -0.79484027004590
  H   -1.36513657360399      1.21355340371375      0.96041595275136
