16
Coordinates from ORCA-job run
  C   0.71880542267505      0.17788173626021      0.35962434889972
  C   -0.62922630743739      0.05309053598191     -0.37424437079064
  F   0.47870118487503      0.46305830824144      1.65775090623426
  H   -0.39704319995514     -0.10742814925987     -1.43196748670418
  N   1.62141578295006     -0.91354467698296      0.29598910250664
  H   1.26127264580968     -1.71702529282021      0.79187559169778
  H   1.86078691428929     -1.14549068214815     -0.65809159250112
  N   1.45755253196660      1.36172380117455     -0.26184588666070
  O   1.78956246754953      1.18171426369295     -1.43106825294183
  O   1.64617797249036      2.35402552290083      0.42070451281741
  C   -1.37229960383415      1.31020457875041     -0.26387743883033
  N   -1.98727770365285      2.30646415891589     -0.17524062300007
  C   -1.45497378763130     -1.11434410184204      0.17141494490757
  H   -1.64025304821745     -0.98709658879620      1.23844635164794
  H   -0.93751115476285     -2.06037696476958      0.00366642277546
  H   -2.41569011711446     -1.16285644929919     -0.34213653005791
