16
Coordinates from ORCA-job run
  C   0.78751571668229     -0.25260860003639      0.21798004065450
  C   -0.72565627208306     -0.39015069857864      0.37051379819057
  F   1.38201882235908     -1.26578936146549      0.96513165214481
  H   -0.92668886758584     -0.46165114750017      1.44224202891639
  N   1.20864033387980     -0.19024578009084     -1.10708982256850
  H   2.19653424643032      0.01220696949390     -1.18164564969047
  H   0.96394147316600     -1.03150706542302     -1.61359572689261
  N   1.27106661721558      1.00932428393830      0.93869956723451
  O   0.66811299667083      1.31818478416328      1.96034255777074
  O   2.26669925954452      1.56202230706114      0.48600906378107
  C   -1.11194813826596     -1.65311143840652     -0.26181749244245
  N   -1.41227952877186     -2.64339482618864     -0.81674377323459
  C   -1.49663117737640      0.78155802198773     -0.24191995002983
  H   -2.56874923093972      0.61269072909160     -0.13354601694543
  H   -1.24447718470537      1.70727387183136      0.27513631849293
  H   -1.25809906622020      0.88519795012240     -1.29969659538162
