16
Coordinates from ORCA-job run
  C   0.72909127398461      0.07999618803018      0.13312281336313
  C   -0.74156668987877      0.22032344625731     -0.24282626103468
  F   0.84105332310920      0.12951193872632      1.51191829291119
  H   -0.78375771230360      0.41959088137637     -1.31604446106593
  N   1.34511931629289     -1.04203944407014     -0.43903523328918
  H   2.33585028805047     -1.03699330165289     -0.22315129047287
  H   0.92827148148569     -1.90022523344719     -0.10460007480422
  N   1.54016197663989      1.28355889403945     -0.35275737530396
  O   0.97228108786003      2.13648781436860     -1.02403675928477
  O   2.72085527119152      1.27307793160008     -0.02410149855065
  C   -1.32993734662835      1.36206214431495      0.46096788228569
  N   -1.85406936656815      2.23662603686247      1.04182274423043
  C   -1.52314996128737     -1.05782699083993      0.08677285591334
  H   -1.21681347917608     -1.87549467358824     -0.56756163485079
  H   -2.58828191211546     -0.88762991946377     -0.07193707677120
  H   -1.37610755065651     -1.34102571251358      1.13044707672448
