16
Coordinates from ORCA-job run
  C   0.81550547356757     -0.23746470830132     -0.10386489578982
  C   -0.66676057568025     -0.60445189960978     -0.07899956594609
  F   1.52353644032140     -1.36408335192077     -0.51266178143791
  H   -0.74933257171488     -1.53310975402161      0.49097899989750
  N   1.08988160682413      0.91348237267317     -0.83670230769022
  H   0.82206037067212      0.80854920975395     -1.80689723137676
  H   2.05593939509790      1.19864598680401     -0.74791766065468
  N   1.32651326338990     -0.03338993775675      1.32518783878908
  O   0.82313012266415     -0.74088596309311      2.19042718286858
  O   2.24992426982687      0.75755802545418      1.47808843873486
  C   -1.07129545298939     -0.86755824830891     -1.46151551095948
  N   -1.39887674350448     -1.02684904516829     -2.57779218078494
  C   -1.54172576240675      0.48634284297907      0.54347817975382
  H   -2.58982738459490      0.18733548224287      0.49805541236739
  H   -1.27388853347306      0.62970401034730      1.59035899876473
  H   -1.41678391800033      1.42717497792596      0.00877608346392
