16
Coordinates from ORCA-job run
  C   0.75794824691090     -0.49822730304613      0.08909173158099
  C   -0.76627581790297     -0.46470035628463      0.15459176717223
  F   1.20912013986822     -1.74110835923432      0.40186403122056
  H   -1.02993290169814     -0.82236268269885      1.15485100125828
  N   1.29319216111332     -0.11327428690351     -1.14174020485525
  H   2.29605174882294     -0.25218195070722     -1.15799447415487
  H   1.08697507147593      0.85048426486952     -1.36273366240780
  N   1.24378327897136      0.38595873352563      1.28841476477403
  O   0.91742213568463      0.00882371747774      2.40704192861763
  O   1.88398276023910      1.39638854012737      1.01221212444761
  C   -1.30280151438506     -1.40841951676829     -0.82577972378450
  N   -1.77693926726813     -2.14123549911023     -1.61029324769578
  C   -1.33688214218476      0.93986222498048     -0.06241479171398
  H   -0.92294901516623      1.64620428430661      0.65913677342845
  H   -2.41891960147539      0.91933650376855      0.06862445040395
  H   -1.13377528300573      1.29545168569727     -1.07387246829155
