16
Coordinates from ORCA-job run
  C   0.78851667571484     -0.41983570239966      0.10408757704638
  C   -0.68195453741336     -0.47912710413389     -0.32268953531894
  F   1.00280541978806     -1.37108707393205      1.04505635780081
  H   -0.82709555428757     -1.53171097053845     -0.59119367496278
  N   1.68234220177973     -0.61116165480559     -0.96098049318878
  H   1.59051815222682      0.11433676375660     -1.66027876519599
  H   2.63833378071747     -0.65923823069684     -0.62972180330239
  N   1.00186859598493      0.93244447425226      0.83565134282805
  O   1.03814690793449      1.90459096856255      0.08543057264806
  O   1.08048605795644      0.94087243701090      2.05621416077658
  C   -0.91531147554061      0.31951748100977     -1.52473929563325
  N   -1.12225524990734      0.95077698715814     -2.49297026820534
  C   -1.63906570090244     -0.09140863413966      0.80756251665022
  H   -2.66311394423546     -0.33202645012379      0.51994082369095
  H   -1.58579646380202      0.97792961534811      1.01683419103245
  H   -1.38842486601398     -0.64387290632841      1.71379629333397
