16
Coordinates from ORCA-job run
  C   0.74535546940569      0.12858421393650      0.32350785428267
  C   -0.64905386050436      0.10233752646258     -0.32892431244475
  F   0.59723645284821      0.32604824075566      1.65143079218586
  H   -0.48870245132869      0.01600152973097     -1.40842876103800
  N   1.60066214584448     -0.98459955347814      0.12534425350861
  H   1.24486247344583     -1.80770911211658      0.59135739782371
  H   1.76658798195126     -1.15933676460367     -0.85614033569003
  N   1.48891256259916      1.32931432619045     -0.25917381352588
  O   1.73919851147548      1.22477158749822     -1.45747216598203
  O   1.76132460135119      2.25999590119517      0.47956752964328
  C   -1.33782012297453      1.36990224821779     -0.07675462248224
  N   -1.90918470421549      2.37420172566799      0.13229898446790
  C   -1.48120101750145     -1.07674937995082      0.18094210086495
  H   -2.47386320752942     -1.05431538220290     -0.26987613986894
  H   -1.59340615945540     -1.02625607709298      1.26453665350108
  H   -1.01090867541197     -2.02319103021022     -0.09121541524618
