16
Coordinates from ORCA-job run
  C   0.84347505507428     -0.34663067301527      0.19263893865095
  C   -0.62936408528879     -0.47992496710507     -0.25080307342679
  F   1.02117597333641     -1.23863935404914      1.19811666647914
  H   -0.75518937172471     -1.55453809255599     -0.43551298924144
  N   1.86690741582892     -0.51907703664119     -0.76689618963879
  H   1.84828525876395      0.22288823893682     -1.45457592006331
  H   1.78933107024664     -1.42122579577675     -1.21905146761620
  N   1.02372450735183      1.04998945791743      0.77742198295653
  O   1.03649590294095      1.16375385917692      1.99336246658742
  O   1.09076350236870      1.95016637706292     -0.05482686603812
  C   -0.85002893912716      0.21336458921772     -1.51910169528316
  N   -1.04696389221080      0.75867125900530     -2.54019444290547
  C   -1.62452747881828     -0.03118652396093      0.82322347096800
  H   -2.63797761804269     -0.30665397927989      0.52891084097509
  H   -1.38819215914976     -0.51217941118805      1.77268465239888
  H   -1.59091514154950      1.05122205225516      0.95660362519726
