16
Coordinates from ORCA-job run
  C   0.84079187821585     -0.14390281413559      0.05883720999931
  C   -0.59171481929735     -0.59881246180543      0.32974798554551
  F   1.69243936827647     -1.17509862659404      0.44500791315242
  H   -0.61388767050996     -0.96593163172256      1.35870476428654
  N   1.04168588537830      0.31347641033465     -1.24059514831780
  H   0.86165465983711     -0.41459994901617     -1.92033275014516
  H   1.96315330649652      0.71174849899051     -1.36270900184187
  N   1.22491864784963      0.97574802880431      1.03007180401663
  O   0.74212372308206      0.91069701116140      2.15493666075362
  O   2.04450863830085      1.79694781091872      0.63604452644815
  C   -0.86763058661873     -1.71860482283642     -0.57257878207073
  N   -1.09046456514665     -2.58060077289784     -1.33815288574788
  C   -1.61952878323879      0.51880143977164      0.13648927123037
  H   -1.55349462652070      0.92701109263961     -0.87127169405625
  H   -1.44690325307277      1.31596020237308      0.85957259339857
  H   -2.62465180303186      0.12616058401412      0.29622753334858
