16
Coordinates from ORCA-job run
  C   0.77570118745690     -0.43202640580056      0.14193584790593
  C   -0.68480851893685     -0.47489981019132     -0.31943920148099
  F   0.94175811711916     -1.34168871181844      1.13270533727369
  H   -0.84735268972264     -1.53281092009609     -0.55501966036719
  N   1.68919023665372     -0.69679005354673     -0.88949242394496
  H   1.62892921744846     -0.00858726450247     -1.62831630466106
  H   2.63639005489794     -0.74519607266474     -0.53426728277018
  N   1.00629267290771      0.94849518551334      0.81467496783747
  O   1.01528136215223      1.01694753437140      2.03603206935579
  O   1.12462272833205      1.87881837318209      0.02123326181130
  C   -0.86903956822194      0.28604493838692     -1.55415945820449
  N   -1.03496997614141      0.88872686662110     -2.54766340145929
  C   -1.66176792967837     -0.02654157285219      0.77074518009240
  H   -2.68269805178725     -0.25789069468656      0.46517785535179
  H   -1.59226904530194      1.04831074859388      0.94338416894162
  H   -1.44525979717776     -0.54991214050963      1.70246904431815
