14
Coordinates from ORCA-job run
  C   0.51461594742831      0.40475579514812      0.05721297652377
  C   -0.57744645619817     -0.45603664252149     -0.06474057605430
  N   0.71508059663432      1.52220554097022     -0.82611000997124
  O   1.86680502087676      1.86964002210461     -1.06355842007431
  O   -0.28614421961231      2.05329496284786     -1.33159988093915
  N   1.51697872334380      0.23734124226400      1.07480364272040
  O   1.73135776932155     -0.90880127583892      1.49973181949595
  O   2.08274747784840      1.23996080597792      1.49695482498986
  N   -1.54391871238180     -0.26159532831375     -0.99658999500782
  H   -2.41949571525022     -0.73398382295276     -0.84330745092922
  H   -1.59771467006573      0.66945019602731     -1.38176591872548
  N   -0.73356440903166     -1.53602346262645      0.74045321639520
  H   -1.36693613677891     -2.25025352343585      0.42132589091412
  H   0.09863478386565     -1.85095450965083      1.21618988066221
