14
Coordinates from ORCA-job run
  C   0.50247574461895      0.41132613235004     -0.09330707118688
  C   -0.56787191916619     -0.46188019125641      0.10172471549015
  N   1.53524018769864      0.15958916488222     -1.06223765672704
  O   2.66062292858195      0.58698910185237     -0.82896711199587
  O   1.24278486231595     -0.50875113408918     -2.06606185062104
  N   0.65300412673013      1.62576317089501      0.66354393011323
  O   0.18975186427452      1.65758431927240      1.81422198866054
  O   1.20007755417237      2.57877297400697      0.11945654042041
  N   -0.72710663919058     -1.58311869152482     -0.64481246438026
  H   -1.64804216852043     -1.98968308462701     -0.65400491732060
  H   -0.22053521533068     -1.60225439653873     -1.51725131268495
  N   -1.51399551348219     -0.23844862116746      1.04956554854866
  H   -2.05789031148526     -1.03663364249939      1.33399112032103
  H   -1.24851550121718      0.40174489844398      1.78313854136263
