14
Coordinates from ORCA-job run
  C   0.58147370800162      0.32520903815383     -0.00601726715433
  C   -0.62129620952539     -0.39621477997048     -0.02266068548195
  N   0.89130798120509      1.29988261249545     -1.01612218940748
  O   2.06424036427875      1.43588324544165     -1.34822212851496
  O   -0.05091431647964      1.91754973205352     -1.53834478386716
  N   1.55778171078448      0.17468761108238      1.02979915101948
  O   2.29760758944941      1.12236519309710      1.27616477137491
  O   1.59514997679822     -0.90424120822274      1.64646113942150
  N   -1.58670797354950     -0.13932798244631     -0.93596662930973
  H   -2.47155162164079     -0.60724416122297     -0.84251963212440
  H   -1.57883531096164      0.77769252363360     -1.35428821323996
  N   -0.84229914405325     -1.41885213614916      0.82071160612623
  H   -0.09218605400322     -1.73038407975530      1.41647197305751
  H   -1.74377070030416     -1.85700560819056      0.87353288810033
