14
Coordinates from ORCA-job run
  C   0.52585195596359      0.37246831895818     -0.03028094044015
  C   -0.60950077119552     -0.43050763193012      0.03355997355150
  N   1.60107421867207      0.11983871100848     -0.95281476599254
  O   1.81720593851806     -1.05427480429578     -1.29052736757840
  O   2.22367132216639      1.08461064275088     -1.38449310369054
  N   0.71271854695194      1.51440522028189      0.82561856871239
  O   -0.29522365765212      2.13108740072814      1.20383863012975
  O   1.85763262031988      1.79511100883281      1.16480860704038
  N   -0.65668021809189     -1.67754334474324     -0.50101245941427
  H   -1.54857273258189     -1.96891418208980     -0.86681670431602
  H   0.17024832972495     -1.98373869871075     -0.99141860726880
  N   -1.75807264941268     -0.02880844427622      0.63513157473810
  H   -1.73848566043610      0.87813019530413      1.07664401787928
  H   -2.30286724294667     -0.75086439181858      1.07776257664931
