14
Coordinates from ORCA-job run
  C   0.52058247539664      0.37811978644352      0.04695390112327
  C   -0.60335828413630     -0.43714167496061     -0.05286200390453
  N   0.74863753064313      1.48994056796702     -0.83811370898603
  O   -0.24003042905027      2.08324953074992     -1.29615893710886
  O   1.90926821010960      1.76865884781473     -1.12084507071044
  N   1.54222197170859      0.16909372798736      1.03869789443867
  O   1.74665373701028     -0.98991411818891      1.43138479882146
  O   2.13190536066574      1.15461584663673      1.46972647774511
  N   -1.71788701809985     -0.06818110114575     -0.73414564239671
  H   -1.67919586961883      0.82231495142503     -1.20676123851140
  H   -2.23085052625466     -0.81082461933158     -1.18072423066418
  N   -0.67255006812574     -1.66437616819201      0.52350400500600
  H   -1.58206876271963     -1.95062841348711      0.84756873161228
  H   0.12667167247129     -1.94492716371835      1.07177502353536
