14
Coordinates from ORCA-job run
  C   0.51145125827450      0.39195374014009     -0.02693201781978
  C   -0.59174567274825     -0.45500089224496      0.03242654651026
  N   1.56185632689306      0.22590218250082     -0.99675278074250
  O   1.81004333267401     -0.92171261512642     -1.39750174920306
  O   2.13102029798198      1.23372035083141     -1.40284199737206
  N   0.68453721050261      1.50019151885733      0.87496139396420
  O   1.82928061015557      1.81036301483937      1.18799208175458
  O   -0.33191465282354      2.05840520491333      1.31591701068487
  N   -1.73365498755253     -0.12621425603296      0.68854857861835
  H   -1.73128102091330      0.75843700993427      1.17361743878904
  H   -2.23590190451338     -0.88838542520131      1.11390054339696
  N   -0.61132985797385     -1.67572579922307     -0.56098088810949
  H   0.20953402381916     -1.92762708043128     -1.09080998902802
  H   -1.50389496377606     -1.98430695375662     -0.91054417144335
