14
Coordinates from ORCA-job run
  C   0.81077460401671      0.30180889573925      0.20811645764952
  C   -0.44706942857190     -0.31826116401435     -0.31358086362234
  N   1.21329480737248      0.66120957859647     -1.01021169985194
  O   0.09248704104991     -0.02590089293252     -1.67575776038704
  O   2.05274111637763      1.27321932476288     -1.59748074452269
  N   1.23020707651429      0.84647738052903      1.44864802463601
  O   2.29332219408450      1.46318596808375      1.47320406902178
  O   0.46922299871994      0.63225514333960      2.39305726608963
  N   -1.59797792728607      0.50752082270866     -0.12141992575035
  H   -2.00654981993574      0.30184468531816      0.78260782232046
  H   -2.27695131754100      0.34089679343621     -0.85457465950895
  N   -0.62337016777183     -1.68382148710749     -0.01667788072638
  H   -1.41791089533692     -2.07321040462727     -0.50855947502551
  H   0.20977971830800     -2.22622464383237     -0.20737063032220
