14
Coordinates from ORCA-job run
  C   0.80042767215347      0.36253894808710     -0.13883738701108
  C   -0.45312102876068     -0.33440777704527      0.28743318119327
  N   1.32195731374817      0.84349240845220     -1.36692215028401
  O   2.32116865189415      1.55825590433057     -1.32408652666324
  O   0.70694747756218      0.47911356096881     -2.36986290284960
  N   1.01406659778038      0.85775362299693      1.07961967409584
  O   1.71611464503156      1.59545445537260      1.70174427054245
  O   -0.11612051797375      0.11952898255806      1.67036075660001
  N   -0.46968352727476     -1.73028935655281      0.09973921693993
  H   -1.28202281329106     -2.15506571741921      0.52931731361060
  H   0.37766033607571     -2.17037808380983      0.43594573177504
  N   -1.63930193036340      0.35520844821430     -0.11360821132694
  H   -1.91180551421401      0.03742023615642     -1.03624162278570
  H   -2.38728736236796      0.18237436769014      0.54739865616342
