14
Coordinates from ORCA-job run
  C   0.52397892051008      0.39533769647123      0.02412757108496
  C   -0.58913876065046     -0.44501446784141     -0.02701565628511
  N   0.73065244902998      1.45665305697770     -0.92458127268089
  O   1.88458903534933      1.76325011151591     -1.20381303188154
  O   -0.26899761568465      1.98196816035214     -1.43911043408159
  N   1.54457240312683      0.26098729020389      1.02852011503270
  O   2.14017997240344      1.27230927345697      1.38360698815972
  O   1.74412115130820     -0.86497329611817      1.51066148217420
  N   -0.75286611794322     -1.47360438965543      0.84201794001103
  H   0.08278504454642     -1.78102048870945      1.31670168321947
  H   -1.40518721216045     -2.19143801008846      0.57273058254817
  N   -1.57071806330381     -0.28110169584221     -0.94908881657242
  H   -2.45378476612893     -0.72113324872972     -0.74922685038668
  H   -1.61118644040276      0.62778000800701     -1.38553030034202
