14
Coordinates from ORCA-job run
  C   0.49606137794649      0.41616569558912      0.03433914792225
  C   -0.56742897912510     -0.47561608045866     -0.06489178412308
  N   0.65113345577755      1.54673598328128     -0.83296096803452
  O   1.78620340628462      1.96547297842438     -1.03767408606930
  O   -0.36522141968842      2.01404294069513     -1.37131019058258
  N   1.52212599444620      0.26609573340755      1.03347785731215
  O   1.98026131634826      1.28381570908112      1.54305027372027
  O   1.84869310478206     -0.88350699377039      1.36709119307187
  N   -0.55877421596072     -1.70155615084642      0.52624482411173
  H   0.26166865437281     -1.93645981575140      1.06329002996078
  H   -1.44503743424833     -2.02797594448752      0.87537574381902
  N   -1.69784594827403     -0.18819642276264     -0.75061661659473
  H   -1.71443625743502      0.69137968452858     -1.24467281398830
  H   -2.19840305522636     -0.97039731693012     -1.13774261052556
