14
Coordinates from ORCA-job run
  C   0.51549340200121      0.40503316828501     -0.04550340108411
  C   -0.57835960489153     -0.45649732806467      0.05089058777913
  N   1.53593914840155      0.24551281504153     -1.04576790721999
  O   2.10968579994394      1.25122570041245     -1.44961710407921
  O   1.75674627527373     -0.89727018416990     -1.47666066161122
  N   0.69954261026102      1.51678070016274      0.84848240468605
  O   -0.31092510644428      2.04722452353568      1.33583758806435
  O   1.84712818570277      1.85849126826756      1.11319055974581
  N   -1.56164503888710     -0.26740161152772      0.96660770801116
  H   -1.62241995446135      0.66191370065354      1.35503127573499
  H   -2.43486498682145     -0.73738498507962      0.79339757380610
  N   -0.71886278148704     -1.53242508245866     -0.76232056718871
  H   0.12168825852575     -1.84390755123450     -1.22547246773386
  H   -1.35814620711721     -2.24829513382343     -0.45909558891049
