14
Coordinates from ORCA-job run
  C   0.50623143134723      0.39567755212962      0.02883217195957
  C   -0.58315208447640     -0.46775569634393     -0.00198596897164
  N   1.54824882286534      0.34427583313498     -0.97155516216416
  O   2.08133726580598      1.40111685285754     -1.29179024418911
  O   1.82433970888845     -0.75631313980461     -1.46981133793661
  N   0.69321752098610      1.39884141024260      1.04113847677002
  O   -0.31888844941421      1.90415148864761      1.55058256778149
  O   1.84073256065673      1.74033622581710      1.30377460782555
  N   -1.72667698261000     -0.23766170057968      0.69644509164820
  H   -1.72397073510840      0.57967303244630      1.29017107165402
  H   -2.23525301149769     -1.04692083939353      1.01601565213626
  N   -0.60210379308102     -1.60818522029892     -0.74475336758777
  H   0.19958789396318     -1.78374480697764     -1.33152392964591
  H   -1.50365014832528     -1.86349099187746     -1.11653962927990
