14
Coordinates from ORCA-job run
  C   0.54432626507785      0.36566479658753      0.01556792139018
  C   -0.60969531581830     -0.41773264407414     -0.01825421524010
  N   0.77854265378326      1.42749428372293     -0.92793483910665
  O   1.93711344733525      1.66379018768432     -1.25214792040329
  O   -0.20565741410183      2.02799846244477     -1.38635217828574
  N   1.58507128747899      0.16839544090465      0.98711551756486
  O   2.25305096925709      1.14058807245615      1.32218300295133
  O   1.72492586873948     -0.96660403618552      1.46962046682404
  N   -0.80471030847683     -1.44853466152739      0.83816649208517
  H   -1.50777056543076     -2.12262215481200      0.58561413176824
  H   0.01935745279825     -1.79907760156941      1.30236188938150
  N   -1.60227688357467     -0.19527739089025     -0.92046389003084
  H   -2.50750672914915     -0.56796639125206     -0.68300839038058
  H   -1.60577072791862      0.72588363651044     -1.33346798851811
