14
Coordinates from ORCA-job run
  C   0.50608473100899      0.39404289362060     -0.07348804650059
  C   -0.57972621302386     -0.46175809266246      0.09124365232544
  N   1.48262061518090      0.21208851759599     -1.11445295477137
  O   1.71127656066822     -0.94356836736914     -1.50426226188614
  O   2.01158094411748      1.21322036751453     -1.58619135676460
  N   0.72640354841012      1.53449027476468      0.77660269572969
  O   1.88585778776215      1.86656291476660      1.00049473535935
  O   -0.26473335327782      2.09697560440827      1.26713311548567
  N   -1.67265124866505     -0.12619653830677      0.82215197998097
  H   -1.65124196483929      0.77473906949742      1.27532924634644
  H   -2.13993888971465     -0.88026679270073      1.29827829184917
  N   -0.62802666374547     -1.69892975849341     -0.46513155769431
  H   -1.54080735409525     -2.02682432202586     -0.73595718556082
  H   0.15330150021355     -1.95557577060973     -1.04975035389890
