14
Coordinates from ORCA-job run
  C   0.48315509433764      0.43858519342960      0.04728326956961
  C   -0.53902925864221     -0.49241916301353     -0.10678327841003
  N   1.39155491732729      0.34517429260038      1.16943027283940
  O   1.81081086087181     -0.78068955877638      1.47353547811683
  O   1.67934034057486      1.37684812182922      1.76683562717932
  N   0.66663440623250      1.58023544338867     -0.79707746246726
  O   1.74956933693490      2.15491618251996     -0.76488069371594
  O   -0.25846670814359      1.89333705274445     -1.56410385131738
  N   -1.44248398932437     -0.42921486068751     -1.11345940373279
  H   -2.31340356927558     -0.91278575382668     -0.96520048366166
  H   -1.49098664306272      0.45745054521910     -1.59429328247388
  N   -0.69541726342938     -1.52921582545837      0.76816957965785
  H   0.13527536802939     -1.76957743748523      1.28917737631196
  H   -1.17555289243055     -2.33164423248368      0.39036685210397
