14
Coordinates from ORCA-job run
  C   0.49380636708858      0.41118815806023     -0.05970938081871
  C   -0.57063866777315     -0.47683488951741      0.06948943344824
  N   1.51477147368440      0.25354839582937     -1.06150861933269
  O   1.79406787191164     -0.89658227123295     -1.43384715967205
  O   2.02920813561380      1.26817639337125     -1.52031944274072
  N   0.65225520199717      1.55627510793100      0.79758785979601
  O   -0.37055764546591      2.08957889837335      1.25450382765936
  O   1.79343163852255      1.92212065983830      1.05957880179838
  N   -1.70074044827338     -0.17116543013086      0.75686659604863
  H   -2.15487532428812     -0.93772846033489      1.22612650369896
  H   -1.71786796558225      0.72996162701476      1.21029575592995
  N   -0.56137132262725     -1.71670332852671     -0.48198342113743
  H   0.24977744124151     -1.95616226093371     -1.03202841597930
  H   -1.45226675604959     -2.07667259974172     -0.78305233869862
