14
Coordinates from ORCA-job run
  C   0.52371249552943      0.37467926771435      0.04093327279269
  C   -0.60711203477853     -0.43252972809234     -0.04622751046125
  N   1.56964215123349      0.13817095559512      1.00078262435884
  O   1.26072631801653     -0.38191772740642      2.08404054063051
  O   2.71731784455387      0.43045083652107      0.68147660620377
  N   0.73463796890070      1.50550991407842     -0.82410206717393
  O   1.34565366997334      2.46747427812074     -0.37030564026403
  O   0.25661844282653      1.46248649867339     -1.96815176111335
  N   -1.41762472672716     -0.44331385609903     -1.13499044048908
  H   -2.39483925505314     -0.61133822115947     -0.95920952772896
  H   -1.18170355549691      0.20092406458365     -1.87470900351273
  N   -0.98715468186710     -1.27184391292594      0.95062473791992
  H   -0.37927466821385     -1.31369579915327      1.75481442731351
  H   -1.44059996889719     -2.12405657045026      0.66402374152408
