14
Coordinates from ORCA-job run
  C   0.56221516190014      0.34021351108192     -0.00369087278340
  C   -0.63017371187677     -0.38500123927891     -0.00005948009841
  N   0.87125795777230      1.31059487475071     -1.01932955170783
  O   2.05021709960882      1.48940160460559     -1.30524086108782
  O   -0.07236613886760      1.88904657944603     -1.58064352729503
  N   1.56406628686275      0.17654163766311      1.01572445660915
  O   1.65668397801386     -0.93014900052997      1.56943464271683
  O   2.25066622157601      1.14877146354085      1.31048463822939
  N   -0.89347070577665     -1.32834040664111      0.93902685438570
  H   -0.09084617109919     -1.68497836860521      1.43568450162235
  H   -1.61369707400827     -1.99560720945547      0.71685870274029
  N   -1.59409085644764     -0.18839861103126     -0.93374072120224
  H   -1.54401409225681      0.68524329646746     -1.43602952591219
  H   -2.51544795540096     -0.52533813201374     -0.70847925621680
