14
Coordinates from ORCA-job run
  C   0.53227757406861      0.36358693220457     -0.02812332778281
  C   -0.61230625741007     -0.42618433526903      0.03454057101230
  N   1.60376526622866      0.10413641638043     -0.95267104079860
  O   2.74319291933983      0.39640670249913     -0.60479178350708
  O   1.32453223564923     -0.43664429852435     -2.03381418820973
  N   0.72529996152835      1.50893971468535      0.82229676725315
  O   1.34957597136125      2.46173604439358      0.36723920600367
  O   0.21360139547284      1.48921391856697      1.95238142783707
  N   -0.97248205568865     -1.27508158196452     -0.96129436985430
  H   -1.44906213962122     -2.11567537559818     -0.67801821325791
  H   -0.33916240463541     -1.33863607253153     -1.74414111739716
  N   -1.45630568298127     -0.40967511363812      1.09776322753921
  H   -1.23269106197044      0.24344506656108      1.83363389630527
  H   -2.43023572134173     -0.56456801776538      0.89399894485692
