14
Coordinates from ORCA-job run
  C   0.48980558340771      0.41202152774853     -0.07555124874563
  C   -0.57187287196230     -0.47446420551683      0.08024471267638
  N   1.49171609261684      0.24380202695867     -1.09405067749173
  O   2.63196526493223      0.62317064501445     -0.84784949779900
  O   1.15409395980036     -0.29568150592951     -2.15935769764748
  N   0.68461605124627      1.54736141767676      0.78828437616979
  O   1.18238851170076      2.55599859398676      0.29900744026729
  O   0.28359927366269      1.46817942571420      1.95941837707297
  N   -0.95644788641034     -1.33094468873209     -0.89841647274137
  H   -0.39503873188605     -1.32817175342694     -1.73718883647234
  H   -1.34726359832645     -2.20805557325210     -0.59528225510014
  N   -1.30457590387099     -0.54647840481891      1.22154437534538
  H   -1.06274067708506      0.11046026228102      1.94813922567353
  H   -2.27824506782566     -0.77819776770400      1.11005817879234
