14
Coordinates from ORCA-job run
  C   0.54488516811224      0.36678933964051     -0.01473252533978
  C   -0.61479845600485     -0.40932245254452      0.01242485350782
  N   0.77778177434257      1.43353738845326      0.92170571256205
  O   -0.20821976869411      2.02507878083057      1.38860507466675
  O   1.93645141264095      1.67974273548915      1.23870027134875
  N   1.59409522515120      0.15081451599717     -0.97422535398449
  O   2.26121380188950      1.11775137182058     -1.32586373124892
  O   1.74596631084273     -0.99551191905161     -1.42494389146598
  N   -0.80483409817800     -1.44662414782887     -0.84102690070081
  H   -1.50465706949399     -2.12172600534420     -0.58059544869299
  H   0.02988976769238     -1.81047466604753     -1.27592085925233
  N   -1.61818637381996     -0.16983861762891      0.89321263255681
  H   -2.51632126312998     -0.56713198441340      0.67238499286092
  H   -1.62326643135067      0.74891566062780      1.31027517318220
