14
Coordinates from ORCA-job run
  C   0.54487488098037      0.36464894947792      0.03938427943617
  C   -0.61233641633032     -0.41074229638177     -0.04524538978017
  N   1.57344109237617      0.10864174887722      1.01180070389780
  O   1.24262318118752     -0.41605176717516      2.08661127769873
  O   2.72974807684195      0.38783463671483      0.71406027102861
  N   0.79115622527998      1.47761381904213     -0.83776898881926
  O   1.45197464829816      2.41616134770151     -0.40637769993385
  O   0.29087141568548      1.44736490945981     -1.97306591577575
  N   -1.55596260812528     -0.19164396152427     -0.99497799865500
  H   -2.19553372103727     -0.94751266249418     -1.17648829429201
  H   -1.25208347081832      0.34121995003929     -1.79617404974134
  N   -0.85949467045012     -1.42838933027918      0.81725057807188
  H   -0.33619684259332     -1.40561137071649      1.67969637746686
  H   -1.81408179129502     -1.74153397274166      0.88129484939733
