14
Coordinates from ORCA-job run
  C   0.49374274066008      0.42382823820357     -0.08910693981168
  C   -0.55536019627265     -0.47690109979516      0.10041187349339
  N   1.54559885821741      0.19019844371245     -1.04201058081424
  O   2.07087094736076      1.16382552783789     -1.57085104061519
  O   1.84168757565669     -0.98537211674923     -1.30740055939402
  N   0.59852690432299      1.65102975200439      0.65377123533457
  O   -0.44884175570675      2.17976898866142      1.05805362285879
  O   1.71962693072186      2.09241419827663      0.88166537024965
  N   -1.56880010615909     -0.22679382557844      0.96686373633983
  H   -2.41214545837261     -0.76145360461304      0.83922684058635
  H   -1.68620259055530      0.73946046814101      1.23288992664951
  N   -0.62152544724684     -1.65380623969003     -0.57118769850568
  H   0.24673293129325     -1.97579161627123     -0.97204595122486
  H   -1.22391133391980     -2.36040711414022     -0.18227983514641
