14
Coordinates from ORCA-job run
  C   0.42178251996519      0.47492416841573      0.11308125405861
  C   -0.48908920671550     -0.54955099214788     -0.12982312672954
  N   0.55734626639307      1.61120863257093     -0.75967505742176
  O   -0.44634620941354      1.99281575600913     -1.38124495733636
  O   1.66816357740046      2.11974141812405     -0.86982704152201
  N   1.29853725580126      0.47511992172736      1.25431814308657
  O   1.66771572464914     -0.61946862222706      1.70707403957852
  O   1.60485780653326      1.55858140784703      1.74111645510626
  N   -0.40018528343809     -1.76562149766126      0.46655558771768
  H   0.34557711048728     -1.88125671508459      1.13620986808343
  H   -1.27231528997590     -2.23211852827430      0.65577732652451
  N   -1.53649290510604     -0.41179915164740     -0.98209948738714
  H   -1.60202588514886      0.46887699618276     -1.47007239078775
  H   -1.81652548143174     -1.24145279383448     -1.47939061297101
