14
Coordinates from ORCA-job run
  C   0.53487483528913      0.35634488729528      0.05288788837740
  C   -0.62000370749001     -0.41252641212488     -0.06192645647205
  N   1.71077289291745      0.10825047749416     -0.73910385028721
  O   1.55990252183068     -0.37296165701958     -1.87266107777215
  O   2.80243468727256      0.35201857474632     -0.23568537785416
  N   0.64182874003401      1.45797612586610      0.97304672531879
  O   -0.01192307974667      1.40434220897318      2.02618050480057
  O   1.34528608241436      2.40903262596878      0.64879087978087
  N   -1.59082480279093     -0.42220910356579      0.88668233873989
  H   -2.53297884123349     -0.55238217623612      0.55591633318893
  H   -1.45235096450800      0.19426304978294      1.67331068453462
  N   -0.86550476224713     -1.21129777534697     -1.13179519992401
  H   -0.13986945893216     -1.25482283879469     -1.83150557711330
  H   -1.38264414280979     -2.05502798703871     -0.94513781531819
