14
Coordinates from ORCA-job run
  C   0.41230433706858      0.48418067200772     -0.10842785097208
  C   -0.48013299226009     -0.55915225797700      0.12242399089838
  N   0.37908293601678      1.71022613085794      0.64455023020066
  O   -0.01999849225745      1.66403338456003      1.81842074091250
  O   0.71322213599836      2.74273830534609      0.07268947623180
  N   1.44149155292885      0.41269782727066     -1.11179053332407
  O   2.49439956125865      1.00389182134722     -0.89605055327481
  O   1.22371829539258     -0.27200919062572     -2.12332315618803
  N   -0.68712021587253     -1.55799891431773     -0.77327263319395
  H   -0.12222046399178     -1.53186910094906     -1.60893051688221
  H   -0.90404780994209     -2.46229039544713     -0.38681327991116
  N   -1.21401057982429     -0.65759509915185      1.26004969040024
  H   -1.11001967797374      0.09355799677756      1.92555008092986
  H   -2.12666858654184     -1.07241117969875      1.16492431417285
