14
Coordinates from ORCA-job run
  C   0.46545495484799      0.43232715560442      0.11319017074835
  C   -0.54154567843983     -0.49817250440312     -0.12848497607590
  N   1.37334780584632      0.31726182613309      1.22383838556102
  O   2.51591368208597      0.73846181878660      1.07623515566557
  O   0.96416625858302     -0.23407368343060      2.25729538688581
  N   0.68071529444124      1.57548078598405     -0.73424478405469
  O   1.10343385833026      2.60269622297929     -0.21378215263625
  O   0.39313923349418      1.47339879533502     -1.93684099428363
  N   -1.17014741435874     -0.60309569539352     -1.32694038716893
  H   -2.13784426058427     -0.88017487593356     -1.29775441062871
  H   -0.89623199974394      0.06127108632007     -2.03511997908699
  N   -0.97442542300650     -1.37143270638757      0.81641608901477
  H   -0.49380801702504     -1.34349162044011      1.70317493798340
  H   -1.28116829447064     -2.27045660515408      0.48201755807619
