14
Coordinates from ORCA-job run
  C   0.52748886597996      0.37063760797065      0.02494965305048
  C   -0.61067030504893     -0.42944879841184     -0.02879768269183
  N   1.62890908976076      0.09026750356740      0.90742574342324
  O   2.75587540476355      0.39692192852571      0.53248822672099
  O   1.38524271276134     -0.47881356083962      1.98271776724488
  N   0.68932027431582      1.53944476688954     -0.79907039258221
  O   1.32885042484527      2.48003406580517     -0.33971696248326
  O   0.14300411021982      1.54865354773602     -1.91297776885846
  N   -1.48651136326405     -0.38881094091417     -1.06495837429809
  H   -1.29158588382794      0.28741455669459     -1.78792816095569
  H   -2.45179652843875     -0.56299543870369     -0.83722089971319
  N   -0.93271658419997     -1.31151003533987      0.95115599219841
  H   -0.27694105871370     -1.39035508818611      1.71388974306139
  H   -1.40746915915317     -2.14944011479380      0.65704311588334
