14
Coordinates from ORCA-job run
  C   0.49755646438866      0.41100351549024     -0.00273927851353
  C   -0.57583654924122     -0.47582710372101      0.00295294001528
  N   0.54028009904161      1.57700050624248      0.84006592303633
  O   -0.53454860954883      2.11778377351614      1.14286258803100
  O   1.63572858162590      1.95151947538231      1.24538714775539
  N   1.64661694995526      0.22845406005455     -0.84957531639306
  O   2.22320088685245      1.23158609135322     -1.25699197863876
  O   1.97154616283640     -0.93031143366685     -1.15145600208488
  N   -1.78853508656154     -0.15477934526774      0.52087315045505
  H   -1.86523198022810      0.75627116707265      0.94755539791209
  H   -2.30708318917353     -0.91043062747269      0.93817880105165
  N   -0.49314587995678     -1.72936904606309     -0.51112176757092
  H   -1.33457512867035     -2.09523008252537     -0.92614491587586
  H   0.38502727868008     -1.97867095039485     -0.94084668917978
