13

C	0.0	0.0	0.0
C	-0.590226	0.188973	-1.366784
F	1.350194	0.0	0.0
H	-0.186209	-0.552496	-2.056769
H	-0.414363	0.642839	0.773079
H	-1.69038	0.139939	-1.305285
N	-0.298936	-1.468378	0.39757
O	-1.368003	-1.72545	0.939553
O	0.59405	-2.27568	0.129648
N	-0.202258	1.51616	-1.922389
O	-0.14912	1.604593	-3.148461
O	0.014205	2.43054	-1.132379
Cl	-3.7293	0.0	0.0
