13

C	0.0	0.0	0.0
C	-0.593342	-0.190276	-1.368716
F	1.350424	0.0	0.0
H	-0.592167	0.749647	-1.917886
H	-0.3927	0.905016	0.461292
H	-1.639578	-0.508179	-1.245311
N	-0.366823	-1.119125	0.967739
O	-1.000659	-2.086039	0.573729
O	0.062552	-0.939507	2.10593
N	0.144679	-1.166151	-2.21129
O	0.082163	-0.98544	-3.427111
O	0.731942	-2.098161	-1.668128
Cl	-3.50275	0.0	0.0
