13

C	0.0	0.0	0.0
C	-0.580931	-0.130838	-1.380423
F	1.35032	0.0	0.0
H	-1.638931	-0.415909	-1.283528
H	-0.390155	0.887654	0.495702
H	-0.539921	0.828212	-1.895691
N	-0.376238	-1.157863	0.909808
O	-0.04437	-0.995303	2.082572
O	-0.90158	-2.152899	0.433736
N	0.12811	-1.095053	-2.265913
O	-0.067402	-0.944244	-3.471415
O	0.826328	-1.975727	-1.772558
Cl	-3.475537	0.0	0.0
