13

C	0.0	0.0	0.0
C	-0.539245	-0.068204	-1.398786
F	1.350178	0.0	0.0
H	-1.639306	-0.077399	-1.330522
H	-0.389111	0.83907	0.568185
H	-0.155932	-0.929505	-1.937657
N	-0.375779	-1.247824	0.761772
O	-0.420752	-2.30206	0.132592
O	-0.482333	-1.124648	1.976878
N	-0.128548	1.142339	-2.153105
O	-0.0361	2.205032	-1.540395
O	0.053877	1.008807	-3.362299
Cl	-3.426445	0.0	0.0
