14

C	-0.148756	0.077469	-1.392523
C	-0.093231	0.079353	0.133648
F	-1.526179	0.161631	-1.74826
H	0.934498	0.334741	0.396981
H	-0.784017	0.864988	0.462279
C	0.483353	1.282479	-1.949546
N	0.777745	2.332314	-2.387796
C	0.372807	-1.151705	-2.00761
N	0.329528	-2.190933	-2.565811
C	-0.480421	-1.27209	0.716041
H	-1.435035	-1.620454	0.313576
H	-0.567598	-1.210023	1.805021
H	0.288603	-2.005979	0.470979
F	2.123238	-0.330931	-1.216318
