14

C	-0.15828	-0.011195	-1.392888
C	-0.090726	0.085886	0.129619
F	-1.538146	0.061081	-1.742533
H	0.944006	0.348718	0.368708
H	-0.772062	0.896784	0.41345
C	0.477876	1.151228	-2.029895
N	0.773938	2.169259	-2.536744
C	0.348283	-1.280913	-1.933573
N	0.296161	-2.353545	-2.423418
C	-0.484158	-1.222946	0.79871
H	0.277581	-1.976985	0.595616
H	-1.444081	-1.588435	0.425083
H	-0.563487	-1.091546	1.882085
F	2.113008	-0.418754	-1.210104
