15

C	0.0	0.0	0.0
C	-0.481223	-0.191137	-1.42424
F	1.402982	0.0	0.0
H	-1.566104	-0.32906	-1.37946
H	-0.309465	-0.862976	0.59774
H	-0.033661	-1.119818	-1.79902
C	-0.482647	1.270245	0.658951
H	-0.124814	1.313951	1.691106
H	-1.5756	1.277054	0.652759
H	-0.10024	2.146565	0.129641
C	-0.115695	0.968449	-2.348496
H	-0.735457	1.843568	-2.146756
H	0.934216	1.249355	-2.227114
H	-0.271581	0.692507	-3.394617
Cl	-3.91933	0.0	0.0
