13

C	0.0	0.0	0.0
C	-0.447971	0.23081	-1.435773
Br	1.926462	0.0	0.0
H	-0.92673	1.19576	-1.527745
H	-0.357443	-0.930111	0.414891
H	0.395474	0.147939	-2.130814
N	-0.420508	1.100481	0.927002
O	-0.528482	2.232477	0.471699
O	-0.492946	0.801912	2.112276
N	-1.404877	-0.790475	-1.934289
O	-2.207983	-0.415635	-2.781848
O	-1.196884	-1.961046	-1.63137
F	-2.297775	0.0	0.0
