13

C	0.0	0.0	0.0
C	-0.482308	0.405878	-1.380487
Br	1.932467	0.0	0.0
H	-1.197959	1.21101	-1.309044
H	-0.352402	-0.97518	0.295157
H	0.34458	0.648038	-2.057304
N	-0.420239	0.962025	1.06497
O	-0.511038	0.502291	2.195691
O	-0.513137	2.146643	0.766673
N	-1.182947	-0.723395	-2.051592
O	-1.946157	-0.423647	-2.962777
O	-0.853096	-1.869671	-1.764711
F	-2.330387	0.0	0.0
