13

C	0.0	0.0	0.0
C	-0.485722	0.362553	-1.39113
Br	1.937143	0.0	0.0
H	-1.222586	1.147813	-1.333691
H	-0.349357	-0.965465	0.330817
H	0.334804	0.610933	-2.072282
N	-0.420064	1.002371	1.027657
O	-0.511805	0.589619	2.176725
O	-0.512881	2.173695	0.679976
N	-1.163413	-0.79383	-2.037229
O	-0.822901	-1.929345	-1.719639
O	-1.927129	-0.525269	-2.958391
F	-2.33382	0.0	0.0
