13

C	0.0	0.0	0.0
C	-0.628482	0.08237	-1.367882
Br	1.911774	0.0	0.0
H	-0.41564	-0.858687	-1.876546
H	-0.371169	-0.900212	0.478411
H	-1.742532	0.183374	-1.058525
N	-0.417307	1.119833	0.924571
O	-0.397852	2.255405	0.465224
O	-0.646672	0.817111	2.08795
N	-0.124118	1.149752	-2.264765
O	0.88441	0.901976	-2.939568
O	-0.76102	2.199296	-2.344186
F	-2.708168	0.0	0.0
