13

C	0.0	0.0	0.0
C	-0.561325	-0.117226	-1.398121
F	1.354343	0.0	0.0
H	-1.413225	0.555616	-1.49122
H	-0.382367	-0.753528	0.683709
H	0.229459	0.197344	-2.085163
N	-0.33026	1.337848	0.621374
O	-0.223876	2.32228	-0.107738
O	-0.55539	1.360532	1.827316
N	-0.914129	-1.52094	-1.628513
H	-1.048217	-1.65195	-2.62448
H	-1.834575	-1.624177	-1.202073
Cl	-3.479555	0.0	0.0
