13

C	0.0	0.0	0.0
C	-0.556978	0.27366	-1.3687
F	1.359736	0.0	0.0
H	-0.055969	1.155844	-1.774094
H	-0.376929	-0.92782	0.422812
H	-1.620979	0.48419	-1.238788
N	-0.35589	1.081574	0.985578
O	-0.494193	0.740358	2.157591
O	-0.396887	2.236229	0.56468
N	-0.329816	-0.924207	-2.184201
H	-1.222547	-1.287875	-2.485712
H	0.215236	-0.701111	-3.002625
Cl	-3.678253	0.0	0.0
