13

C	-0.405574	-0.053433	-1.477605
C	0.0	0.0	0.0
Cl	-2.161312	-0.352043	-1.697649
H	1.102724	0.0	0.0
H	0.122341	-0.876747	-1.964162
C	-0.061133	1.203001	-2.13749
N	0.186564	2.212544	-2.68202
C	-0.443235	-1.210812	0.686265
N	-0.798677	-2.180094	1.24647
N	-0.50115	1.216036	0.63347
H	-0.952126	1.01193	1.511287
H	0.293271	1.814497	0.822222
Br	3.386959	0.0	0.0
