13

C	-0.394512	-0.008388	-1.481806
C	0.0	0.0	0.0
Cl	-2.140502	-0.326151	-1.729754
H	1.102722	0.0	0.0
H	0.154054	-0.805213	-1.988392
C	-0.060744	1.273933	-2.097561
N	0.19325	2.303372	-2.60241
C	-0.454725	-1.232086	0.638056
N	-0.810036	-2.223744	1.157243
N	-0.554167	1.179264	0.671937
H	0.15007	1.909973	0.606416
H	-0.666059	0.979036	1.658912
Br	3.418587	0.0	0.0
