13

C	-0.427877	-0.012923	-1.467407
C	0.0	0.0	0.0
Cl	-2.215943	-0.178806	-1.627787
H	1.096097	0.0	0.0
H	0.010456	-0.877934	-1.969708
C	-0.015593	1.211419	-2.145628
N	0.313353	2.191755	-2.700891
C	-0.436932	-1.243648	0.650883
N	-0.790854	-2.212018	1.214898
N	-0.454409	1.204057	0.668055
H	0.254997	1.498963	1.326233
H	-1.32908	1.060396	1.153492
Br	3.386717	0.0	0.0
