13

C	-0.541786	0.017821	-1.435141
C	0.0	0.0	0.0
Cl	0.074969	1.449244	-2.309552
H	1.101063	0.0	0.0
H	-1.627412	0.133849	-1.383706
C	-0.220935	-1.192284	-2.186542
N	-0.031783	-2.171665	-2.806281
C	-0.502352	-1.207247	0.655347
N	-0.934547	-2.157421	1.194113
N	-0.528899	1.185954	0.700151
H	-0.411711	1.026745	1.6956
H	0.106627	1.946037	0.473346
Br	3.433203	0.0	0.0
