13

C	-0.543373	0.035288	-1.439028
C	0.0	0.0	0.0
Cl	0.16606	1.400733	-2.333302
H	1.094155	0.0	0.0
H	-1.620283	0.220588	-1.392811
C	-0.316726	-1.208887	-2.171384
N	-0.205051	-2.21226	-2.771307
C	-0.484423	-1.21858	0.654926
N	-0.927912	-2.150675	1.217656
N	-0.439384	1.204606	0.705098
H	-1.106706	0.983145	1.431728
H	0.376128	1.627657	1.131572
Br	3.408665	0.0	0.0
