15

C	0.0	0.0	0.0
C	-0.55443	0.044136	-1.423642
Br	1.963731	0.0	0.0
H	-0.320705	0.989743	-1.907774
H	-1.645364	-0.099176	-1.340814
C	-0.363777	1.271663	0.633155
N	-0.577758	2.304138	1.152654
C	-0.485606	-1.169348	0.849992
H	-1.579523	-1.140345	0.850323
H	-0.108567	-1.058309	1.868083
H	-0.135881	-2.10865	0.427776
N	0.006133	-1.012457	-2.304295
O	0.514946	-0.645005	-3.363899
O	-0.090214	-2.18252	-1.940385
Br	-3.802769	0.0	0.0
