15

C	0.0	0.0	0.0
C	-0.570526	-0.142031	-1.408203
Br	1.962521	0.0	0.0
H	-0.264972	0.690647	-2.039189
H	-1.666007	-0.199923	-1.295676
C	-0.367163	1.338768	0.468791
N	-0.599007	2.432746	0.830497
C	-0.489234	-1.053762	0.986957
H	-1.582809	-1.001506	1.000929
H	-0.173818	-2.044699	0.667315
H	-0.086921	-0.843982	1.979709
N	-0.092924	-1.373321	-2.088964
O	0.669301	-1.230543	-3.046686
O	-0.492328	-2.456064	-1.660277
Br	-3.820066	0.0	0.0
