15

C	0.0	0.0	0.0
C	-0.587741	-0.181413	-1.397166
Br	1.948919	0.0	0.0
H	-1.678638	-0.207989	-1.284581
H	-0.184406	-1.089254	-1.84555
C	-0.380355	1.302867	0.557655
N	-0.626074	2.353452	1.019678
C	-0.504929	-1.135647	0.884789
H	-1.598585	-1.094124	0.874982
H	-0.153041	-2.089966	0.487681
H	-0.132984	-1.01203	1.901887
N	-0.267366	0.938531	-2.334664
O	0.876321	0.984509	-2.795615
O	-1.175622	1.726685	-2.602398
Br	-3.864999	0.0	0.0
