15

C	0.0	0.0	0.0
C	-0.258986	0.293884	-1.506086
Br	1.967667	0.0	0.0
H	-0.153067	1.359737	-1.698126
H	0.481705	-0.261229	-2.079816
C	-0.399608	1.129386	0.836777
N	-0.670195	2.06602	1.493357
C	-0.544933	-1.317019	0.51434
H	-0.212133	-2.137777	-0.120037
H	-0.20732	-1.476072	1.540217
H	-1.639751	-1.246156	0.490348
N	-1.540026	-0.136594	-2.155011
O	-2.167724	0.729191	-2.752134
O	-1.756051	-1.342515	-2.174687
Br	-3.939049	0.0	0.0
