15

C	0.0	0.0	0.0
C	-0.46647	-0.051124	-1.454788
Br	1.960859	0.0	0.0
H	-1.560625	-0.123311	-1.452895
H	0.019962	-0.889257	-1.95501
C	-0.405329	1.215422	0.700137
N	-0.562927	2.202296	1.318607
C	-0.439745	-1.268585	0.724219
H	-1.53193	-1.296813	0.740903
H	-0.041112	-1.268298	1.74022
H	-0.0359	-2.137207	0.196254
N	-0.080932	1.173049	-2.210982
O	0.908988	1.107325	-2.943513
O	-0.776621	2.172232	-2.043493
Br	-3.72221	0.0	0.0
