15

C	0.0	0.0	0.0
C	-0.551925	0.013531	-1.425347
Br	1.963869	0.0	0.0
H	-0.299854	0.940943	-1.936069
H	-1.645045	-0.112698	-1.338296
C	-0.364649	1.284504	0.606184
N	-0.578793	2.329006	1.10101
C	-0.487881	-1.151761	0.870037
H	-0.154285	-2.100513	0.455362
H	-1.581683	-1.11057	0.877755
H	-0.098974	-1.033377	1.882494
N	-0.005825	-1.078469	-2.27209
O	0.581784	-0.74898	-3.304388
O	-0.190977	-2.237908	-1.907815
Br	-3.801313	0.0	0.0
