14

C	0.0	0.0	0.0
C	-0.474197	0.01586	-1.477817
F	1.375637	0.0	0.0
H	-0.333659	1.025637	-1.867769
H	-0.371389	0.890569	0.512463
C	-0.438409	-1.204972	0.721047
N	-0.720127	-2.187006	1.298549
N	-1.7592	-0.480647	-1.799236
H	-2.524401	0.086469	-1.422358
H	-1.900389	-1.400775	-1.39529
N	0.53592	-0.824811	-2.231559
O	1.319116	-0.251679	-2.984007
O	0.486414	-2.034826	-2.031063
Br	-4.43641	0.0	0.0
