14

C	0.0	0.0	0.0
C	-0.525509	0.23056	-1.436373
F	1.384259	0.0	0.0
H	-1.468302	0.767633	-1.346157
H	-0.350436	0.800485	0.652418
C	-0.411083	-1.310971	0.519421
N	-0.569153	-2.384713	0.966003
N	-0.713204	-0.901313	-2.273656
H	-0.008873	-1.611311	-2.126676
H	-1.630366	-1.275114	-2.056916
N	0.475223	1.187497	-2.046055
O	1.313205	0.743982	-2.820162
O	0.404385	2.354154	-1.660474
Br	-3.445882	0.0	0.0
