15

C	0.0	0.0	0.0
C	-0.574861	0.000861	-1.405978
F	1.417307	0.0	0.0
H	-0.31775	0.925743	-1.929712
H	-1.683132	-0.040071	-1.222514
C	-0.507854	1.199651	0.756106
H	-0.12911	1.181428	1.782877
H	-0.171422	2.122414	0.27643
H	-1.607023	1.126109	0.745581
N	-0.405423	-1.205249	0.650144
H	0.058438	-1.997567	0.221651
H	-0.158456	-1.167812	1.630142
C	-0.124725	-1.140588	-2.18966
N	0.241161	-2.070404	-2.807968
H	-3.331247	0.0	0.0
