15

C	0.0	0.0	0.0
C	-0.576697	-0.077369	-1.403155
F	1.416914	0.0	0.0
H	-0.311795	0.811589	-1.979139
H	-1.684018	-0.098848	-1.215916
C	-0.509248	1.239858	0.685798
H	-1.607462	1.166423	0.674224
H	-0.172416	2.133371	0.155387
H	-0.135051	1.280208	1.713493
N	-0.406651	-1.165866	0.717663
H	0.052908	-1.984084	0.336313
H	-0.163374	-1.074115	1.695078
C	-0.142886	-1.266743	-2.120101
N	0.209997	-2.233645	-2.685803
H	-3.333469	0.0	0.0
