15

C	0.0	0.0	0.0
C	-0.562637	0.081156	-1.410148
F	1.414365	0.0	0.0
H	-0.315966	-0.827667	-1.969193
H	-1.671778	0.103469	-1.241022
C	-0.504175	1.136929	0.84953
H	-0.185157	2.093927	0.430632
H	-0.103426	1.047366	1.864323
H	-1.602293	1.057307	0.85049
N	-0.413185	-1.259952	0.539961
H	0.171853	-1.990289	0.152464
H	-0.317417	-1.25785	1.546899
C	-0.092008	1.241307	-2.153993
N	0.282659	2.17214	-2.764839
H	-3.337754	0.0	0.0
