15

C	0.0	0.0	0.0
C	-0.469792	0.082415	-1.45977
F	1.395319	0.0	0.0
H	-1.575101	0.103636	-1.385796
H	-0.168316	-0.829344	-1.984285
C	-0.444399	1.218846	0.779456
H	-0.003132	2.121987	0.350922
H	-1.538433	1.262195	0.739916
H	-0.112213	1.104996	1.81347
N	-0.50658	-1.176023	0.640003
H	-0.3551	-1.975458	0.030115
H	-1.531912	-1.020736	0.658075
C	0.039048	1.23603	-2.189462
N	0.448677	2.169626	-2.772694
H	-3.11479	0.0	0.0
