14

C	-0.423837	-0.016929	-1.440362
C	0.0	0.0	0.0
Br	-0.104567	-1.72411	-2.301769
H	1.093194	0.0	0.0
H	0.09837	0.734904	-2.029344
H	-0.378752	-0.890267	0.508428
N	-1.887471	0.306905	-1.574722
O	-2.159847	1.39648	-2.084951
O	-2.705125	-0.474243	-1.098985
C	-0.459476	1.277614	0.696824
H	-1.545469	1.333582	0.826182
H	0.012281	1.321904	1.681297
H	-0.130032	2.161033	0.142733
H	2.903727	0.0	0.0
