14

C	-0.369673	-0.102918	-1.438713
C	0.0	0.0	0.0
Br	-2.303839	-0.32684	-1.807956
H	1.092959	0.0	0.0
H	0.117304	-0.934753	-1.943284
H	-0.367863	0.939199	0.41721
N	0.037535	1.121259	-2.215758
O	0.585258	0.924233	-3.297815
O	-0.223863	2.217814	-1.733962
C	-0.442459	-1.20754	0.812317
H	0.01891	-1.152499	1.801203
H	-1.527832	-1.27275	0.929274
H	-0.086457	-2.131678	0.347196
H	2.86863	0.0	0.0
