14

C	-0.603954	0.064034	-1.383004
C	0.0	0.0	0.0
Br	0.129944	1.470968	-2.496477
H	1.091648	0.0	0.0
H	-1.681349	0.228862	-1.366543
H	-0.338495	-0.947646	0.438429
N	-0.459313	-1.272957	-2.074845
O	0.547753	-1.53341	-2.71249
O	-1.404522	-2.040109	-1.873185
C	-0.46902	1.166915	0.861349
H	-1.560337	1.217207	0.958851
H	-0.033444	1.066778	1.85831
H	-0.109296	2.112558	0.450055
H	2.951634	0.0	0.0
