14

C	-0.432741	0.166755	-1.434025
C	0.0	0.0	0.0
Br	-0.018588	-1.346127	-2.572844
H	1.092924	0.0	0.0
H	0.050987	1.031881	-1.883923
H	-0.297439	0.929256	0.505158
N	-1.911715	0.450403	-1.508554
O	-2.713172	-0.479579	-1.488015
O	-2.21394	1.646386	-1.491819
C	-0.548259	-1.213156	0.731189
H	-0.110254	-1.237688	1.732338
H	-0.251568	-2.133913	0.225843
H	-1.638004	-1.207866	0.825846
H	2.892624	0.0	0.0
