14

C	-0.613585	0.034626	-1.378084
C	0.0	0.0	0.0
Br	0.076134	1.474684	-2.481051
H	1.092088	0.0	0.0
H	-1.695377	0.160146	-1.363742
H	-0.316968	0.925994	0.494507
N	-0.421441	-1.283315	-2.08964
O	-1.404861	-2.028364	-2.062044
O	0.662056	-1.552975	-2.580931
C	-0.474636	-1.214809	0.794276
H	-0.087351	-1.130244	1.812582
H	-1.564641	-1.316143	0.835587
H	-0.058986	-2.133809	0.374916
H	2.951628	0.0	0.0
