14

C	-0.449066	0.041365	-1.437669
C	0.0	0.0	0.0
Br	0.073848	-1.507703	-2.477199
H	1.093039	0.0	0.0
H	-0.036759	0.909236	-1.949939
H	-0.304454	0.962308	0.432769
N	-1.94872	0.210593	-1.506818
O	-2.679321	-0.774336	-1.480512
O	-2.337475	1.37969	-1.486922
C	-0.532238	-1.158573	0.826949
H	-0.062728	-1.119019	1.812821
H	-0.256872	-2.11344	0.375548
H	-1.618324	-1.139648	0.956125
H	2.894251	0.0	0.0
