15

C	0.0	0.0	0.0
C	-0.63197	-0.005724	-1.392146
Br	1.933657	0.0	0.0
H	-1.763392	0.10827	-1.033081
N	-0.346871	1.373749	0.684734
O	-0.553336	2.348245	-0.02317
O	-0.355611	1.359502	1.909503
N	-0.509001	-1.076701	0.732168
H	-0.193793	-1.012782	1.692468
H	-1.53995	-0.930157	0.672794
C	-0.473485	-1.316084	-2.006423
N	-0.383971	-2.349713	-2.559058
C	-0.186239	1.017028	-2.322327
N	0.141308	1.783043	-3.152603
F	-2.771592	0.0	0.0
