15

C	0.0	0.0	0.0
C	-0.38393	0.092037	-1.500706
Br	1.961449	0.0	0.0
H	0.230117	0.891594	-1.923631
N	-0.343171	1.370954	0.656341
O	-0.378373	2.359129	-0.066681
O	-0.488846	1.358276	1.870547
N	-0.511224	-1.101486	0.657771
H	-1.55873	-0.913806	0.545978
H	-0.2374	-1.071191	1.633161
C	-1.768605	0.416161	-1.911544
N	-2.550544	0.74212	-2.733303
C	0.016841	-1.156597	-2.161573
N	0.33684	-2.119235	-2.752379
F	-2.617503	0.0	0.0
