15

C	0.0	0.0	0.0
C	-0.361162	0.1599	-1.526893
Br	1.961881	0.0	0.0
H	0.349478	0.870969	-1.958843
N	-0.393734	1.324707	0.678062
O	-0.365756	2.317955	-0.042635
O	-0.615537	1.307451	1.874793
N	-0.495141	-1.068402	0.734638
H	-0.183198	-1.941862	0.326752
H	-1.543295	-0.901638	0.615604
C	-1.692873	0.65907	-1.921422
N	-2.477631	1.153486	-2.649265
C	-0.12049	-1.140797	-2.159509
N	0.110707	-2.180249	-2.65631
F	-2.580664	0.0	0.0
