12

C	-0.543259	0.050566	-1.416031
C	0.0	0.0	0.0
Br	-0.382263	-1.741442	-2.209609
H	1.088108	0.0	0.0
H	-1.612285	0.267597	-1.428779
H	-0.324351	-0.893262	0.529977
C	0.116885	1.001703	-2.307905
N	0.583893	1.72748	-3.105297
N	-0.447515	1.14934	0.748497
O	-0.76961	2.172978	0.114692
O	-0.374195	1.089321	1.983122
H	2.538735	0.0	0.0
