12

C	-0.410976	0.041138	-1.439682
C	0.0	0.0	0.0
Br	-2.360561	0.304134	-1.688981
H	1.093695	0.0	0.0
H	0.038603	0.941784	-1.864095
H	-0.319791	0.895824	0.529325
C	-0.000334	-1.084193	-2.271723
N	0.322593	-1.908938	-3.042619
N	-0.485759	-1.143874	0.74115
O	-0.663279	-2.208294	0.136203
O	-0.591787	-1.012702	1.966676
H	2.558395	0.0	0.0
