16

C	-0.397365	0.012519	-1.458713
C	0.0	0.0	0.0
Br	0.213679	-1.596209	-2.371465
H	1.096399	0.0	0.0
N	-1.927743	0.095291	-1.574598
O	-2.389592	1.235809	-1.633119
O	-2.570432	-0.942877	-1.482608
C	0.158897	1.165679	-2.161798
N	0.573732	2.095623	-2.748215
C	-0.491638	-1.179707	0.680469
N	-0.862776	-2.100153	1.313517
C	-0.390088	1.275934	0.744001
H	0.00089	2.146602	0.212819
H	-1.469499	1.387718	0.876613
H	0.094977	1.243157	1.722957
H	2.521956	0.0	0.0
