16

C	-0.401001	-0.012744	-1.457524
C	0.0	0.0	0.0
Br	0.23389	-1.62313	-2.350655
H	1.096476	0.0	0.0
N	-1.933726	0.041321	-1.572258
O	-2.558762	-1.00938	-1.509379
O	-2.414597	1.174682	-1.603252
C	0.129956	1.14149	-2.178297
N	0.522794	2.071021	-2.77943
C	-0.501214	-1.161945	0.701991
N	-0.877359	-2.070921	1.348585
C	-0.364094	1.294756	0.72427
H	-1.44003	1.441121	0.847035
H	0.114727	1.2605	1.706387
H	0.059088	2.145363	0.185316
H	2.514025	0.0	0.0
