16

C	-0.39231	0.029265	-1.450335
C	0.0	0.0	0.0
Br	0.052349	-1.64749	-2.356539
H	1.097236	0.0	0.0
N	-1.916023	0.205584	-1.671646
O	-2.275722	0.934105	-2.591596
O	-2.647932	-0.40606	-0.905989
C	0.273451	1.117339	-2.161977
N	0.796179	1.992971	-2.74756
C	-0.458901	-1.177369	0.70849
N	-0.750586	-2.102625	1.374327
C	-0.377666	1.28778	0.73199
H	-1.457884	1.404749	0.864193
H	0.028204	2.150151	0.196172
H	0.105012	1.2638	1.712558
H	2.549562	0.0	0.0
