12
Coordinates from ORCA-job run
  C   0.48586464222193      0.76895349602480      0.05804362879654
  C   -0.79474323302868      0.19392965802023     -0.48561574923617
  Br  1.11830555683808      2.15351279442535     -1.12700958525488
  H   -1.56437999907602      0.96364028624472     -0.55779982211320
  H   0.38824022106313      1.19026764147226      1.05429829219340
  H   -0.64935350079992     -0.27611554130184     -1.45515154149783
  N   1.55076584236053     -0.29443630929193      0.15887725514174
  O   2.41692076370255     -0.10600127019153      1.00199823589405
  O   1.46840751432210     -1.24031289833043     -0.61702358513339
  N   -1.33339518895387     -0.86393351402392      0.43073838629639
  O   -0.83614008785703     -0.95172372540227      1.55125745651309
  O   -2.25249253079280     -1.53878061764544     -0.01261297159973
