12
Coordinates from ORCA-job run
  C   0.60493413106262      0.71016299821116      0.02267030109982
  C   -0.61531569515215      0.15619937625839      0.72052638159875
  Br  0.14724607765419      1.87001983884849     -1.43072173465629
  H   -0.30830261153667     -0.54717799062553      1.49599776798167
  H   1.18756163351719      1.29139341736822      0.73904013572145
  H   -1.21680031670125      0.95642673466763      1.14665799756530
  N   1.54917598465846     -0.41555407546609     -0.39360091854921
  O   1.99051741571911     -0.45282363242840     -1.52627179677252
  O   1.81577825125595     -1.17494372142602      0.53188536300977
  N   -1.50161891912843     -0.60024167650437     -0.21476053058905
  O   -2.70971185071652     -0.49291207092989     -0.03789541295787
  O   -0.94346410063250     -1.30054919797359     -1.05352755345182
