11

C	0.0	0.0	0.0
C	-0.631191	0.040549	-1.366777
F	1.377266	0.0	0.0
H	-1.786696	0.093184	-0.983254
H	-0.350684	0.861486	0.578097
H	-0.474887	-0.889261	-1.917325
C	-0.411006	-1.215011	0.735301
N	-0.561785	-2.190116	1.372188
C	-0.192523	1.183848	-2.131095
N	0.121595	2.138617	-2.745213
H	-2.818428	0.0	0.0
