11

C	0.0	0.0	0.0
C	-0.646648	0.105318	-1.354316
F	1.377336	0.0	0.0
H	-1.815421	0.136319	-0.910884
H	-0.33135	0.846022	0.609133
H	-0.497241	-0.803215	-1.949938
C	-0.398928	-1.252086	0.678162
N	-0.518586	-2.280922	1.229871
C	-0.234793	1.273656	-2.081302
N	0.080606	2.230029	-2.695996
H	-2.784731	0.0	0.0
