11

C	0.0	0.0	0.0
C	-0.558557	-0.17861	-1.395293
F	1.377441	0.0	0.0
H	-1.675828	-0.205388	-1.160408
H	-0.376014	0.939844	0.406992
H	-0.337347	0.707953	-1.996451
C	-0.407818	-1.100704	0.900331
N	-0.497762	-2.018776	1.627692
C	-0.051158	-1.36369	-2.060477
N	0.346387	-2.317355	-2.621834
H	-2.842168	0.0	0.0
