11

C	0.0	0.0	0.0
C	-0.404963	0.021092	-1.468097
F	1.379751	0.0	0.0
H	0.056857	-0.84882	-1.952234
H	-0.370993	0.879158	0.525082
H	0.076607	0.905965	-1.905242
C	-0.462821	-1.206582	0.708536
N	-0.544067	-2.224817	1.296692
C	-1.870944	0.046218	-1.733269
N	-2.633264	0.125054	-2.655388
H	-2.330906	0.0	0.0
