18

C	0.0	0.0	0.0
C	-0.249833	0.009572	-1.563494
Br	1.963323	0.0	0.0
H	0.563434	-0.630987	-1.924299
N	-0.36175	1.144615	0.881842
O	-0.442344	0.901768	2.087753
O	-0.357246	2.278051	0.396169
C	-0.445823	-1.245825	0.585264
N	-0.54601	-2.359562	0.969328
C	-0.058099	1.374816	-2.221648
H	0.004295	1.223398	-3.30515
H	-0.902424	2.029341	-2.005652
H	0.851564	1.868955	-1.886314
C	-1.527136	-0.637018	-2.103063
H	-2.39305	0.018008	-2.009977
H	-1.752758	-1.577034	-1.597752
H	-1.35466	-0.851392	-3.169483
H	-1.832666	0.0	0.0
