18

C	0.0	0.0	0.0
C	-0.345996	0.120124	-1.532904
Br	1.942213	0.0	0.0
H	-1.348543	0.542208	-1.543161
N	-0.456109	1.199291	0.776329
O	-0.471709	1.094634	2.006831
O	-0.506893	2.272582	0.161788
C	-0.497168	-1.196798	0.648475
N	-0.560825	-2.260808	1.162749
C	-0.411016	-1.274473	-2.146497
H	0.533528	-1.807452	-2.010069
H	-0.601312	-1.191123	-3.221482
H	-1.211498	-1.860748	-1.692102
C	0.547089	1.030434	-2.384224
H	0.763668	1.969291	-1.879647
H	1.484956	0.557166	-2.67549
H	-0.011504	1.255086	-3.300403
H	-2.056923	0.0	0.0
