12

C	-0.202158	-0.025198	-1.454872
C	-0.015999	0.056182	0.050572
Cl	-1.991333	-0.387076	-1.826223
H	1.065371	0.150015	0.197386
H	-0.088677	0.968986	-1.903468
H	-0.326918	-0.893591	0.491325
N	0.639408	-1.045973	-1.940315
H	0.760761	-0.948645	-2.942483
H	1.594494	-0.900003	-1.479161
C	-0.736174	1.156325	0.675607
N	-1.298625	2.04971	1.190049
H	2.836227	-0.399507	-0.660992
