12

C	-0.163378	0.006645	-1.456602
C	-0.047038	0.011064	0.069975
Cl	-1.923073	-0.155366	-1.919714
H	1.033525	0.067008	0.237023
H	0.145763	0.981066	-1.83697
H	-0.414604	-0.940802	0.46559
N	0.629056	-0.997317	-2.079586
H	1.6114	-0.75461	-1.764764
H	0.412003	-1.891422	-1.645052
C	-0.73995	1.110409	0.730423
N	-1.286941	2.003685	1.262023
H	2.835345	-0.16786	-0.807838
