12

C	-0.378456	0.084097	-1.308843
C	-0.060006	0.132039	0.180861
Cl	-0.277237	1.850172	-1.907219
H	1.030432	0.08282	0.19975
H	0.502653	-0.396299	-1.771493
H	-0.42677	1.046456	0.654503
N	-1.605551	-0.531343	-1.640818
H	-1.705935	-0.618354	-2.642893
H	-2.40104	-0.03209	-1.263777
C	-0.593619	-1.010868	0.914273
N	-1.03527	-1.882606	1.565466
H	2.32471	-0.732477	-1.150049
