12

C	-0.193178	-0.039498	-1.14887
C	-0.04612	-0.298918	0.339518
Cl	-1.787942	0.886358	-1.391153
H	0.991761	-0.619144	0.475973
H	0.636441	0.635042	-1.502986
H	-0.212555	0.618284	0.908282
N	-0.095639	-1.218705	-1.911607
H	0.269325	-0.982092	-2.828127
H	-0.957967	-1.742984	-1.968706
C	-0.93712	-1.347403	0.834723
N	-1.65334	-2.197363	1.21358
H	2.016756	1.070688	-2.297125
