16

C	-0.532883	-0.079017	-1.438826
C	0.0	0.0	0.0
F	-0.358422	1.196163	-1.98046
H	1.088088	0.0	0.0
H	-0.37223	-0.85628	0.564955
C	0.320016	-1.046766	-2.228829
H	1.364486	-0.735684	-2.175157
H	0.246454	-2.055949	-1.813701
H	-0.027389	-1.055655	-3.263708
N	-1.933741	-0.385599	-1.580151
H	-2.454515	0.099567	-0.85712
H	-2.071015	-1.380167	-1.452883
N	-0.555529	1.202421	0.661284
O	-1.754188	1.148551	0.977682
O	0.160837	2.180669	0.826174
Cl	3.44092	0.0	0.0
