16

C	-0.381415	0.040488	-1.470961
C	0.0	0.0	0.0
F	-1.772518	-0.116352	-1.596357
H	1.088506	0.0	0.0
H	-0.40096	-0.908931	0.440051
C	-0.024848	1.325198	-2.194233
H	-0.597174	2.17318	-1.820416
H	1.038721	1.528829	-2.064642
H	-0.247714	1.190134	-3.257481
N	0.236387	-1.137853	-2.031572
H	1.212048	-1.16697	-1.737943
H	0.224827	-1.068434	-3.044199
N	-0.533262	1.12611	0.792381
O	-0.120234	2.259186	0.546862
O	-1.361677	0.860894	1.667721
Cl	3.337045	0.0	0.0
