16

C	-0.531047	-0.020282	-1.44204
C	0.0	0.0	0.0
F	-0.354827	1.275257	-1.931928
H	1.088111	0.0	0.0
H	-0.374288	-0.87731	0.529699
C	0.319811	-0.956646	-2.271249
H	1.366042	-0.65388	-2.199281
H	0.238919	-1.984145	-1.904304
H	-0.023394	-0.915584	-3.306668
N	-1.934214	-0.316698	-1.595301
H	-2.454674	0.148123	-0.857923
H	-2.076312	-1.313228	-1.49502
N	-0.556546	1.176142	0.706115
O	0.151549	2.155386	0.886966
O	-1.749068	1.101108	1.039491
Cl	3.432913	0.0	0.0
