16

C	-0.42673	-0.11593	-1.463869
C	0.0	0.0	0.0
F	-0.281013	-1.483825	-1.822596
H	1.089525	0.0	0.0
H	-0.385041	0.924373	0.42838
C	-1.87569	0.218319	-1.749597
H	-2.53236	-0.432579	-1.176093
H	-2.077741	0.074342	-2.814446
H	-2.075623	1.255988	-1.487972
N	0.456919	0.715132	-2.192829
H	1.425788	0.52265	-1.944265
H	0.321862	0.597205	-3.187906
N	-0.564727	-1.111415	0.795298
O	-1.726211	-0.964251	1.202026
O	0.119686	-2.110532	0.982739
Cl	3.409738	0.0	0.0
