16

C	-0.509904	0.04312	-1.437951
C	0.0	0.0	0.0
F	-0.407751	1.394102	-1.797705
H	1.088603	0.0	0.0
H	-0.390115	0.855909	0.545557
C	0.372241	-0.72173	-2.404294
H	1.412822	-0.415295	-2.279934
H	0.299643	-1.790163	-2.199159
H	0.041441	-0.521521	-3.428462
N	-1.927737	-0.255676	-1.496028
H	-2.232285	-0.112624	-2.453497
H	-2.048909	-1.238934	-1.279346
N	-0.429022	-1.204615	0.749663
O	-0.532499	-1.097799	1.968374
O	-0.617357	-2.255443	0.128809
Cl	3.372685	0.0	0.0
