16

C	-0.438001	-0.029297	-1.474902
C	0.0	0.0	0.0
F	-0.323459	-1.383018	-1.813608
H	1.089926	0.0	0.0
H	-0.41399	-0.833949	0.561515
C	-1.883769	0.36292	-1.699404
H	-2.041063	1.421595	-1.489014
H	-2.538334	-0.230168	-1.0566
H	-2.127782	0.168537	-2.74431
N	0.434008	0.688604	-2.362487
H	1.391466	0.416033	-2.139185
H	0.36926	1.671684	-2.122651
N	-0.458179	1.236925	0.666897
O	-1.057377	1.130841	1.738746
O	-0.22315	2.311855	0.110572
Cl	3.347286	0.0	0.0
