16

C	-0.407263	-0.064788	-1.462361
C	0.0	0.0	0.0
F	-1.818203	-0.021647	-1.539591
H	1.08921	0.0	0.0
H	-0.4156	0.890411	0.465466
C	0.100244	1.187294	-2.155326
H	1.18651	1.237392	-2.058833
H	-0.347521	2.083159	-1.720693
H	-0.17732	1.144912	-3.212889
N	0.039222	-1.277698	-2.069189
H	0.316788	-1.117792	-3.027681
H	0.81301	-1.684367	-1.558083
N	-0.519258	-1.151671	0.77114
O	0.024323	-2.242555	0.606983
O	-1.470424	-0.948199	1.529858
Cl	3.363971	0.0	0.0
