17

C	0.0	0.0	0.0
C	-0.327584	-0.100683	-1.523498
F	1.389954	0.0	0.0
H	-0.18522	-1.172489	-1.711621
N	-0.38725	1.371708	0.55355
O	-0.445017	1.497097	1.76807
O	-0.503712	2.280591	-0.260874
N	-0.493509	-0.984695	0.858227
H	-1.535741	-0.812839	0.739497
H	-0.250195	-1.886096	0.461136
C	0.644154	0.645996	-2.454797
H	0.488676	1.716991	-2.36724
H	1.678727	0.408942	-2.220948
H	0.435904	0.35361	-3.486278
C	-1.682666	0.210138	-2.004941
N	-2.483007	0.441386	-2.837459
F	-2.608419	0.0	0.0
