17

C	0.0	0.0	0.0
C	-0.512774	0.154275	-1.451044
F	1.349534	0.0	0.0
H	-1.500184	0.612362	-1.319676
N	-0.339688	1.325609	0.741046
O	-0.454198	1.295476	1.957968
O	-0.352269	2.343147	0.050529
N	-0.537657	-1.042239	0.759891
H	-1.576465	-0.846043	0.647593
H	-0.297499	-1.918579	0.311801
C	-0.753152	-1.211749	-2.098747
H	-1.003578	-1.083123	-3.153978
H	-1.607989	-1.653813	-1.589612
H	0.124794	-1.862504	-2.035157
C	0.382371	0.953458	-2.281077
N	1.099465	1.508863	-3.027712
F	-2.743898	0.0	0.0
