17

C	0.0	0.0	0.0
C	-0.544565	0.194171	-1.41664
F	1.349872	0.0	0.0
H	-1.549333	0.608404	-1.253283
N	-0.26049	1.347476	0.798007
O	-0.168474	1.259365	2.021583
O	-0.460891	2.387341	0.180127
N	-0.573122	-1.077308	0.646427
H	-1.615292	-0.85172	0.526547
H	-0.315324	-1.03447	1.626409
C	-0.713057	-1.148515	-2.132366
H	-1.51889	-1.684364	-1.634796
H	-0.988966	-0.975034	-3.176616
H	0.204184	-1.740857	-2.098641
C	0.30923	1.081006	-2.20079
N	0.958498	1.740753	-2.923281
F	-2.794328	0.0	0.0
