17

C	0.0	0.0	0.0
C	-0.539299	0.103089	-1.424541
F	1.349344	0.0	0.0
H	-1.600309	0.372982	-1.265783
N	-0.277791	1.370912	0.734532
O	-0.629818	2.351923	0.092782
O	-0.0601	1.357844	1.946469
N	-0.572288	-1.052709	0.694592
H	-1.613438	-0.843856	0.561824
H	-0.319423	-0.961268	1.672754
C	-0.461266	-1.259771	-2.119986
H	0.558361	-1.653662	-2.099857
H	-0.779793	-1.162593	-3.160831
H	-1.123672	-1.951998	-1.60516
C	0.190852	1.093686	-2.208786
N	0.804055	1.822833	-2.896512
F	-2.802014	0.0	0.0
