17

C	0.0	0.0	0.0
C	-0.296185	-0.272572	-1.506878
F	1.389569	0.0	0.0
H	-0.001506	-1.329985	-1.584069
N	-0.39478	1.41891	0.408705
O	-0.417792	1.673986	1.604488
O	-0.554216	2.236461	-0.492887
N	-0.501811	-0.88853	0.951865
H	-1.544505	-0.720562	0.813753
H	-0.266868	-1.827929	0.649225
C	0.588618	0.491585	-2.509747
H	1.636153	0.457314	-2.211569
H	0.267434	1.528191	-2.580344
H	0.482968	0.027187	-3.493533
C	-1.677299	-0.2084	-2.01271
N	-2.494455	-0.199822	-2.863996
F	-2.615744	0.0	0.0
