11

C	0.0	0.0	0.0
C	-0.329929	-0.28838	-1.488563
Br	1.94985	0.0	0.0
H	0.391156	0.254291	-2.106469
H	-0.34131	0.972565	0.328651
H	-0.1318	-1.350831	-1.655923
C	-0.443687	-1.060301	0.899071
N	-0.570265	-1.959735	1.645501
C	-1.663588	0.018039	-2.020278
N	-2.43445	0.237001	-2.886807
F	-2.317939	0.0	0.0
