11

C	0.0	0.0	0.0
C	-0.45297	-0.248779	-1.443672
Br	1.947764	0.0	0.0
H	-1.563106	-0.16939	-1.314272
H	-0.3619	0.973979	0.313258
H	-0.044649	0.53867	-2.08267
C	-0.458401	-1.022099	0.933664
N	-0.590568	-1.883796	1.721563
C	-0.031466	-1.540208	-1.961616
N	0.304648	-2.572801	-2.41069
F	-2.511937	0.0	0.0
