14
Coordinates from ORCA-job run
  C   -0.56028623697791     -0.13176352261380      0.00694679939453
  C   0.91853402586319     -0.43750262551409     -0.02490067122170
  F   -0.98777276505511     -0.22934423355254      1.31837840516030
  H   1.02932148564737     -1.51068284740571      0.19561953897311
  H   1.27320545112255     -0.25683214030906     -1.03759665906236
  N   -1.32371851905746     -0.90786967246180     -0.88219976319383
  H   -1.13869301330578     -1.89363819925197     -0.75394555824289
  H   -2.31370617552263     -0.72942344519742     -0.76150277365886
  N   -0.78797428422112      1.32662293139500     -0.38933227583009
  O   -1.64778356656458      1.94335093738940      0.22678325625235
  O   -0.12850141846342      1.73502234186335     -1.33447410266254
  N   1.59335681771178      0.45061680132456      0.90298327344901
  H   1.49768610233305      0.11791079372759      1.85208683694492
  H   2.57533209649006      0.52253288060649      0.68015369369806
