14
Coordinates from ORCA-job run
  C   -0.60172873334057      0.01993391445519      0.10292594870078
  C   0.88019573781121      0.19267567302191      0.39357747570765
  F   -1.25903470511761     -0.27017413358144      1.29818697294824
  H   1.30634008871498      0.83105258182257     -0.38458941878235
  H   0.96617171003800      0.71795224298235      1.34936886779519
  N   -0.87169509602213     -0.91446157696270     -0.87296747397245
  H   -1.63079290954698     -0.68356138284267     -1.49251934275313
  H   -0.04492197860088     -1.30839038717458     -1.29269179803717
  N   -1.19828997107177      1.40117419601317     -0.24013074907420
  O   -0.85463246038112      2.33120253265584      0.48076636345221
  O   -1.99015545603189      1.46865219698540     -1.17565040670743
  N   1.53302345808403     -1.10962299776469      0.32689619121156
  H   1.22855424898317     -1.68461701203517      1.10336906493810
  H   2.53496606648155     -0.99381584757516      0.40345830457298
