14
Coordinates from ORCA-job run
  C   -0.54538068289779     -0.13809735881853      0.14134523585630
  C   0.88372958942578      0.29674808725540      0.40638908149446
  F   -1.07588399291599     -0.78789640889405      1.19586741322668
  H   0.87180363517687      0.93285171250831      1.29580137343327
  H   1.20116849992968      0.91276488495985     -0.44846514786454
  N   -0.65775738420028     -0.95495301145110     -1.00844754191117
  H   -0.50266276334489     -0.40533008717329     -1.84368337025403
  H   -1.57548967132287     -1.38177961709597     -1.04817316401563
  N   -1.36931816000875      1.17299808188082     -0.00115245855044
  O   -2.02093876322846      1.56301497324315      0.95725508322032
  O   -1.25113940243711      1.73982373667230     -1.08664505821940
  N   1.68741270441352     -0.88126122722879      0.67080254570342
  H   2.62627178036501     -0.61013821785991      0.92990744600553
  H   1.73018461104527     -1.45774554799820     -0.15880143812478
