14
Coordinates from ORCA-job run
  C   -0.69379029821932     -0.30406812680784      0.15688588422564
  C   0.68127899004207     -0.40622942838206      0.77630401962613
  F   -1.64572154041559     -0.71445497192425      1.05313103438341
  H   0.83439631473219     -1.47010864904827      0.96755662683563
  H   0.67034858404234      0.12142536009183      1.73327463028353
  N   -0.79870623937941     -1.01757882890713     -1.03401716058779
  H   -1.63715131915924     -0.77299284674224     -1.54452219652973
  H   0.03581247710059     -0.85628567112463     -1.58497759640304
  N   -1.06148272184975      1.20039491026737     -0.03583730104127
  O   -2.01879326642234      1.42639876620842     -0.76870616656920
  O   -0.40211034408875      2.04608416387437      0.56519768352294
  N   1.66976887567844      0.07264520276960     -0.18247627783426
  H   2.55609958975984     -0.39121034301872     -0.04219630573144
  H   1.81005089817894      1.06698046274355     -0.05961687418054
