14
Coordinates from ORCA-job run
  C   -0.53879103256922      0.08754801864086      0.05601326480092
  C   0.96032886578388      0.24180221077468      0.19627892779384
  F   -1.03430458992070     -0.35795311798803      1.28895215900586
  H   1.34041127014172      0.71867764332959     -0.70657481108502
  H   1.15995461642538      0.90252884846435      1.04505560777376
  N   -0.89320448336425     -0.72092700029895     -1.01800410865187
  H   -1.88123431373131     -0.93442434344757     -1.02307683601678
  H   -0.31161716822443     -1.54962512623400     -1.01372839640284
  N   -1.23871555301014      1.42414588147325     -0.12449467073842
  O   -0.55535856643978      2.44359272195815     -0.09789980949931
  O   -2.45358918197320      1.36818614142324     -0.27603466494685
  N   1.52095800735153     -1.10246918541018      0.31517932981153
  H   1.41935791983214     -1.43298751998400      1.26615022747543
  H   2.50680420969838     -1.08909517270138      0.09318378067975
