19

C	0.0	0.0	0.0
C	-0.556152	0.163967	-1.416875
Br	1.937896	0.0	0.0
H	-1.639729	0.269978	-1.193758
N	-0.262484	1.326294	0.862438
O	-0.084048	2.423787	0.349582
O	-0.578396	1.144912	2.0327
N	-0.614646	-1.076802	0.618509
H	-0.4168	-1.062917	1.612935
H	-1.660392	-0.858043	0.486417
C	-0.359998	-1.143418	-2.183687
H	-0.698213	-1.999948	-1.600852
H	-0.941506	-1.100483	-3.110006
H	0.69429	-1.289116	-2.450092
C	-0.074443	1.335281	-2.265162
H	-0.456074	1.195822	-3.282912
H	-0.434385	2.291422	-1.893906
H	1.017244	1.377487	-2.321889
H	-3.012682	0.0	0.0
