19

C	0.0	0.0	0.0
C	-0.330151	0.133742	-1.534346
Br	1.953252	0.0	0.0
H	0.52342	0.704643	-1.892709
N	-0.236864	1.431728	0.680561
O	-0.395357	1.439445	1.889707
O	-0.185805	2.436656	-0.012369
N	-0.583107	-1.045143	0.680689
H	-1.656493	-0.773973	0.538897
H	-0.287379	-1.001704	1.659124
C	-1.561261	0.912761	-2.036622
H	-1.807981	1.749134	-1.40038
H	-1.298742	1.282242	-3.048519
H	-2.451832	0.304166	-2.10439
C	-0.256222	-1.252476	-2.156841
H	-1.168118	-1.789821	-1.908772
H	-0.174445	-1.169439	-3.244182
H	0.596862	-1.799883	-1.774948
H	-2.753712	0.0	0.0
