19

C	0.0	0.0	0.0
C	-0.29239	9.4e-05	-1.561674
Br	1.944465	0.0	0.0
H	0.547214	-0.597549	-1.926093
N	-0.294434	1.348068	0.789786
O	-0.266054	2.427274	0.215698
O	-0.466317	1.2015	1.994831
N	-0.628934	-1.065152	0.619287
H	-1.678114	-0.807478	0.47035
H	-0.440712	-1.039483	1.617206
C	-0.194673	1.346505	-2.280772
H	0.710139	1.899144	-2.026809
H	-1.056171	1.974048	-2.055326
H	-0.183522	1.145356	-3.357165
C	-1.516484	-0.766808	-2.06854
H	-1.580046	-1.74904	-1.599769
H	-2.445568	-0.248525	-1.852932
H	-1.372664	-0.902869	-3.150243
H	-2.98854	0.0	0.0
