13

C	0.0	0.0	0.0
C	-0.388648	-0.021148	-1.500206
F	1.385386	0.0	0.0
H	0.580911	0.051736	-2.009059
H	-0.359813	-0.889353	0.515471
H	-0.358977	0.890107	0.512892
C	-1.103721	1.17926	-1.948358
N	-1.507369	2.164136	-2.444246
C	-1.045752	-1.324625	-1.95996
H	-2.012965	-1.43347	-1.472405
H	-0.389306	-2.160219	-1.696738
H	-1.182305	-1.321493	-3.044489
Br	-3.567838	0.0	0.0
