14

C	0.0	0.0	0.0
C	-0.479915	0.082149	-1.475189
Br	2.009821	0.0	0.0
H	0.366143	-0.033257	-2.163398
H	-0.280299	-0.983594	0.362573
N	-0.442825	0.992458	0.913445
H	-0.245503	1.915421	0.537051
H	-1.478175	0.812126	0.838571
C	-1.131089	1.349915	-1.767817
N	-1.491553	2.440417	-2.014835
N	-1.373654	-1.073466	-1.861188
O	-1.089045	-2.167251	-1.391437
O	-2.199103	-0.864482	-2.738377
F	-2.546417	0.0	0.0
