14

C	0.0	0.0	0.0
C	-0.386241	-0.1508	-1.477048
Br	1.941291	0.0	0.0
H	0.140556	0.624678	-2.03598
H	-0.310626	-0.881358	0.560882
N	-0.484507	1.26926	0.461636
H	-0.187775	1.389646	1.424405
H	-1.511832	1.072003	0.445762
C	-1.807248	-0.119753	-1.894506
N	-2.568965	-0.124332	-2.799217
N	0.161198	-1.451108	-2.015542
O	0.766015	-1.406673	-3.084059
O	-0.05396	-2.46652	-1.360212
F	-2.626597	0.0	0.0
