14

C	0.0	0.0	0.0
C	-0.481834	0.05872	-1.47499
Br	2.009731	0.0	0.0
H	0.36121	-0.068141	-2.163794
H	-0.276209	-0.978872	0.376799
N	-0.449462	1.004524	0.896936
H	-0.253906	1.920695	0.504673
H	-1.484078	0.818726	0.820755
C	-1.136303	1.322222	-1.78425
N	-1.48532	2.408546	-2.062103
N	-1.377041	-1.104047	-1.8334
O	-2.204444	-0.911646	-2.712537
O	-1.08466	-2.189217	-1.347887
F	-2.558707	0.0	0.0
