14

C	0.0	0.0	0.0
C	-0.381522	-0.117485	-1.48831
Br	1.951201	0.0	0.0
H	0.132591	0.67453	-2.039384
H	-0.332637	-0.887865	0.529435
N	-0.490941	1.169771	0.649882
H	-1.517802	0.977662	0.607419
H	-0.274196	1.985055	0.084205
C	-1.807378	-0.090462	-1.892454
N	-2.576793	-0.081573	-2.791221
N	0.178164	-1.393363	-2.073236
O	-0.042875	-2.431277	-1.456224
O	0.800919	-1.30709	-3.128792
F	-2.636086	0.0	0.0
