14

C	0.0	0.0	0.0
C	-0.503867	-0.293103	-1.442694
Br	1.961148	0.0	0.0
H	0.326781	-0.599945	-2.090344
H	-0.284995	-0.864873	0.59217
N	-0.471717	1.180383	0.642383
H	-0.270111	1.986059	0.057873
H	-1.50511	0.977656	0.598063
C	-1.152934	0.861105	-2.04341
N	-1.533418	1.835798	-2.576387
N	-1.421263	-1.497037	-1.502023
O	-2.229404	-1.527333	-2.417977
O	-1.157579	-2.423602	-0.74759
F	-2.590243	0.0	0.0
