17

C	-0.613834	-0.048153	-1.397857
C	0.0	0.0	0.0
F	-0.202014	-1.235143	-1.958591
H	1.095265	0.0	0.0
C	-2.118464	0.00795	-1.448568
H	-2.480361	0.959034	-1.063689
H	-2.457898	-0.105214	-2.478289
H	-2.507446	-0.814723	-0.845962
N	-0.012315	1.022273	-2.313489
O	1.191006	0.940678	-2.511432
O	-0.781786	1.831812	-2.827181
C	-0.435691	-1.166695	0.740392
N	-0.78419	-2.141974	1.29747
N	-0.379882	1.222523	0.725868
O	-0.45777	1.175823	1.951816
O	-0.512471	2.247416	0.050376
F	2.415134	0.0	0.0
