17

C	-0.431794	-0.002534	-1.468461
C	0.0	0.0	0.0
F	0.133291	-1.103558	-2.035296
H	1.092601	0.0	0.0
C	-1.912381	-0.012739	-1.761436
H	-2.340045	-0.919332	-1.33098
H	-2.062632	-0.024101	-2.843826
H	-2.401684	0.856116	-1.329143
N	0.178833	1.213204	-2.158045
O	-0.370292	2.28225	-1.895622
O	1.113809	1.043187	-2.923044
C	-0.535985	-1.179154	0.646315
N	-0.935609	-2.149363	1.17767
N	-0.515762	1.214408	0.708505
O	-1.685043	1.198767	1.111457
O	0.262745	2.152465	0.843502
F	2.453404	0.0	0.0
