17

C	-0.488548	0.002538	-1.430951
C	0.0	0.0	0.0
F	-1.830772	-0.318822	-1.527863
H	1.083971	0.0	0.0
C	-0.233949	1.291127	-2.154482
H	0.814897	1.558136	-2.039032
H	-0.861637	2.068549	-1.719082
H	-0.497196	1.163943	-3.202002
N	0.196899	-1.15339	-2.173185
O	0.674227	-2.060119	-1.507805
O	0.14479	-1.115472	-3.400489
C	-0.54941	-1.092489	0.781667
N	-0.989344	-1.974826	1.420819
N	-0.46044	1.288469	0.62676
O	0.312789	2.239046	0.564757
O	-1.584012	1.328479	1.131463
F	2.469906	0.0	0.0
