16

C	-0.488256	0.042443	-1.43798
C	0.0	0.0	0.0
F	-0.169519	1.324637	-1.923289
H	1.100455	0.0	0.0
H	0.089529	-0.667408	-2.030402
C	-1.979172	-0.148733	-1.602443
H	-2.266169	0.043206	-2.640383
H	-2.507426	0.544371	-0.946657
H	-2.25318	-1.171821	-1.345438
N	-0.356345	-1.255019	0.625997
O	-0.492832	-1.276943	1.859538
O	-0.334694	-2.277325	-0.084298
N	-0.531895	1.116614	0.76704
H	-0.138768	1.940057	0.315892
H	-0.0918	1.058515	1.68024
H	2.604809	0.0	0.0
