16

C	-0.509615	0.107007	-1.427177
C	0.0	0.0	0.0
F	-0.338156	-1.125226	-2.065503
H	1.090644	0.0	0.0
H	-1.592565	0.294874	-1.423954
C	0.264791	1.156928	-2.191063
H	0.051001	2.154107	-1.799189
H	-0.015583	1.129453	-3.246998
H	1.333642	0.959991	-2.074579
N	-0.586742	-1.260064	0.571929
O	-1.814639	-1.266424	0.704853
O	0.152043	-2.194618	0.858757
N	-0.404503	1.097499	0.832692
H	0.384567	1.721348	0.945138
H	-1.217159	1.590567	0.490213
H	2.876431	0.0	0.0
