16

C	-0.382455	0.004157	-1.464547
C	0.0	0.0	0.0
F	-1.769083	0.252659	-1.605151
H	1.090685	0.0	0.0
H	0.123291	0.883271	-1.878896
C	-0.015627	-1.220609	-2.25956
H	-0.593569	-2.085109	-1.935854
H	-0.206381	-1.038121	-3.320433
H	1.044542	-1.428542	-2.101574
N	-0.520954	-1.241249	0.65408
O	0.074351	-2.290624	0.39574
O	-1.510936	-1.168402	1.383914
N	-0.428781	1.15523	0.723905
H	-1.240924	1.588608	0.310335
H	0.349181	1.801089	0.771958
H	2.756081	0.0	0.0
