16

C	-0.511019	-0.080998	-1.427689
C	0.0	0.0	0.0
F	-0.167297	1.140257	-2.038978
H	1.09132	0.0	0.0
H	0.035813	-0.860291	-1.960102
C	-2.010182	-0.244013	-1.549079
H	-2.310658	-0.137244	-2.59521
H	-2.507906	0.518978	-0.948583
H	-2.307048	-1.232745	-1.197347
N	-0.370868	-1.19053	0.743822
O	-0.499645	-1.094725	1.971758
O	-0.387739	-2.270566	0.128858
N	-0.510608	1.188967	0.671002
H	-0.136229	1.956212	0.120823
H	-0.021731	1.229223	1.562008
H	2.629542	0.0	0.0
