16

C	-0.536734	-0.05862	-1.417664
C	0.0	0.0	0.0
F	0.072024	-1.092409	-2.130599
H	1.098532	0.0	0.0
H	-1.613127	-0.272823	-1.415182
C	-0.230773	1.229108	-2.150985
H	0.846749	1.401458	-2.113841
H	-0.744472	2.066532	-1.682432
H	-0.544319	1.137049	-3.193846
N	-0.445428	-1.145675	0.796575
O	-0.44914	-1.031655	2.034684
O	-0.722965	-2.200907	0.211612
N	-0.368244	1.25173	0.656031
H	0.518803	1.722756	0.830129
H	-0.722021	1.006634	1.573708
H	2.591849	0.0	0.0
