16

C	-0.523615	0.092272	-1.421581
C	0.0	0.0	0.0
F	-0.292278	-1.126299	-2.069918
H	1.090683	0.0	0.0
H	-1.616005	0.222235	-1.40806
C	0.179408	1.192471	-2.186685
H	1.260585	1.07355	-2.071311
H	-0.111177	2.174489	-1.804273
H	-0.097276	1.136468	-3.242511
N	-0.574431	-1.261768	0.587321
O	0.177099	-2.174131	0.909562
O	-1.80424	-1.288446	0.703721
N	-0.408058	1.094654	0.832848
H	-1.225636	1.583344	0.494879
H	0.378024	1.721748	0.945622
H	2.87504	0.0	0.0
