17
Coordinates from ORCA-job run
  C   -0.85274665455226     -0.03986298252398     -0.62975707806369
  C   0.28762346342157      0.46037753688592      0.25832230206208
  Cl  -0.21544952403740     -0.90692004125986     -2.07702353026537
  H   -0.21992110516680      1.00677834949530      1.06687273557927
  H   -1.37196716983174      0.83111044457005     -1.03958296087008
  C   -1.84914553133767     -0.94105243712617      0.07662717427040
  H   -2.22590443394836     -0.44258433452057      0.97490096823771
  H   -1.39072440672733     -1.88707819979922      0.36599506516546
  H   -2.69470499196411     -1.16273168016206     -0.57641340960056
  C   1.18635127673827      1.45233806213228     -0.47587686977335
  H   1.76470447679188      0.95261170655078     -1.25546911445098
  H   1.88820841477219      1.91694646681938      0.22135235677554
  H   0.60136963367577      2.24802831797014     -0.94609624910910
  C   1.10849696452682     -0.66199461430189      0.88695296125327
  H   0.50342817965114     -1.31219074022574      1.52181157586101
  H   1.90078987021493     -0.23949285421954      1.50999467589243
  H   1.57959153777309     -1.27628300028483      0.11638939703595
