17
Coordinates from ORCA-job run
  C   -0.96115833088085      0.05630759232640     -0.40800051641591
  C   0.55520931320107      0.14377013010491     -0.23451479153744
  Cl  -1.40770642140991      0.57336649053555     -2.07842523807203
  H   1.00540460389318     -0.45538211092562     -1.03646475093151
  H   -1.43974033340921      0.78721906807897      0.25196473842598
  C   -1.54813414929670     -1.32381010477066     -0.17146879415374
  H   -1.04641865637624     -2.06477842133770     -0.79865195944180
  H   -2.61130824777285     -1.33316767434223     -0.41514987135113
  H   -1.43842073933276     -1.61380677488982      0.87522458337857
  C   0.97866424958730     -0.44231867504254      1.11403773858258
  H   2.04680475408119     -0.27629536022974      1.27380253721720
  H   0.44308744405561      0.04401270383940      1.93632955460203
  H   0.79950758345477     -1.51652406785098      1.17715872596164
  C   1.05669565508364      1.58124527056182     -0.35560898687175
  H   0.63288388114384      2.20073237391401      0.44172039629554
  H   0.78876194181389      2.02765953018395     -1.31328904632206
  H   2.14486745216405      1.61377002984430     -0.25966431936617
