14

C	0.0	0.0	0.0
C	-0.525826	0.104378	-1.427715
Cl	1.820169	0.0	0.0
H	-1.63239	0.036826	-1.28771
H	-0.336745	-0.948715	0.409513
N	-0.5015	1.093443	0.734468
H	0.06399	1.925045	0.692802
H	-0.857368	0.877006	1.647635
N	-0.098761	-1.05612	-2.270343
O	0.181522	-0.85459	-3.448992
O	-0.109839	-2.15187	-1.716144
C	-0.152948	1.361378	-2.05633
N	0.130408	2.401849	-2.521162
Br	-3.641098	0.0	0.0
