14

C	0.0	0.0	0.0
C	-0.50151	-0.012154	-1.454297
Cl	1.781133	0.0	0.0
H	-1.604131	-0.110476	-1.368639
H	-0.334366	-0.93222	0.4521
N	-0.485987	1.098428	0.773084
H	-1.502027	0.988689	0.840956
H	-0.280315	1.977109	0.310631
N	-0.009811	-1.221847	-2.192194
O	0.483279	-1.077506	-3.308407
O	-0.164964	-2.292085	-1.611325
C	-0.149377	1.204546	-2.169395
N	0.066993	2.227845	-2.703704
Br	-3.601866	0.0	0.0
