12
Coordinates from ORCA-job run
  C   -0.61668038664075     -0.23454696535217      0.33752906546260
  C   0.52478081716334      0.46442749838604     -0.36625243821242
  F   -0.35655954049647     -1.61452983810135      0.25208599568241
  H   0.58054761101596      0.17984632816790     -1.41603347939899
  H   -0.61790317261275      0.00826932014174      1.39981590046293
  H   0.43154035652531      1.54446490611287     -0.25651232555107
  N   -1.84693331379290      0.13668618823008     -0.24994733852500
  H   -1.90413142045858     -0.17961282036351     -1.20965533357880
  H   -2.62870531568068     -0.24138955848344      0.26723971119168
  N   1.82154178580940      0.07046872594963      0.25511752376645
  O   1.91458938631890      0.23111802915791      1.46927440891568
  O   2.69891319284922     -0.36520181384572     -0.48366169021547
