12
Coordinates from ORCA-job run
  C   -0.73446870692894      0.22386343775743      0.52439191720398
  C   0.51770819535955      0.82020272968941     -0.10067312723280
  F   -0.31909649848179     -0.36592325972508      1.73604452167791
  H   0.99860696662601      1.50492711689791      0.59343928724705
  H   -1.39975426045614      1.04161287782968      0.81252894517798
  H   0.27216387930168      1.29521259254040     -1.04885073087942
  N   -1.40819048932769     -0.65905996120523     -0.32020397255692
  H   -0.86819209951233     -1.36365849008187     -0.79003983371073
  H   -2.34122980138149     -0.91425738732606     -0.05427972752843
  N   1.51502063160146     -0.25365723597130     -0.37950916130724
  O   2.48211451508831     -0.34103832479785      0.36911556030140
  O   1.28531766811137     -0.98722409560744     -1.34296367839277
