12
Coordinates from ORCA-job run
  C   -0.70115677799652      0.37713558824372      0.37709118626542
  C   0.74724935759038     -0.03385197436835      0.56850022251165
  F   -1.27403042279972      0.29652091412817      1.66351979333269
  H   0.81950304741255     -1.06998945629630      0.89562120651648
  H   -0.77151336598893      1.42164260873317      0.07406995583387
  H   1.23972110690384      0.63054463841870      1.27700847175057
  N   -1.33198705893634     -0.43849581976137     -0.57938229995888
  H   -1.33942829988583     -1.41275948381934     -0.30788715966217
  H   -2.27064219837897     -0.13036125005047     -0.78916199460076
  N   1.45658290746121      0.08466889945854     -0.73165506874161
  O   1.87363014011179     -0.94479618018315     -1.25342131744118
  O   1.55207156450654      1.21974151549669     -1.19230299580610
