14

C	-0.517105	-0.045913	-1.425027
C	0.0	0.0	0.0
F	-1.867941	-0.249288	-1.445036
H	1.092969	0.0	0.0
H	-0.024179	-0.810096	-2.027677
N	-0.238531	1.275407	-2.094287
O	0.93667	1.470601	-2.370859
O	-1.18432	2.024345	-2.303999
C	-0.44231	-1.235713	0.67282
N	-0.818224	-2.18552	1.253408
N	-0.450283	1.218189	0.651836
H	-1.392017	1.124806	1.009768
H	0.182889	1.435126	1.410953
Br	3.435975	0.0	0.0
