14

C	-0.532751	0.086263	-1.421653
C	0.0	0.0	0.0
F	-0.057636	1.214712	-2.006667
H	1.100115	0.0	0.0
H	-1.623457	0.09726	-1.445411
N	-0.106826	-1.098396	-2.250943
O	0.843881	-0.973817	-3.004924
O	-0.787439	-2.109225	-2.076102
C	-0.506616	-1.188223	0.68018
N	-0.9189	-2.103284	1.291482
N	-0.511509	1.208413	0.684434
H	0.10463	1.962477	0.394565
H	-0.340274	1.086324	1.676673
Br	3.434947	0.0	0.0
