14

C	-0.512408	-0.066242	-1.429221
C	0.0	0.0	0.0
F	-1.841023	-0.381553	-1.467751
H	1.09667	0.0	0.0
H	0.049551	-0.772675	-2.040754
N	-0.344594	1.288599	-2.066286
O	-1.342538	1.982217	-2.2125
O	0.80465	1.571736	-2.373881
C	-0.431874	-1.229994	0.687988
N	-0.810729	-2.174184	1.276173
N	-0.441943	1.221243	0.651478
H	0.236799	1.474562	1.357552
H	-1.352769	1.116161	1.077711
Br	3.421542	0.0	0.0
