14

C	-0.542232	0.092203	-1.419843
C	0.0	0.0	0.0
F	0.090561	1.077778	-2.088425
H	1.093437	0.0	0.0
H	-1.617285	0.278665	-1.422769
N	-0.35875	-1.196832	-2.187906
O	0.616878	-1.31351	-2.911824
O	-1.244203	-2.032018	-2.001479
C	-0.484513	-1.190504	0.697367
N	-0.916964	-2.104616	1.296448
N	-0.415441	1.23826	0.681251
H	0.420669	1.664914	1.063187
H	-1.048485	1.03656	1.44294
Br	3.409169	0.0	0.0
