14

C	-0.409109	-0.20266	-1.439919
C	0.0	0.0	0.0
F	-0.361591	-1.510065	-1.820694
H	1.098611	0.0	0.0
H	0.202213	0.405164	-2.10422
N	-1.835821	0.243197	-1.66427
O	-2.070092	0.867743	-2.696727
O	-2.665525	-0.083576	-0.818449
C	-0.483182	-1.060594	0.888706
N	-0.867636	-1.863018	1.655634
N	-0.405168	1.349103	0.383048
H	0.317131	1.747481	0.969445
H	-1.281832	1.336014	0.88791
Br	3.399759	0.0	0.0
