14

C	-0.515017	-0.074818	-1.428225
C	0.0	0.0	0.0
F	-1.832373	-0.435831	-1.468117
H	1.092958	0.0	0.0
H	0.069516	-0.757578	-2.046373
N	-0.399464	1.289577	-2.056657
O	0.736773	1.627268	-2.354608
O	-1.426155	1.937967	-2.206148
C	-0.426487	-1.226768	0.695107
N	-0.790542	-2.168849	1.295335
N	-0.442463	1.222714	0.651141
H	-1.338813	1.109224	1.103778
H	0.252689	1.491426	1.334558
Br	3.418042	0.0	0.0
