19

C	-0.396914	-0.075365	-1.432072
C	0.0	0.0	0.0
Cl	0.350811	1.182162	-2.406061
H	1.10428	0.0	0.0
N	-0.010616	-1.448644	-2.007218
O	1.086248	-1.576247	-2.521724
O	-0.845121	-2.333022	-1.825313
N	-1.914698	-0.015833	-1.755533
O	-2.686002	0.122602	-0.811937
O	-2.235721	-0.120492	-2.933735
C	-0.386863	-1.216002	0.835618
H	-1.462459	-1.415342	0.868807
H	-0.033102	-1.021443	1.851952
H	0.136831	-2.110713	0.494529
C	-0.407517	1.303136	0.683404
H	-0.249732	2.169075	0.037785
H	0.257038	1.427286	1.54272
H	-1.446464	1.301943	1.025258
F	2.570241	0.0	0.0
