19

C	-0.410802	-0.011624	-1.431783
C	0.0	0.0	0.0
Cl	0.403441	-1.266122	-2.350696
H	1.095822	0.0	0.0
N	-1.926519	-0.164432	-1.73224
O	-2.687143	-0.216802	-0.773444
O	-2.258348	-0.204538	-2.910393
N	-0.105062	1.353804	-2.067675
O	0.999919	1.531914	-2.545977
O	-1.002593	2.187077	-1.961171
C	-0.388006	-1.271676	0.751668
H	-0.22127	-2.166459	0.147503
H	0.285839	-1.34442	1.609773
H	-1.424578	-1.267757	1.100963
C	-0.39663	1.257143	0.765673
H	-1.474509	1.441033	0.801061
H	-0.02576	1.131648	1.786568
H	0.10834	2.137619	0.363141
F	2.575407	0.0	0.0
