19

C	-0.331305	-0.006394	-1.487133
C	0.0	0.0	0.0
Br	-2.33372	-0.164864	-1.768408
H	1.093188	0.0	0.0
C	0.139915	1.237688	-2.213275
H	-0.388283	2.13325	-1.892243
H	0.005632	1.111557	-3.291134
H	1.20468	1.358219	-1.978974
C	0.314391	-1.240846	-2.090002
H	-0.089388	-2.159102	-1.663455
H	0.165914	-1.261585	-3.17194
H	1.386226	-1.180466	-1.853673
N	-0.407791	-1.125848	0.769369
H	-1.268856	-1.544714	0.446333
H	0.35103	-1.793674	0.796415
N	-0.496487	1.255366	0.65097
O	-1.498062	1.1938	1.364844
O	0.132665	2.291898	0.422727
H	2.710287	0.0	0.0
