19

C	-0.552466	0.001488	-1.436001
C	0.0	0.0	0.0
Br	0.073729	-1.698126	-2.249277
H	1.090011	0.0	0.0
C	-2.070971	-0.044914	-1.449096
H	-2.468064	0.876544	-1.006311
H	-2.42545	-0.898281	-0.86838
H	-2.447353	-0.13045	-2.471941
C	0.013821	1.110293	-2.310562
H	-0.242173	0.921449	-3.356428
H	-0.403023	2.074365	-2.013749
H	1.099073	1.150301	-2.19522
N	-0.45829	-1.119937	0.770955
H	0.337679	-1.447494	1.308583
H	-1.183046	-0.822295	1.410857
N	-0.384629	1.295348	0.649454
O	-1.171804	1.279732	1.610599
O	0.140726	2.325823	0.223071
H	2.676392	0.0	0.0
