19

C	-0.387295	0.01506	-1.468439
C	0.0	0.0	0.0
Br	-2.401745	0.020883	-1.635851
H	1.094073	0.0	0.0
C	0.153976	1.207378	-2.237276
H	1.229872	1.259741	-2.03352
H	-0.300959	2.145248	-1.932924
H	-0.015834	1.057177	-3.305777
C	0.128506	-1.278369	-2.07593
H	1.211239	-1.293725	-1.906015
H	-0.082248	-1.305204	-3.14681
H	-0.309493	-2.14352	-1.583771
N	-0.428634	-1.172191	0.688728
H	-1.350802	-1.034518	1.081115
H	0.225464	-1.343378	1.444561
N	-0.412689	1.255926	0.714532
O	0.085503	2.316981	0.338592
O	-1.183051	1.162841	1.679327
H	2.670766	0.0	0.0
