19

C	-0.475809	-0.056018	-1.462611
C	0.0	0.0	0.0
Br	-0.010069	1.657108	-2.34337
H	1.09095	0.0	0.0
C	0.342318	-1.140685	-2.153071
H	0.049718	-2.11971	-1.760124
H	0.159763	-1.130504	-3.230573
H	1.404981	-0.984053	-1.942381
C	-1.972911	-0.244023	-1.668709
H	-2.301073	-1.186439	-1.215881
H	-2.190797	-0.294721	-2.738588
H	-2.545762	0.567982	-1.223717
N	-0.348207	-1.152077	0.783815
H	-1.17303	-1.645936	0.48061
H	0.460508	-1.761377	0.823792
N	-0.567224	1.205116	0.693644
O	-1.762105	1.151152	1.008602
O	0.167467	2.163246	0.912807
H	2.810421	0.0	0.0
