19

C	-0.325322	-0.011285	-1.488795
C	0.0	0.0	0.0
Br	-2.326353	-0.172455	-1.779567
H	1.093204	0.0	0.0
C	0.150207	1.231212	-2.213876
H	0.016732	1.105816	-3.291549
H	1.21494	1.348232	-1.978469
H	-0.374996	2.128209	-1.892813
C	0.322017	-1.24725	-2.086009
H	0.173351	-1.272114	-3.167799
H	1.393758	-1.184086	-1.85031
H	-0.081055	-2.164141	-1.655652
N	-0.409774	-1.121078	0.774361
H	0.345792	-1.792545	0.802926
H	-1.276058	-1.535382	0.456671
N	-0.498722	1.258644	0.641931
O	0.136697	2.292893	0.420126
O	-1.508274	1.200378	1.343856
H	2.71099	0.0	0.0
