19

C	-0.481408	0.04571	-1.470161
C	0.0	0.0	0.0
Br	-0.055546	-1.736831	-2.246172
H	1.09034	0.0	0.0
C	-1.984701	0.22931	-1.620506
H	-2.270342	0.151737	-2.672404
H	-2.271396	1.21837	-1.251792
H	-2.547614	-0.51804	-1.05615
C	0.314498	1.062225	-2.274116
H	0.09938	0.955638	-3.340764
H	0.044447	2.071361	-1.955682
H	1.381389	0.917616	-2.080658
N	-0.425725	-1.08545	0.820722
H	-1.267942	-1.537773	0.497562
H	0.335351	-1.75257	0.846951
N	-0.481963	1.28814	0.618677
O	0.17497	2.307694	0.396158
O	-1.518911	1.265427	1.288315
H	2.776759	0.0	0.0
