16

C	-0.526814	0.034974	-1.425852
C	0.0	0.0	0.0
F	0.213314	0.956909	-2.140166
H	1.095978	0.0	0.0
N	-0.176232	-1.294312	-2.134399
O	0.988244	-1.652346	-2.066176
O	-1.074321	-1.876928	-2.747867
N	-1.894811	0.303917	-1.550961
H	-2.355613	-0.385192	-2.12787
H	-2.317163	0.41731	-0.641915
C	-0.538384	-1.176085	0.668607
N	-0.956947	-2.121425	1.229206
N	-0.521678	1.219635	0.674229
H	-0.003014	1.980623	0.241907
H	-0.167174	1.175925	1.624981
F	2.542466	0.0	0.0
