16

C	-0.525802	0.035233	-1.426205
C	0.0	0.0	0.0
F	0.214327	0.957871	-2.139783
H	1.095954	0.0	0.0
N	-0.173852	-1.293463	-2.13545
O	0.989614	-1.653798	-2.062285
O	-1.069794	-1.872721	-2.755243
N	-1.893787	0.303665	-1.552131
H	-2.317627	0.413866	-0.643412
H	-2.353372	-0.383381	-2.132365
C	-0.53826	-1.176639	0.667787
N	-0.956702	-2.122312	1.227929
N	-0.522605	1.219053	0.674387
H	-0.004849	1.98066	0.242085
H	-0.16805	1.175574	1.625119
F	2.542614	0.0	0.0
