16

C	-0.482867	0.221326	-1.415216
C	0.0	0.0	0.0
F	0.106489	1.331921	-1.952438
H	1.102153	0.0	0.0
N	-0.005043	-0.909081	-2.366953
O	-0.436814	-0.828364	-3.519714
O	0.743755	-1.777928	-1.941951
N	-1.8853	0.38815	-1.524268
H	-2.156423	0.398817	-2.500655
H	-2.363985	-0.359553	-1.035843
C	-0.621051	-1.205197	0.528921
N	-1.180866	-2.156963	0.935538
N	-0.323532	1.156538	0.845359
H	-1.081926	1.697167	0.444136
H	0.518328	1.720567	0.849469
F	2.519673	0.0	0.0
