16

C	-0.123226	-0.174652	-1.540915
C	0.0	0.0	0.0
F	-1.256105	-0.833545	-1.934025
H	1.093039	0.0	0.0
N	-0.26456	1.248337	-2.09786
O	0.765928	1.905346	-2.163982
O	-1.395126	1.655054	-2.35928
N	1.021802	-0.775492	-2.121408
H	0.879179	-1.778035	-2.117616
H	1.832283	-0.544315	-1.506032
C	-0.480238	-1.225713	0.626365
N	-0.865745	-2.215008	1.130517
N	-0.545411	1.178722	0.636413
H	-1.442835	1.442353	0.248362
H	0.111858	1.937186	0.513652
F	2.622606	0.0	0.0
