16

C	-0.171464	-0.308991	-1.497521
C	0.0	0.0	0.0
F	-1.334098	-0.98616	-1.812462
H	1.099323	0.0	0.0
N	-0.378459	1.062752	-2.214287
O	-1.524546	1.465458	-2.377469
O	0.644108	1.656631	-2.540479
N	0.954581	-0.99983	-1.928034
H	1.076861	-0.989218	-2.929585
H	1.795204	-0.682206	-1.402468
C	-0.501065	-1.1194	0.790819
N	-0.93032	-1.96222	1.489844
N	-0.499867	1.297829	0.408001
H	-1.452289	1.247319	0.747171
H	0.099921	1.651605	1.141406
F	2.627811	0.0	0.0
