16

C	-0.064474	-0.066757	-1.530338
C	0.0	0.0	0.0
F	-0.033996	-1.410909	-1.928837
H	1.097245	0.0	0.0
N	-1.387588	0.383111	-2.165335
O	-2.362776	0.547702	-1.434794
O	-1.390724	0.523378	-3.38486
N	0.968341	0.703624	-2.04998
H	1.824702	0.51239	-1.483118
H	1.084435	0.55709	-3.042709
C	-0.629317	-1.141071	0.641706
N	-1.140128	-2.047659	1.186549
N	-0.382468	1.259527	0.613737
H	0.374968	1.911275	0.462874
H	-1.235965	1.622528	0.212941
F	2.634127	0.0	0.0
