16

C	-0.130666	-0.30487	-1.516427
C	0.0	0.0	0.0
F	-1.29062	-0.960992	-1.879567
H	1.099828	0.0	0.0
N	-0.321505	1.081806	-2.231089
O	0.697656	1.643542	-2.624019
O	-1.458021	1.544748	-2.305589
N	1.002031	-0.983921	-1.923566
H	1.139808	-0.991682	-2.923387
H	1.836119	-0.67371	-1.374989
C	-0.529918	-1.132383	0.748625
N	-0.967283	-2.029881	1.368278
N	-0.49946	1.25556	0.51686
H	-1.391291	1.509767	0.112047
H	0.181461	1.976053	0.316946
F	2.641513	0.0	0.0
