17

C	0.0	0.0	0.0
C	-0.663721	0.01016	-1.360247
Br	1.96589	0.0	0.0
H	-1.788596	0.022405	-1.017431
C	-0.475606	1.130721	0.900559
H	-1.575455	1.082196	0.867614
H	-0.114009	0.969729	1.917708
H	-0.123482	2.092685	0.53483
C	-0.34571	-1.285486	0.627579
N	-0.530927	-2.289925	1.208577
N	-0.338195	-1.133594	-2.136014
H	0.531375	-0.98864	-2.635508
H	-1.078102	-1.311086	-2.802058
N	-0.379853	1.301988	-2.069381
O	-0.954515	2.320034	-1.676253
O	0.37826	1.272032	-3.047659
H	-3.021966	0.0	0.0
