17

C	0.0	0.0	0.0
C	-0.243985	0.226544	-1.516819
Br	1.97781	0.0	0.0
H	0.373802	-0.511481	-2.047806
C	-0.239273	1.212815	0.935008
H	0.259653	2.085061	0.517815
H	-1.297576	1.422317	1.047371
H	0.202793	0.975828	1.907298
C	-0.617387	-1.221069	0.484228
N	-0.666846	-2.307882	0.964423
N	0.02447	1.598381	-1.891373
H	1.02471	1.700448	-2.014088
H	-0.45102	1.792797	-2.762388
N	-1.631047	-0.142688	-1.989234
O	-2.340749	0.744049	-2.488718
O	-1.808585	-1.354166	-2.158884
H	-1.995949	0.0	0.0
