17

C	0.0	0.0	0.0
C	-0.626649	0.08382	-1.402289
Br	1.962346	0.0	0.0
H	-1.726678	0.183407	-1.130735
C	-0.491854	1.095782	0.932621
H	-0.137954	0.910572	1.948865
H	-0.142981	2.069199	0.591965
H	-1.592024	1.035542	0.885776
C	-0.360301	-1.318994	0.537262
N	-0.542795	-2.394989	0.976262
N	-0.428291	-1.024541	-2.27385
H	0.521788	-1.374709	-2.241274
H	-1.080419	-1.753684	-2.012122
N	-0.156686	1.333515	-2.072132
O	-0.673668	2.396015	-1.716944
O	0.722997	1.233873	-2.928946
H	-3.061964	0.0	0.0
