17

C	0.0	0.0	0.0
C	-0.666862	-0.196594	-1.369793
Br	1.957956	0.0	0.0
H	-1.758361	0.013731	-1.091944
C	-0.468955	1.265732	0.708096
H	-1.568204	1.212066	0.7016
H	-0.090065	1.2819	1.73214
H	-0.123927	2.147848	0.172364
C	-0.35908	-1.172226	0.809902
N	-0.549588	-2.122061	1.476517
N	-0.583838	-1.485608	-1.963258
H	-1.308105	-2.061859	-1.550513
H	0.323112	-1.919183	-1.842589
N	-0.160132	0.838244	-2.316111
O	-0.551507	1.996693	-2.147789
O	0.621309	0.487102	-3.201406
H	-3.049146	0.0	0.0
