16

C	-0.537617	0.046913	-1.427853
C	0.0	0.0	0.0
F	-0.121097	1.184261	-2.055999
H	1.098401	0.0	0.0
N	0.001511	-1.131582	-2.234113
O	-0.715666	-2.123893	-2.307459
O	1.111503	-0.975439	-2.718973
C	-2.006356	-0.005226	-1.464429
N	-3.180671	-0.0202	-1.463759
N	-0.457527	-1.21743	0.612887
H	-1.325789	-1.061657	1.109572
H	0.251327	-1.578242	1.235314
N	-0.529358	1.197061	0.668159
H	-0.122296	1.193204	1.599183
H	-0.131741	2.0107	0.206276
Br	3.51031	0.0	0.0
