16

C	-0.554785	0.040515	-1.421494
C	0.0	0.0	0.0
F	-0.162353	1.183773	-2.053864
H	1.098386	0.0	0.0
N	-0.018906	-1.129701	-2.239855
O	1.045572	-0.939285	-2.805789
O	-0.692976	-2.15212	-2.240752
C	-2.022954	-0.029677	-1.436717
N	-3.196468	-0.056738	-1.42077
N	-0.452106	-1.209817	0.63187
H	0.268872	-1.572203	1.239735
H	-1.307608	-1.044684	1.14759
N	-0.525063	1.20395	0.663581
H	-0.135109	2.013998	0.189189
H	-0.103701	1.208849	1.588063
Br	3.504888	0.0	0.0
