16

C	-0.453234	0.004851	-1.456949
C	0.0	0.0	0.0
F	0.141399	-1.006114	-2.138755
H	1.10088	0.0	0.0
N	-1.964107	-0.279096	-1.502419
O	-2.321824	-1.37307	-1.908355
O	-2.682162	0.620028	-1.082797
C	-0.229739	1.27896	-2.14319
N	-0.020935	2.271496	-2.733778
N	-0.543992	-1.229446	0.596175
H	-0.159997	-1.273923	1.534737
H	-0.140507	-2.022843	0.102808
N	-0.441395	1.195758	0.658397
H	-1.380633	1.084503	1.021476
H	0.20566	1.435168	1.398456
Br	3.506906	0.0	0.0
