16

C	-0.463514	-0.012792	-1.453374
C	0.0	0.0	0.0
F	0.129231	-1.027223	-2.132266
H	1.10089	0.0	0.0
N	-1.974191	-0.301487	-1.485004
O	-2.697101	0.608107	-1.098043
O	-2.325185	-1.412687	-1.84818
C	-0.25149	1.256037	-2.152134
N	-0.063784	2.244296	-2.756791
N	-0.538208	-1.216893	0.626698
H	-0.207406	-2.019264	0.095968
H	-0.075967	-1.286051	1.528111
N	-0.440746	1.202772	0.649204
H	0.248409	1.492002	1.328349
H	-1.342041	1.064903	1.086923
Br	3.482538	0.0	0.0
