16

C	-0.551977	0.01225	-1.424218
C	0.0	0.0	0.0
F	-0.190187	1.161041	-2.064738
H	1.098391	0.0	0.0
N	0.016228	-1.149364	-2.235228
O	-0.608618	-2.202362	-2.189042
O	1.050552	-0.921837	-2.843335
C	-2.017809	-0.098464	-1.442427
N	-3.190713	-0.155213	-1.440602
N	-0.449645	-1.197227	0.655958
H	0.267609	-1.539925	1.280459
H	-1.312661	-1.026201	1.158368
N	-0.530163	1.215684	0.637378
H	-0.133988	2.017249	0.15415
H	-0.120902	1.234677	1.567316
Br	3.504468	0.0	0.0
