16

C	-0.583556	-0.015024	-1.410112
C	0.0	0.0	0.0
F	-1.911086	-0.317121	-1.369606
H	1.095531	0.0	0.0
N	-0.474493	1.375206	-2.03787
O	0.642899	1.871081	-2.001134
O	-1.486787	1.860352	-2.521723
C	0.083532	-0.955357	-2.315795
N	0.546251	-1.715189	-3.082087
N	-0.417733	-1.243778	0.596837
H	-1.362447	-1.186826	0.954991
H	0.232881	-1.509374	1.323022
N	-0.525257	1.204388	0.668245
H	0.187654	1.92474	0.593747
H	-0.599637	0.98499	1.654465
Br	3.500677	0.0	0.0
