16

C	-0.566015	-0.042311	-1.411154
C	0.0	0.0	0.0
F	0.030897	0.857098	-2.233284
H	1.095842	0.0	0.0
N	-0.342311	-1.397612	-2.082404
O	-1.097239	-1.671238	-3.013968
O	0.613932	-2.061284	-1.700897
C	-2.018624	0.200412	-1.39122
N	-3.163332	0.449579	-1.319068
N	-0.562136	-1.164586	0.70193
H	-0.57645	-0.938087	1.689203
H	0.089613	-1.935139	0.591927
N	-0.420443	1.263114	0.560977
H	0.284157	1.599563	1.203022
H	-1.319947	1.185617	1.020749
Br	3.520621	0.0	0.0
