16

C	-0.461623	0.029265	-1.453828
C	0.0	0.0	0.0
F	0.137033	-0.962341	-2.160859
H	1.100845	0.0	0.0
N	-1.970977	-0.265064	-1.496639
O	-2.697024	0.629012	-1.080388
O	-2.317815	-1.365405	-1.896248
C	-0.253919	1.318884	-2.114732
N	-0.067815	2.326876	-2.686603
N	-0.537861	-1.235905	0.588996
H	-0.196952	-2.021495	0.040117
H	-0.083345	-1.326991	1.492464
N	-0.441599	1.183013	0.683838
H	-1.346678	1.035513	1.110164
H	0.24355	1.448342	1.376993
Br	3.485016	0.0	0.0
