16

C	-0.539879	0.00508	-1.41598
C	0.0	0.0	0.0
F	-0.249241	-1.196575	-2.002437
H	1.099934	0.0	0.0
H	-0.335566	-0.956187	0.415534
C	-2.020555	0.270503	-1.544066
H	-2.265086	1.24405	-1.127334
H	-2.557004	-0.494798	-0.980865
H	-2.308632	0.212435	-2.595967
N	0.160782	1.066405	-2.254309
O	0.577036	0.755793	-3.361136
O	0.182258	2.193413	-1.76403
N	-0.581857	1.083123	0.807166
H	-0.101761	1.935743	0.539098
H	-0.309582	0.904488	1.76742
Cl	3.511961	0.0	0.0
