16

C	-0.358117	-0.048953	-1.481939
C	0.0	0.0	0.0
F	-0.11279	1.169533	-2.054743
H	1.094631	0.0	0.0
H	-0.348231	-0.927915	0.462067
C	0.373186	-1.120497	-2.245348
H	0.115276	-1.068824	-3.305907
H	1.442533	-0.944236	-2.107572
H	0.119464	-2.104837	-1.855381
N	-1.86229	-0.259178	-1.602012
O	-2.275194	-1.383996	-1.322992
O	-2.569006	0.700231	-1.904291
N	-0.502299	1.15474	0.720599
H	0.046335	1.961189	0.453906
H	-1.468696	1.346337	0.483441
Cl	3.482804	0.0	0.0
