12
Coordinates from ORCA-job run
  C   -0.37941569660507      0.20717209887228      0.00395609678970
  C   0.97788377968870      0.20487576095067      0.05456851187363
  H   1.55862830113415      1.08656420645383      0.26773224216848
  N   -1.24547661441786     -0.76594117278005     -0.31244445227001
  H   -0.86867820547060     -1.69979543343479     -0.36847120198013
  H   -2.21287518364681     -0.61112283381196     -0.07839698210100
  N   -1.04503454981049      1.51008483444177      0.29140140128577
  O   -2.26875976800955      1.47586970683115      0.41123734792875
  O   -0.34155453140300      2.50728277998217      0.39546749559196
  N   1.73414824910316     -0.98717270277643     -0.16466385078570
  O   1.13241637653549     -2.04310056172039     -0.41437217484004
  O   2.95871784290187     -0.88571668300823     -0.08601443366141
