12
Coordinates from ORCA-job run
  C   -0.43558193935040     -0.10838707139315      0.23502075605484
  C   0.80513365852520     -0.62713686376676      0.18949764322798
  H   1.08242758838978     -1.51840242457363      0.73598439288332
  N   -1.50096841816963     -0.58631439785995      0.94696691037052
  H   -2.39835781265096     -0.39797628715071      0.52340836520146
  H   -1.40773461223790     -1.53020240292104      1.28994640609419
  N   -0.78919580909765      1.16358790125548     -0.42791333787696
  O   -0.22711144508177      2.17710502282938     -0.03908683625790
  O   -1.68274382637270      1.08091950377292     -1.26750226776131
  N   1.89545580260494     -0.02626771678512     -0.53914178227780
  O   1.63729734104960      0.73004534320489     -1.47385947834836
  O   3.02337947239148     -0.35797060661231     -0.17232077130998
