12
Coordinates from ORCA-job run
  C   -0.42072979881124      0.22813029111921      0.02679768041736
  C   0.91602103940247      0.29229648858339     -0.08628881485573
  H   1.47653225888951      1.21036083576676     -0.17669362040904
  N   -1.23586245600230     -0.83466689183912      0.34028480433131
  H   -1.81173926323288     -1.17024184908749     -0.41961821233278
  H   -0.72825723750566     -1.59485184202390      0.76959038856711
  N   -1.15688130097713      1.51940924726339     -0.17051736552815
  O   -2.37886845980285      1.44130303128983     -0.23034508352732
  O   -0.48752724307612      2.53739242825360     -0.31205826309909
  N   1.72492477578813     -0.90904494176145      0.05220778324818
  O   2.75188479056468     -0.78184476471891      0.71682909742944
  O   1.35050289476340     -1.93824203284531     -0.51018839424128
