12
Coordinates from ORCA-job run
  C   -0.43662275636213     -0.10790482979509      0.23360570453014
  C   0.72397128700386     -0.74401731538124     -0.00899803666800
  H   0.90538409350851     -1.76243699027725      0.30675013938017
  N   -1.52651566891000     -0.60838392836842      0.89020640576713
  H   -2.40744839685073     -0.21991557706479      0.58545098512411
  H   -1.54538964824746     -1.60983894927589      1.00692437845113
  N   -0.64679760930144      1.31530542348607     -0.10267258045987
  O   -1.58647357820739      1.53664059036643     -0.86320661275174
  O   0.06906891246640      2.13721839258659      0.45084966310104
  N   1.85267299243522     -0.12456557774858     -0.66029568601649
  O   2.94416875466043     -0.65139649129496     -0.44196014856236
  O   1.65498161780474      0.84029525276713     -1.39665421189526
