12
Coordinates from ORCA-job run
  C   -0.38784067882578      0.18897799396085      0.02558876045453
  C   0.93602399716548      0.22122087093178     -0.27586804150134
  H   1.40289139056769      1.05210661251704     -0.77769068258472
  N   -1.11211977586240     -0.71768800935955      0.69774033915454
  H   -0.66560950882468     -1.60570457211434      0.86966578070731
  H   -2.11396772592329     -0.65345512589295      0.61349607145936
  N   -1.18598217657522      1.37585621104004     -0.39684440389962
  O   -2.40622955379465      1.27475758033270     -0.27877075137169
  O   -0.58576589724725      2.35009915930404     -0.83363592568928
  N   1.80281337307199     -0.87022264830324      0.03756832618278
  O   2.98274369164445     -0.75042712777127     -0.29342913315389
  O   1.33304286460366     -1.86452094464510      0.61217966024203
