12
Coordinates from ORCA-job run
  C   -0.45011387907567     -0.11997573999241      0.20081840790417
  C   0.74323392841848     -0.72307156683341      0.04991909648573
  H   0.94048566257107     -1.72100386526203      0.41743171513934
  N   -1.56175719823356     -0.63566530975385      0.80716452780649
  H   -2.15917084715461      0.05732468330327      1.23462351364103
  H   -1.40796453983798     -1.44827802054686      1.38418501701874
  N   -0.75292618907358      1.19825731622799     -0.39344780295928
  O   -1.09030286136993      2.06539572039081      0.40946380406052
  O   -0.71351731757985      1.29044987942375     -1.61179755265612
  N   1.85284881058841     -0.13162539044017     -0.65784257273740
  O   2.69541390094151     -0.92532340758088     -1.07825397058938
  O   1.90277052980571      1.09251570106378     -0.76326418311384
