12
Coordinates from ORCA-job run
  C   -0.38316986919634      0.18688674302388      0.07164204557195
  C   0.91940453036983      0.24667954549179     -0.30812647242713
  H   1.36369539084105      1.12787450005080     -0.73966585814541
  N   -1.07498516664766     -0.78736613450086      0.68049937004731
  H   -2.07929829948123     -0.70953859542314      0.66712330931025
  H   -0.62912852744713     -1.69115281250167      0.72274144894383
  N   -1.19236375338647      1.41709090685595     -0.16368704717672
  O   -2.40431142306789      1.30807336068511      0.01652817616874
  O   -0.60881761237632      2.43299578909227     -0.52100555415095
  N   1.79177409375302     -0.87701962089116     -0.17459650363626
  O   2.95065280031356     -0.72480910641136     -0.56170307180350
  O   1.34654783632557     -1.92871457547161      0.31025015729789
