12
Coordinates from ORCA-job run
  C   -0.47096640288885     -0.15617190664504      0.10442332895210
  C   0.73203613636523     -0.73274673168323     -0.07128581812049
  H   0.88364587326378     -1.79979650100712      0.01938975451430
  N   -1.64767535191597     -0.78382592430576      0.40602802374686
  H   -2.29307878547370     -0.21836918819879      0.93861091957897
  H   -1.56365115560158     -1.72946974803025      0.74618738856795
  N   -0.70067948894649      1.28529749839640     -0.12388095204271
  O   -1.13126103619026      1.90314128952081      0.84731590448161
  O   -0.51759640379580      1.71346880490500     -1.25414674186573
  N   1.91939580130384     -0.00399468464473     -0.44659988132465
  O   1.97900553172836      1.19881775638584     -0.19812392204929
  O   2.80982528215145     -0.67635066469313     -0.96791800443893
