12
Coordinates from ORCA-job run
  C   -0.38433849470846      0.19709173682640      0.00950305460214
  C   0.97277100738443      0.23280306731370     -0.03862173659086
  H   1.53807371170033      1.14596595759100      0.04303402242610
  N   -1.23968916790490     -0.82382514291034     -0.14038088865112
  H   -0.83994952111748     -1.74967844736674     -0.13306892111386
  H   -2.19414745312404     -0.66952001465451      0.14177746642555
  N   -1.06872048181158      1.50739057137119      0.20716264122677
  O   -2.27957333007903      1.45675485000643      0.41793494849180
  O   -0.39121083054726      2.52648777193277      0.15555752884348
  N   1.74901371046648     -0.95759806316099     -0.18358689685430
  O   2.97264048589757     -0.82064603938656     -0.19495388373785
  O   1.16413036384394     -2.04722624756234     -0.28535733506785
