12
Coordinates from ORCA-job run
  C   -0.42356219579928     -0.15058989632518      0.23439249156517
  C   0.72431098200980     -0.72383776342858     -0.17103443576196
  H   0.92501489501952     -1.77820859103244     -0.03732202134365
  N   -1.47626251507279     -0.76592132599756      0.85326288900742
  H   -2.37274594586031     -0.34149868674799      0.66321163833305
  H   -1.48668535455281     -1.77286496114398      0.79866311322530
  N   -0.65498860302127      1.30617350048474      0.15212891485834
  O   -1.63521785519395      1.64039829996144     -0.50965292603427
  O   0.08876234108125      2.03280405289571      0.79496958866480
  N   1.81604550494027      0.00850883828139     -0.76545401630352
  O   1.57701202816838      1.07860607246711     -1.32215445150466
  O   2.91931671828120     -0.53356953941467     -0.69101078470602
