12
Coordinates from ORCA-job run
  C   -0.38542503043042      0.19373620104270      0.02208379707969
  C   0.95331565246731      0.22548246157103     -0.20502498961165
  H   1.46046521850739      1.09051940264628     -0.59824959749457
  N   -1.16056888227797     -0.75765429113143      0.56148608306212
  H   -0.73904493008603     -1.66646443301557      0.67803751579377
  H   -2.15572630769977     -0.66222482766453      0.43834389891115
  N   -1.13987831822703      1.43147605820848     -0.32818519756697
  O   -2.36627452439362      1.34499217022909     -0.28812104311826
  O   -0.50064963722772      2.43037688267158     -0.63440191886404
  N   1.78411657439282     -0.90805548838600      0.05117441137933
  O   2.98280990086946     -0.78196342096844     -0.20036369949419
  O   1.26686028410559     -1.94222071520319      0.50122073992363
