12
Coordinates from ORCA-job run
  C   -0.38519923421160      0.19566484825196     -0.00684150331826
  C   0.94011513417133      0.16315675600908     -0.30214171780873
  H   1.47202843360880      1.00958785731165     -0.70301958909287
  N   -1.20992177591794     -0.76715802112639      0.42897500003753
  H   -2.10401787885453     -0.47588451429259      0.78997773748728
  H   -0.77396805566582     -1.61685316352411      0.75330811120755
  N   -1.07957305975810      1.49298229927231     -0.24814121922487
  O   -2.23081222113651      1.57603821836671      0.17710559043927
  O   -0.46655972404812      2.37561831555199     -0.83588353845933
  N   1.72955828009786     -1.00641635735610     -0.07742377461989
  O   2.92451205371933     -0.92885939114209     -0.36376138808395
  O   1.18383804799528     -2.01887684732242      0.38784629143627
