12
Coordinates from ORCA-job run
  C   -0.38174827002205      0.18146907946171      0.06774753987746
  C   0.93805354448495      0.24998415797463     -0.25312152930859
  H   1.41453252126041      1.18121256448871     -0.51068803454358
  N   -1.17209754343144     -0.87424164737961      0.30774895853787
  H   -0.71524739455216     -1.75989108344002      0.46045491359863
  H   -2.08089089877980     -0.68034255706252      0.69709846402414
  N   -1.11165976132058      1.48179618026460      0.11159442321645
  O   -2.30004779636164      1.41993593853147      0.42552077109643
  O   -0.52724230372523      2.48462120562196     -0.27823746662384
  N   1.75601076393044     -0.91700012758866     -0.32188707488844
  O   2.93279721346505     -0.75062810765874     -0.64360391958652
  O   1.24753992505205     -2.01891560321354     -0.06262704540001
