12
Coordinates from ORCA-job run
  C   -0.41319473550188      0.11903283704393     -0.04283526172623
  C   0.77551874470930     -0.27158691269608     -0.57104622351402
  H   0.97097709823721     -0.27986585867593     -1.63024297360247
  N   -0.84967126717702      0.12544976315537      1.22496190867912
  H   -0.15168461048911     -0.02161792466952      1.93807464281890
  H   -1.67923165231561      0.66291847444917      1.41924973680659
  N   -1.44705504251257      0.57138744923323     -1.01773772819115
  O   -1.22766484213201      0.40523563668683     -2.21121279606569
  O   -2.45175137739434      1.09188416318927     -0.53524819683258
  N   1.86252835287945     -0.68977934908748      0.25651434104325
  O   2.90239607850007     -1.01110227245360     -0.31909297087372
  O   1.70883325319652     -0.70395600617520      1.48761552145801
