12
Coordinates from ORCA-job run
  C   -0.40472076189144      0.14997804766319     -0.00547904148161
  C   0.83725048695896      0.05219888711792     -0.54635380650160
  H   1.15320808405492      0.63121705320195     -1.39780629739945
  N   -0.98267850658799     -0.53367568125117      0.99231521967204
  H   -1.83507466183770     -0.15512086381271      1.37278234510012
  H   -0.37309421063780     -1.10451858067611      1.55767258769761
  N   -1.32205821375781      1.13810635756500     -0.64289264023384
  O   -2.37983289962045      1.35135484886418     -0.05231627661411
  O   -0.96440515103816      1.66777337330846     -1.68776490117140
  N   1.82178643969053     -0.83087784010357     -0.00599843433509
  O   1.52820041268864     -1.52760435305717      0.97776291645588
  O   2.92041898197829     -0.83883124881996     -0.56192167118857
