12
Coordinates from ORCA-job run
  C   -0.44275259196392     -0.09696970280138      0.27190221397075
  C   0.68459194181708     -0.78462989180703      0.01766810395624
  H   0.87881756684628     -1.74875606873882      0.46948951864260
  N   -1.42680297875564     -0.48487351213860      1.14514256011852
  H   -1.10242641525146     -0.82173624806682      2.03730874919107
  H   -2.18157316490356      0.18042136862422      1.21954379508521
  N   -0.74588723926716      1.16092176860905     -0.45728435627013
  O   -1.66661712355463      1.84212278186941     -0.00766339694346
  O   -0.09055607806672      1.40694323559229     -1.46334931026858
  N   1.75272950248535     -0.32061071939264     -0.86133128716671
  O   1.87758136526612     -0.92599363165701     -1.92018167120725
  O   2.46389521534827      0.59316061990731     -0.45124491910827
