12
Coordinates from ORCA-job run
  C   -0.38416723937500      0.18859451940387      0.05955058091966
  C   0.72027939749455     -0.05442549953661     -0.69263774609974
  H   0.92416334193760      0.45854431748416     -1.61754212624752
  N   -0.82492078187040     -0.39476287279606      1.18330701311791
  H   -1.55056293974970      0.08340672453549      1.69269686462594
  H   -0.17349392879737     -1.00042434436976      1.65873072511607
  N   -1.31045899775741      1.23796855245235     -0.45472066863042
  O   -2.21371235640356      1.58036681422087      0.30693093674127
  O   -1.10944669989820      1.68627171719535     -1.57666988885303
  N   1.70581285345687     -1.00762872980519     -0.29110348519459
  O   2.67707402423304     -1.14394323334522     -1.03550839643675
  O   1.53943332672958     -1.63396796543924      0.76696619094119
