12
Coordinates from ORCA-job run
  C   -0.39415627092328      0.17610310845490      0.01787298678242
  C   0.81963039553127      0.02899303939337     -0.57355061375978
  H   1.05849298209084      0.45531868772832     -1.53340268975230
  N   -0.83773766877299     -0.22217493016894      1.21867603112194
  H   -0.25543652318250     -0.87809165462896      1.71654575986835
  H   -1.83362603728230     -0.19967560585708      1.36838696741224
  N   -1.40828038866003      0.95417784733594     -0.74974085876939
  O   -1.04273760901278      1.53922630920465     -1.76182065647610
  O   -2.55303244820486      0.93961478207322     -0.29974554243105
  N   1.86506668285641     -0.72776571313904      0.03880953234427
  O   2.92296489345722     -0.81307927466403     -0.58534942164875
  O   1.65785199210302     -1.25364659573234      1.14331850530817
