12
Coordinates from ORCA-job run
  C   -0.38490158158074      0.19572076753380     -0.00780101979568
  C   0.97239071056985      0.23622375897713      0.01162274882353
  H   1.52974491319373      1.15013009255652      0.13121761862947
  N   -1.22913030181684     -0.82519536836759     -0.21615041901345
  H   -0.82587313503627     -1.74939756778752     -0.18973961643168
  H   -2.19343644342956     -0.67764568058148      0.03533179248709
  N   -1.08313544075300      1.50088291705432      0.17581069667780
  O   -0.40892448148402      2.52339333373338      0.16188667211366
  O   -2.30104830611144      1.44293944602823      0.33803399683794
  N   1.75944358522954     -0.94952110571218     -0.11406463871926
  O   2.98181879009872     -0.80737237274275     -0.07372760763817
  O   1.18405169112003     -2.04015822069184     -0.25142022397124
