12
Coordinates from ORCA-job run
  C   -0.38155333473982      0.19773455147143      0.04423179819777
  C   0.84557350513399      0.08900089805001     -0.52743274359072
  H   1.25220587526038      0.83574684268245     -1.18859716606123
  N   -1.06605242087760     -0.65498827920232      0.82046444581965
  H   -0.54502405842875     -1.43337508984914      1.19472596414622
  H   -1.86148764944213     -0.28334370933756      1.31444462344833
  N   -1.14584726680250      1.43843459021228     -0.27395458819186
  O   -2.17692538979868      1.61718458463369      0.37259052211294
  O   -0.70023618746890      2.18658130268351     -1.13523569505647
  N   1.69403833188347     -1.03221772645718     -0.27365324169194
  O   2.79233810423034     -1.03006974821569     -0.83020854602367
  O   1.29197049105020     -1.93068821667150      0.48162462689099
