12
Coordinates from ORCA-job run
  C   -0.39140767280771      0.18167641272959      0.01787156365909
  C   0.84972021595268      0.07614816674167     -0.52373052147362
  H   1.23155081041636      0.77029471842132     -1.25342455124817
  N   -1.04439472783365     -0.61589930102412      0.87456174885018
  H   -1.87220326254540     -0.24220887141621      1.30997689956532
  H   -0.49664588785916     -1.32891836339043      1.33133704023020
  N   -1.20944843770767      1.34220151080188     -0.43771955326311
  O   -2.25924800146441      1.53541803808738      0.17359938446393
  O   -0.78621170018964      2.01778340986081     -1.36762343159245
  N   1.74744356573070     -0.96757087697513     -0.14225314837029
  O   2.85462443896246     -0.96757723480787     -0.68090093238005
  O   1.37622065934543     -1.80134760902888      0.69830550155898
