12
Coordinates from ORCA-job run
  C   -0.36803488093340      0.21694450463711      0.06383084116818
  C   0.72135639593919     -0.08612760825463     -0.68849152234652
  H   0.85251294227661      0.26611789593697     -1.69786095996992
  N   -0.66001118417222     -0.07252583779395      1.33984099571992
  H   -0.07350950985611     -0.75985401971570      1.78802083584464
  H   -1.61436907861909      0.06166674072805      1.63282537462032
  N   -1.40768508444164      1.05836821785070     -0.59585745226272
  O   -2.46564295007813      1.18822245599749      0.01813682177029
  O   -1.14724918392946      1.54788940113252     -1.68795839933812
  N   1.77066127298538     -0.91644864504830     -0.18770538846529
  O   1.68491611952490     -1.36129692846086      0.96737187530785
  O   2.70805514130398     -1.14295617700940     -0.95315302204863
