12
Coordinates from ORCA-job run
  C   -0.39894898368573      0.16412497624588      0.01369877546212
  C   0.90087135317969      0.22154349905826     -0.37605148883111
  H   1.33106118318558      1.08549872224584     -0.85417641782943
  N   -1.10955909796875     -0.83695922777212      0.55203020598051
  H   -0.58382799699785     -1.63211288585638      0.88155366314489
  H   -1.99852735196593     -0.59905831752783      0.96157711055504
  N   -1.21398768435724      1.38787944437218     -0.23797433765800
  O   -0.71806952984286      2.28410622016895     -0.90944998138791
  O   -2.33578799409514      1.40142454198676      0.26640393989963
  N   1.79731698608600     -0.86887843057114     -0.15708853809480
  O   1.37030454187819     -1.89582402917054      0.39306379134261
  O   2.95915457458404     -0.71274451317985     -0.53358672258356
