12
Coordinates from ORCA-job run
  C   -0.47243972639813     -0.12429244595823      0.19084874570011
  C   0.81910675672220     -0.47844017583296      0.33550299890592
  H   1.12743533050830     -1.18710747489668      1.09387376541099
  N   -1.54142347551507     -0.68949690507725      0.83175071747122
  H   -2.32730560100502     -0.07441504801915      0.97422354957720
  H   -1.31861241601644     -1.28812246350159      1.61053910711733
  N   -0.87853232712043      0.93891359479283     -0.75666476013542
  O   0.00275392426990      1.49336383935903     -1.40299894119692
  O   -2.07847537798754      1.20776917032030     -0.78977301980183
  N   1.92537511644336     -0.02804731497326     -0.50071134734011
  O   2.72805348319534      0.72652549484461      0.04299583896135
  O   2.01306431290352     -0.49565027105764     -1.63058665466983
