12
Coordinates from ORCA-job run
  C   -0.36420636122417      0.22338732443004      0.00722294217757
  C   0.99127990472320      0.15343342088419      0.05053007086706
  H   1.61077190753797      1.00086879666737      0.29224209877348
  N   -1.28532653479220     -0.69043165907710     -0.33294991000317
  H   -0.96447902557835     -1.64475096369210     -0.39488980969507
  H   -2.23914909675379     -0.48116669370097     -0.08388257175736
  N   -0.95818391531254      1.55415026515245      0.32945155505452
  O   -0.21141881157433      2.52281296188942      0.39081110770755
  O   -2.18241124672359      1.58149396108561      0.45015065553463
  N   1.67949439204546     -1.07723030319997     -0.17743183669145
  O   2.90643193249872     -1.05227786214744     -0.07867629105444
  O   1.01719685515363     -2.08928924829150     -0.45357801091334
