12
Coordinates from ORCA-job run
  C   -0.36998504960400      0.23797579429163      0.01361750555273
  C   0.81829738667080     -0.06112185924737     -0.56601898964418
  H   1.12168117524178      0.35689872074385     -1.51358154957596
  N   -0.89230350106153     -0.15455685330087      1.18433597117083
  H   -1.83369028759019      0.08736977480741      1.43610164829470
  H   -0.35980211694210     -0.79602072003320      1.75005760818173
  N   -1.29379872825653      1.04391047568496     -0.81099206339815
  O   -2.38439963044557      0.53217683912709     -1.04566704495740
  O   -0.90464490754642      2.15377540850547     -1.16257515440462
  N   1.76838808990908     -0.91972165289418      0.06323766360792
  O   2.81356009372028     -1.13414632377404     -0.54927362359611
  O   1.51569747590440     -1.34753960391074      1.19975802876851
