12
Coordinates from ORCA-job run
  C   -0.42471076998150     -0.09440125525285      0.26048221535269
  C   0.75579906866225     -0.70837069961333      0.06087985178589
  H   0.99346264052437     -1.66691700199920      0.50197536249389
  N   -1.47116570770165     -0.54868845420264      1.01508716976283
  H   -2.37716174049778     -0.24446248906575      0.68827844499310
  H   -1.43896654680724     -1.52686605650324      1.25874895699514
  N   -0.70994567962383      1.26209388481851     -0.25000759518278
  O   -1.67707652835135      1.34086441199397     -1.00421654530153
  O   -0.02103126456645      2.17968375069229      0.17157821873024
  N   1.83724085791314     -0.13165279532127     -0.70068832113142
  O   1.57606425591257      0.72251574064632     -1.54585513586934
  O   2.95649141451745     -0.58279903619280     -0.45526262262872
