12
Coordinates from ORCA-job run
  C   -0.44452416294973     -0.09490084453963      0.22312427496659
  C   0.67929590892095     -0.78274364513795     -0.05011382091195
  H   0.81161526833922     -1.81709733436432      0.23694273892465
  N   -1.55545999177692     -0.56018218188793      0.86975904279841
  H   -1.43856483909024     -1.42650844618067      1.37253902181868
  H   -2.06049643252402      0.14385065659062      1.38846709470321
  N   -0.66740142322801      1.28470658148538     -0.25482556710122
  O   -0.73650074488425      1.45741124759873     -1.46299287347704
  O   -0.83859697291787      2.11998933628478      0.63003163228117
  N   1.78663558115237     -0.23823386953404     -0.79709820939031
  O   1.91926260707778      0.98301037572510     -0.85414961829336
  O   2.54373520188072     -1.06830187604008     -1.30168371631882
