12
Coordinates from ORCA-job run
  C   -0.37602203506946      0.22821441866984      0.06212842621663
  C   0.85041569616698      0.10795710266501     -0.50902353515891
  H   1.05404298336681      0.56027846570862     -1.46761587543849
  N   -0.86065248998869     -0.33383757564215      1.19205913838189
  H   -1.81491009075124     -0.10183580137187      1.42125206143690
  H   -0.21118219409829     -0.48617303375022      1.94519448725796
  N   -1.42305343210326      0.86340125187301     -0.78677227308345
  O   -1.06557978181224      1.69116765653022     -1.61479134549790
  O   -2.57234140814191      0.48002668140215     -0.58498728007076
  N   1.86657034526111     -0.77609017725910     -0.01428938801421
  O   1.62716414519559     -1.44114702189934      0.99919883896421
  O   2.92554826197461     -0.79096196692615     -0.64135325499388
