12
Coordinates from ORCA-job run
  C   -0.44015821637839     -0.09235998490531      0.23386560190629
  C   0.78494612837042     -0.64818218678119      0.20337146888438
  H   1.03353549630979     -1.53580799094508      0.76922192540769
  N   -1.52252715357751     -0.52710910820603      0.94731019747072
  H   -2.41236800870386     -0.31375215709256      0.52007031990441
  H   -1.46102204869977     -1.46810051958849      1.30469297662233
  N   -0.75220864439491      1.17920545084842     -0.45075299723171
  O   -0.14734594157508      2.17807998278420     -0.08903510650689
  O   -1.65726677921701      1.11497444770467     -1.27976288891207
  N   1.89622565359708     -0.09211528533124     -0.52969582872651
  O   3.01242012556629     -0.43708651639545     -0.14007259070237
  O   1.66476938870295      0.64125386790806     -1.48921307811627
