12
Coordinates from ORCA-job run
  C   -0.37899698481789      0.20236929920638      0.02244605537100
  C   0.87332869949772      0.07007802788381     -0.48529695262465
  H   1.33626343351766      0.81488328565234     -1.11050889742855
  N   -1.12663782968952     -0.63395629660202      0.75662820005796
  H   -0.64643108838542     -1.42539101480722      1.15729566369010
  H   -1.93197630608267     -0.23967995197486      1.21608550161244
  N   -1.09773957480738      1.46303203502219     -0.33200407741172
  O   -2.15496064245221      1.66641065691715      0.26263074056655
  O   -0.59341884656095      2.19883055874463     -1.17113124019484
  N   1.68564814730641     -1.06741151759550     -0.18154241734534
  O   1.21793142293524     -1.96520413265020      0.53488352341326
  O   2.81598956953899     -1.08296094979670     -0.66948609970620
