12
Coordinates from ORCA-job run
  C   -0.40648256731190     -0.07847592340184      0.29260154759304
  C   0.80730693210238     -0.63827409274514      0.13818273186173
  H   1.14230492007935     -1.47414695221153      0.73728291357306
  N   -1.37648726906438     -0.44980940339395      1.18180595468116
  H   -1.07340621759098     -1.04842859291490      1.93463766810521
  H   -1.97428299991212      0.30692531187822      1.48159553624491
  N   -0.90565898126146      0.99104952928264     -0.59607978425459
  O   -1.21375749616093      2.03672525741142     -0.02858961904800
  O   -1.03595739547395      0.72434422276051     -1.78189915560120
  N   1.75475927507146     -0.22444722278426     -0.86829942574070
  O   1.67704250182404      0.91619357548308     -1.32106113617243
  O   2.60461929769850     -1.06265570936424     -1.17117723124220
