12
Coordinates from ORCA-job run
  C   -0.41984213874445      0.10099431679197      0.01540915479309
  C   0.70419404634935     -0.14739391754786     -0.70081810388277
  H   0.81738538588016      0.10987901101988     -1.74073832756811
  N   -0.76601326978506     -0.22365994907096      1.27185440977157
  H   -0.05611596874668     -0.61495021111131      1.87030335519746
  H   -1.50183160124744      0.32851229502700      1.68501017726355
  N   -1.51312982200619      0.80536535750105     -0.70925232620922
  O   -2.35118835777654      1.37054419671238     -0.00787897863941
  O   -1.42605959700284      0.89338226305100     -1.92865612553419
  N   1.86729173337988     -0.69498337695954     -0.06696924307568
  O   2.90515481051515     -0.69047282633690     -0.72885395154391
  O   1.74115477918466     -1.23821715907672      1.03958995942763
