12
Coordinates from ORCA-job run
  C   -0.36157818523930      0.16888216832349      0.10159719085217
  C   0.93048007786971      0.20574014969448     -0.29765039441113
  H   1.45099696752808      1.09390753871972     -0.61665635183631
  N   -1.19503295828583     -0.86641981099343      0.36618455954176
  H   -0.83820253881766     -1.60254576410569      0.95487277258046
  H   -2.14559464659720     -0.57495738825901      0.55014261468246
  N   -1.03928023940030      1.50781203736575      0.09877092542256
  O   -0.33149109137858      2.50419052846792      0.16130608949529
  O   -2.25426820319601      1.49311328760864     -0.09135943550227
  N   1.71535393022814     -0.99689381914933     -0.38520575080504
  O   1.20981062258807     -2.06146295700775     -0.01327897038614
  O   2.85780626470089     -0.87036597066479     -0.82972324963381
