12
Coordinates from ORCA-job run
  C   -0.36760487009227      0.21069761992010      0.08423147692371
  C   0.91164644496554      0.18097955977709     -0.37118838106917
  H   1.45868399951870      1.06925478645257     -0.63922025042314
  N   -1.21046426731323     -0.78455169888215      0.39493116884894
  H   -2.03539488535126     -0.53839353179633      0.91799360059334
  H   -0.80682555908668     -1.70570936019926      0.47085822793478
  N   -0.98518291776853      1.56136717479090      0.21834743576067
  O   -2.07403651536717      1.60206219299757      0.78923348106830
  O   -0.37533384100711      2.52285263724870     -0.23307746114098
  N   1.63086849628213     -1.04594120215713     -0.50688511250266
  O   2.78980126707719     -0.96402264367690     -0.91452905355767
  O   1.06484264814269     -2.10959553447516     -0.21069513243612
