14
Coordinates from ORCA-job run
  C   -0.42644792356192     -0.37443117267595      0.07877284939737
  C   0.69201306702750      0.47190938834693      0.66575120462909
  Br  -1.28088134102404     -1.27380288284033      1.86059737832176
  H   0.22150644585196      1.24175581441561      1.29293557963009
  H   1.30254914446897     -0.15187193294846      1.32160942394462
  N   0.02524202626657     -1.37253137407152     -0.78051713927370
  H   0.91168505488217     -1.76017318391590     -0.49447433190416
  H   -0.65426945069159     -2.10265573872058     -0.94173372683857
  N   -1.42436194325114      0.41885461784291     -0.52066916377667
  H   -2.06499063347904     -0.12602277233908     -1.08311903792744
  H   -1.94225069872606      0.94828215008014      0.16751689860196
  N   1.52171004176694      0.97575893175207     -0.42460830496463
  H   0.92705510802779      1.46221911995360     -1.08518353387489
  H   2.19044110244191      1.64170903512056     -0.05687809596482
