14
Coordinates from ORCA-job run
  C   -0.40594838999763     -0.39675686655629      0.07713132227837
  C   0.58279662330430      0.59165713733781      0.67480911899979
  Br  -1.24768411305305     -1.31028453175858      1.85779079823607
  H   0.06928517251299      1.19955427716710      1.42232210802528
  H   1.34918082675331      0.00597910361561      1.20115226936401
  N   0.24359980640402     -1.40874593780933     -0.65665645172442
  H   -0.39911436177641     -1.95126437390328     -1.21900845620268
  H   0.77132078911765     -2.02525685184154     -0.05372399552801
  N   -1.41784383570586      0.20912610012417     -0.66284738521435
  H   -2.21851022796743     -0.38820082101736     -0.81430902383891
  H   -1.69826315651350      1.10014483216834     -0.28164263758303
  N   1.08055980872260      1.45939481966302     -0.38839439012747
  H   1.45886889095635      0.87971635758214     -1.12830879115951
  H   1.83175216724265      2.03493675522819     -0.02731448552513
