14
Coordinates from ORCA-job run
  C   -0.47438987123921     -0.39041736664424      0.27529437472882
  C   0.63444448118383      0.57885809431688      0.66712551891146
  Br  -1.13428280160444     -1.22410302166671      2.01247055540431
  H   1.43989505970158      0.01475892571225      1.15760494448782
  H   0.22486500875686      1.28597082810118      1.38879654686232
  N   0.06280001727320     -1.40185402024244     -0.58354580762248
  H   0.72822309175349     -1.98511585795475     -0.08864714572954
  H   -0.67143326265583     -1.99976444983770     -0.94382836945520
  N   -1.56629364333794      0.33668912916392     -0.27209766208560
  H   -1.18690380960211      0.96766968531753     -0.97066344970492
  H   -2.27051247321284     -0.26961153538508     -0.67223777865906
  N   1.03557376542360      1.30175283136387     -0.53713472301586
  H   1.61130920316652      2.09697829721655     -0.29397243156608
  H   1.56670523439330      0.68718846053875     -1.14016457255599
