14
Coordinates from ORCA-job run
  C   -0.42037996951488     -0.31499810675090      0.09708493577083
  C   0.39105377857383      0.97340292093252      0.16208200736256
  Br  -0.51617843950072     -1.08818283784501      1.95197595645976
  H   0.36392707856933      1.36726314251990     -0.86776079802399
  H   -0.12545878004760      1.69120056436992      0.80724987434696
  N   0.28989839820326     -1.29604718571374     -0.69883722396702
  H   0.04164263559283     -1.13700130065005     -1.67047611443403
  H   0.02659489299687     -2.23831602703894     -0.44292993837753
  N   -1.71702819671743     -0.03756250099510     -0.42765275129799
  H   -2.19208487253476      0.67386418173290      0.11552271606152
  H   -2.28852407279446     -0.87407629091107     -0.42981839714195
  N   1.72104759443020      0.72745534033312      0.68265482549314
  H   2.14021789782693     -0.01022663637961      0.12912837077508
  H   2.28527205491660      1.56222473639605      0.59177653697266
