14
Coordinates from ORCA-job run
  C   -0.46140740748647     -0.48090642119894      0.19889296197054
  C   0.56453496041632      0.56020206183441      0.65121673201469
  Br  -1.20917564762432     -1.27401823792428      1.92137017610556
  H   1.36872347674490      0.05686724035531      1.20853871657201
  H   0.07511034601594      1.25733220162870      1.33367898967118
  N   0.16820308558260     -1.44370214561774     -0.61878146800417
  H   -0.52027244602834     -2.07036201202364     -1.01504826716668
  H   0.88167752172584     -1.96475769570342     -0.12619957998150
  N   -1.59444235782544      0.03714306279800     -0.52172305415462
  H   -2.18312649002012      0.57144630496486      0.10494173549429
  H   -1.21155394756477      0.67387582015857     -1.21669015946721
  N   1.00025124091479      1.28810361758494     -0.53658934698275
  H   1.54068871675532      2.10148871195604     -0.27255493713872
  H   1.57878894839375      0.68728749118718     -1.10905249893261
