14

C	-0.380109	0.038361	-1.469571
C	0.0	0.0	0.0
Br	-2.394078	0.174893	-1.747131
H	1.097512	0.0	0.0
C	0.163562	1.238439	-2.10289
N	0.59064	2.206496	-2.61553
C	0.039869	-1.159524	-2.188186
N	0.37759	-2.12654	-2.766394
C	-0.500563	-1.217208	0.615731
N	-0.864866	-2.214233	1.123741
N	-0.336454	1.179867	0.751992
H	-1.213511	1.597753	0.465416
H	0.430743	1.839621	0.664125
H	2.493566	0.0	0.0
