14

C	-0.381482	0.036124	-1.470163
C	0.0	0.0	0.0
Br	-2.396572	0.162482	-1.745388
H	1.097431	0.0	0.0
C	0.155486	1.239488	-2.102576
N	0.578527	2.2108	-2.612345
C	0.043203	-1.15942	-2.189193
N	0.386905	-2.125242	-2.765735
C	-0.496532	-1.21882	0.616092
N	-0.85982	-2.21575	1.124929
N	-0.342437	1.177433	0.752378
H	-1.230512	1.579542	0.478538
H	0.411883	1.849188	0.651736
H	2.495747	0.0	0.0
