14

C	-0.411273	-0.012803	-1.49509
C	0.0	0.0	0.0
Br	0.520624	1.470658	-2.447033
H	1.095597	0.0	0.0
C	-0.056227	-1.262263	-2.164212
N	0.182242	-2.2552	-2.748125
C	-1.839566	0.245706	-1.648423
N	-2.993433	0.474903	-1.700359
C	-0.513296	-1.213418	0.618077
N	-0.890674	-2.202216	1.13428
N	-0.383544	1.176007	0.733661
H	0.333107	1.88165	0.596249
H	-1.297464	1.537573	0.487546
H	2.536339	0.0	0.0
