14

C	-0.462809	0.048102	-1.440015
C	0.0	0.0	0.0
Br	-2.474163	0.219161	-1.588966
H	1.09666	0.0	0.0
C	0.080294	1.227632	-2.111431
N	0.517416	2.171991	-2.657695
C	-0.108787	-1.165887	-2.173206
N	0.17037	-2.141328	-2.768085
C	-0.476648	-1.201477	0.661675
N	-0.862398	-2.15049	1.242343
N	-0.312141	1.240679	0.676475
H	-1.095974	1.152391	1.30821
H	0.522607	1.517212	1.188699
H	2.500651	0.0	0.0
