14

C	-0.395713	0.011176	-1.454435
C	0.0	0.0	0.0
F	-1.769892	-0.183073	-1.638474
H	1.10537	0.0	0.0
H	-0.138931	0.967973	-1.919759
H	0.124625	-0.791102	-1.984642
C	-0.504832	-1.246135	0.705488
H	-0.129332	-1.275234	1.732255
H	-0.1456	-2.146783	0.201455
H	-1.596819	-1.253123	0.725302
N	-0.539091	1.195951	0.677125
H	-0.247314	1.138276	1.648344
H	-0.038318	1.998665	0.3055
Br	3.711273	0.0	0.0
