14

C	-0.511089	-0.016472	-1.422181
C	0.0	0.0	0.0
F	-0.09159	1.084042	-2.15085
H	1.095544	0.0	0.0
H	-0.155374	-0.913771	-1.939278
H	-1.61126	-0.006751	-1.426964
C	-0.443868	-1.285487	0.702106
H	-0.047429	-2.175412	0.204892
H	-1.538957	-1.362855	0.734404
H	-0.069442	-1.287127	1.72799
N	-0.457636	1.214767	0.67683
H	0.196165	1.436479	1.420327
H	-1.36778	1.050093	1.100186
Br	3.764973	0.0	0.0
