14

C	-0.470622	-0.036078	-1.441829
C	0.0	0.0	0.0
F	-0.200018	1.171524	-2.086374
H	1.096256	0.0	0.0
H	0.03225	-0.829073	-2.002259
H	-1.559574	-0.181011	-1.49007
C	-0.476592	-1.254026	0.717307
H	-0.12676	-2.158676	0.21174
H	-1.572645	-1.286842	0.774158
H	-0.078786	-1.252012	1.732507
N	-0.458956	1.187691	0.719993
H	-1.444887	1.342359	0.519289
H	0.045966	1.987389	0.354516
Br	3.754596	0.0	0.0
