14

C	-0.480499	0.026894	-1.440634
C	0.0	0.0	0.0
F	-0.230987	-1.171943	-2.106743
H	1.095715	0.0	0.0
H	0.023453	0.825529	-1.993026
H	-1.568276	0.188566	-1.472745
C	-0.526839	-1.212722	0.742557
H	-0.140255	-1.203246	1.762385
H	-1.624175	-1.199554	0.785334
H	-0.209757	-2.133268	0.250463
N	-0.413323	1.227914	0.68878
H	-1.37787	1.455181	0.458439
H	0.175845	1.997219	0.387606
Br	3.745894	0.0	0.0
