18

C	-0.49493	-0.032375	-1.459792
C	0.0	0.0	0.0
Cl	-0.065172	1.545455	-2.221682
H	1.098042	0.0	0.0
C	0.250469	-1.127071	-2.203343
H	-0.039512	-1.132279	-3.25735
H	0.003082	-2.089654	-1.751698
H	1.326732	-0.96356	-2.117202
C	-2.003113	-0.189811	-1.543699
H	-2.512756	0.630755	-1.029822
H	-2.324014	-0.192855	-2.588209
H	-2.287399	-1.140625	-1.083485
N	-0.399681	-1.246119	0.673462
H	-1.199887	-1.095842	1.269066
H	0.374789	-1.544458	1.251644
C	-0.505758	1.176372	0.717388
N	-0.981347	2.051016	1.342953
Cl	3.34906	0.0	0.0
