18

C	-0.482311	-0.055144	-1.462167
C	0.0	0.0	0.0
Cl	-0.045032	1.518474	-2.243547
H	1.094722	0.0	0.0
C	0.268881	-1.159129	-2.189456
H	-0.007279	-1.168435	-3.24753
H	1.346957	-0.999123	-2.089236
H	0.011604	-2.119812	-1.735282
C	-1.992173	-0.206345	-1.564706
H	-2.289848	-1.153058	-1.102789
H	-2.503118	0.621593	-1.063709
H	-2.300535	-0.217221	-2.613061
N	-0.403185	-1.232801	0.691411
H	-1.250512	-1.088765	1.22691
H	0.337838	-1.482166	1.33469
C	-0.505532	1.190368	0.696491
N	-0.963235	2.073449	1.323025
Cl	3.381188	0.0	0.0
