18

C	-0.4253	0.01405	-1.494891
C	0.0	0.0	0.0
Cl	0.06832	-1.576949	-2.197717
H	1.096432	0.0	0.0
C	-1.927335	0.14399	-1.691728
H	-2.469654	-0.664848	-1.194535
H	-2.169443	0.099937	-2.756053
H	-2.274114	1.099771	-1.289182
C	0.347346	1.099943	-2.226065
H	0.044876	2.082134	-1.849925
H	0.14151	1.057038	-3.298714
H	1.417604	0.97091	-2.049358
N	-0.437978	-1.117809	0.819218
H	-1.359033	-1.437924	0.545824
H	0.222186	-1.871594	0.686325
C	-0.474741	1.253724	0.603714
N	-0.911107	2.253552	1.040121
Cl	3.356978	0.0	0.0
