18

C	-0.426332	-0.043798	-1.486775
C	0.0	0.0	0.0
Cl	0.130636	1.494159	-2.250169
H	1.095971	0.0	0.0
C	0.297065	-1.186303	-2.181806
H	-0.050495	-2.143696	-1.78613
H	0.096138	-1.162778	-3.255627
H	1.371427	-1.097479	-2.006508
C	-1.935367	-0.104826	-1.675329
H	-2.341724	-1.03044	-1.254904
H	-2.180198	-0.087827	-2.739632
H	-2.419963	0.746213	-1.192687
N	-0.370916	-1.184054	0.770535
H	-1.254729	-1.579889	0.481151
H	0.363271	-1.872939	0.685312
C	-0.551358	1.188069	0.664073
N	-1.067018	2.097824	1.198294
Cl	3.34773	0.0	0.0
