14
Coordinates from ORCA-job run
  C   -0.62524352827095      0.03046518145410      0.56539363450906
  C   0.84537951624843      0.29264094898981      0.16170421184499
  F   -0.90336109069589      1.05121172525150      1.48962704461642
  H   1.48212432187426      0.19220664690135      1.04244716394648
  N   -1.45338151691845      0.02579911684486     -0.56235642850790
  H   -1.40230999572054      0.88640760881324     -1.09381311353825
  H   -2.41150720734999     -0.21503035371174     -0.34757275501269
  C   -0.76029372459886     -1.24041136866488      1.29741036412062
  N   -0.90811702410755     -2.23171135567985      1.90893228028908
  C   0.96990611290796      1.61743953016729     -0.42886110971188
  N   1.03940767219257      2.69526812499255     -0.88985705623797
  N   1.28103507852136     -0.77097487972787     -0.82078895694103
  O   1.22442767007270     -0.50009569375920     -2.01183048356942
  O   1.62293371584497     -1.83121523187116     -0.30943479580752
