14
Coordinates from ORCA-job run
  C   -0.66241370301454      0.02293929209258      0.52285807844802
  C   0.82899152633650      0.30087335226338      0.21856091003015
  F   -1.01199657851343      1.03860286748320      1.42796335104943
  H   1.40702139990378      0.20521679569712      1.13937646123327
  N   -1.41347564731990      0.01199528892665     -0.65782337559885
  H   -2.38153501405630     -0.23736180977347     -0.50687550845532
  H   -1.33482252462739      0.87341751129762     -1.18455094014276
  C   -0.83262041110637     -1.25112240370644      1.24216123654922
  N   -1.01000777461695     -2.24611917966424      1.83961217548659
  C   0.97865426175801      1.62791672855748     -0.36096727307914
  N   1.06778019111111      2.70698411597362     -0.81569575467697
  N   1.34099683609474     -0.75600114379972     -0.73417428830867
  O   1.36107683098523     -0.48331687909778     -1.92602692618016
  O   1.66135060706551     -1.81302453624998     -0.20241814635481
