19

C	-0.560061	0.043024	-1.425091
C	0.0	0.0	0.0
Cl	0.040102	-1.422263	-2.299564
H	1.099698	0.0	0.0
C	-2.076562	-0.015285	-1.443907
H	-2.469486	0.830547	-0.874513
H	-2.413345	-0.946222	-0.984189
H	-2.45249	0.023115	-2.470726
C	-0.011779	1.253063	-2.169946
H	-0.449863	2.171239	-1.760834
H	1.077398	1.284611	-2.061259
H	-0.267399	1.194617	-3.231438
N	-0.476916	-1.16003	0.724628
H	-1.269532	-0.901818	1.302392
H	0.275395	-1.495365	1.315579
N	-0.435635	1.246776	0.696861
H	0.153662	1.991725	0.334561
H	-0.09722	1.121732	1.648833
H	2.986345	0.0	0.0
