19

C	-0.545894	0.00065	-1.431378
C	0.0	0.0	0.0
Cl	-0.163103	1.608047	-2.215847
H	1.105351	0.0	0.0
C	0.182128	-1.057586	-2.237809
H	-0.143274	-1.041198	-3.282939
H	-0.036782	-2.033886	-1.79984
H	1.259445	-0.882952	-2.174716
C	-2.055227	-0.156154	-1.478803
H	-2.541244	0.628448	-0.897593
H	-2.414621	-0.115582	-2.510574
H	-2.311771	-1.126396	-1.047052
N	-0.388826	-1.269316	0.62215
H	0.417088	-1.614885	1.133746
H	-1.13566	-1.07601	1.280533
N	-0.540199	1.114276	0.796151
H	0.077039	1.181404	1.602359
H	-0.376612	1.970515	0.274654
H	2.996467	0.0	0.0
