19

C	-0.324042	0.004822	-1.488167
C	0.0	0.0	0.0
Cl	-2.159977	0.111605	-1.728456
H	1.098753	0.0	0.0
C	0.299593	1.213227	-2.159123
H	0.14262	1.181355	-3.240545
H	1.37321	1.184065	-1.934522
H	-0.114447	2.146704	-1.775507
C	0.153862	-1.277356	-2.13605
H	-0.342757	-2.134825	-1.687483
H	-0.021952	-1.258137	-3.215819
H	1.229059	-1.353334	-1.935346
N	-0.468218	-1.222146	0.636997
H	-1.391542	-1.037249	1.016227
H	0.146752	-1.37474	1.430144
N	-0.408613	1.20768	0.717951
H	0.370014	1.857095	0.719688
H	-1.203503	1.648677	0.268826
H	2.920521	0.0	0.0
