19

C	-0.325181	0.011827	-1.487427
C	0.0	0.0	0.0
Cl	-2.162154	-0.09617	-1.728015
H	1.098443	0.0	0.0
C	0.147904	1.302201	-2.122156
H	1.223109	1.377735	-1.923926
H	-0.34759	2.153991	-1.662657
H	-0.031454	1.294845	-3.201297
C	0.300572	-1.187188	-2.173358
H	-0.109108	-2.126359	-1.799217
H	0.140721	-1.143946	-3.254042
H	1.37461	-1.156938	-1.950398
N	-0.408026	-1.217191	0.702935
H	-1.188124	-1.666772	0.238547
H	0.379293	-1.855794	0.715122
N	-0.468739	1.213977	0.651049
H	-1.402	1.031984	1.00743
H	0.13138	1.344319	1.459819
H	2.918882	0.0	0.0
