19

C	-0.503681	0.035977	-1.451757
C	0.0	0.0	0.0
Cl	-0.129363	-1.559053	-2.253334
H	1.095488	0.0	0.0
C	-2.006844	0.236711	-1.555533
H	-2.31797	0.25274	-2.603679
H	-2.557226	-0.562337	-1.050579
H	-2.255247	1.187936	-1.082123
C	0.269593	1.099692	-2.211393
H	0.035135	2.071944	-1.772339
H	-0.004884	1.10183	-3.270554
H	1.341204	0.914254	-2.098923
N	-0.486337	-1.13522	0.784049
H	-1.077972	-1.732355	0.219905
H	0.329807	-1.690835	1.02327
N	-0.408138	1.27552	0.626329
H	-0.972633	1.019889	1.427278
H	0.444691	1.69554	0.986791
H	2.968262	0.0	0.0
