19

C	-0.475537	-0.012306	-1.464595
C	0.0	0.0	0.0
Cl	0.087706	1.538368	-2.244224
H	1.10242	0.0	0.0
C	0.21303	-1.139457	-2.21345
H	-0.170183	-2.09966	-1.857411
H	1.288188	-1.093196	-2.024667
H	0.018417	-1.069374	-3.286921
C	-1.986657	-0.030714	-1.618604
H	-2.392858	-0.971051	-1.232184
H	-2.423792	0.795582	-1.058385
H	-2.266844	0.047709	-2.672412
N	-0.395681	-1.187648	0.740316
H	-1.36595	-1.429997	0.583408
H	0.205293	-1.961583	0.48987
N	-0.580561	1.144334	0.711691
H	-0.269274	1.021769	1.670053
H	-0.114663	1.976829	0.365572
H	3.091818	0.0	0.0
