19

C	-0.419271	-0.111351	-1.490094
C	0.0	0.0	0.0
F	-0.367514	1.209435	-1.960762
H	1.092187	0.0	0.0
N	0.494232	-0.859691	-2.30301
H	1.445394	-0.613067	-2.024178
H	0.383486	-1.839154	-2.066964
C	-1.844908	-0.581206	-1.701024
H	-2.536377	0.043814	-1.132515
H	-1.972058	-1.621165	-1.39748
H	-2.072804	-0.489245	-2.763778
N	-0.395124	-1.258247	0.706854
O	-0.971038	-1.175752	1.792392
O	-0.117201	-2.330704	0.165281
C	-0.518736	1.21629	0.733785
H	-1.610268	1.267075	0.739911
H	-0.166802	1.202022	1.764483
H	-0.118634	2.101204	0.242141
Cl	3.328845	0.0	0.0
