19

C	-0.401345	-0.04643	-1.502921
C	0.0	0.0	0.0
F	-0.380093	1.29296	-1.913342
H	1.096234	0.0	0.0
N	0.544985	-0.733661	-2.33455
H	1.477747	-0.410454	-2.073906
H	0.526318	-1.713526	-2.074764
C	-1.8079	-0.555566	-1.751316
H	-1.8878	-1.619145	-1.522334
H	-2.528947	-0.005491	-1.143437
H	-2.035831	-0.404396	-2.806351
N	-0.424519	-1.293528	0.612092
O	-1.209817	-1.273564	1.564349
O	0.007417	-2.331283	0.105238
C	-0.538464	1.174441	0.782046
H	-1.628647	1.236417	0.750179
H	-0.112535	2.082392	0.359438
H	-0.227281	1.097844	1.823722
Cl	3.352682	0.0	0.0
