19

C	-0.319932	0.030274	-1.507311
C	0.0	0.0	0.0
F	-1.681824	0.311165	-1.676645
H	1.091671	0.0	0.0
N	0.408346	1.093046	-2.162728
H	1.402844	0.918162	-2.020218
H	0.199135	1.971485	-1.701611
C	-0.012304	-1.276596	-2.202152
H	-0.146445	-1.121627	-3.27346
H	-0.685375	-2.063359	-1.860972
H	1.016153	-1.575963	-1.991972
N	-0.504751	-1.262828	0.607757
O	0.212531	-2.260143	0.548191
O	-1.637063	-1.249355	1.101547
C	-0.540533	1.187353	0.770746
H	-0.031125	2.094604	0.44188
H	-0.32132	1.065387	1.832818
H	-1.615967	1.295064	0.63983
Cl	3.363347	0.0	0.0
