16

C	-0.598883	-0.005473	-1.41515
C	0.0	0.0	0.0
F	-0.216555	1.116181	-2.120679
H	1.091998	0.0	0.0
N	-0.164261	-1.172641	-2.089345
H	-0.010028	-1.915082	-1.419747
H	-0.806277	-1.461725	-2.813411
C	-2.088183	0.079563	-1.313489
N	-3.260802	0.079995	-1.231845
N	-0.428889	-1.167758	0.70306
H	-1.321144	-1.008293	1.156154
H	0.265759	-1.393014	1.404221
N	-0.436879	1.287556	0.683768
O	-1.31367	1.20068	1.549307
O	0.098335	2.326372	0.319806
Br	3.421688	0.0	0.0
