16

C	-0.402058	0.025082	-1.484682
C	0.0	0.0	0.0
F	-1.799009	0.200075	-1.564616
H	1.090193	0.0	0.0
N	0.262095	1.046796	-2.19814
H	0.492402	0.776423	-3.143286
H	1.091816	1.367688	-1.71062
C	-0.176899	-1.328807	-2.047188
N	-0.024751	-2.397294	-2.510877
N	-0.507111	-1.080505	0.76679
H	-1.430487	-1.372619	0.481637
H	0.148413	-1.847896	0.759174
N	-0.481472	1.309873	0.581989
O	-1.527588	1.298203	1.224289
O	0.198545	2.305234	0.340798
Br	3.41883	0.0	0.0
