16

C	-0.48613	0.057999	-1.449807
C	0.0	0.0	0.0
F	-1.890283	0.238016	-1.40297
H	1.091058	0.0	0.0
N	0.115831	1.082005	-2.214481
H	0.881417	1.524547	-1.724685
H	0.40571	0.765854	-3.126785
C	-0.295982	-1.271528	-2.070667
N	-0.099534	-2.27212	-2.6527
N	-0.517063	-1.134329	0.668349
H	-1.473757	-0.980676	0.9547
H	0.051708	-1.342387	1.476339
N	-0.412081	1.318667	0.664241
O	0.139246	2.341775	0.269998
O	-1.256025	1.268973	1.558666
Br	3.408171	0.0	0.0
