16

C	-0.446451	0.012361	-1.470984
C	0.0	0.0	0.0
F	-1.861095	0.008482	-1.484155
H	1.090272	0.0	0.0
N	0.044872	1.118076	-2.196589
H	0.343596	0.886002	-3.130663
H	0.765305	1.624245	-1.695131
C	-0.075953	-1.287366	-2.078107
N	0.182398	-2.322541	-2.569745
N	-0.48518	-1.090067	0.767775
H	-1.408046	-1.389053	0.492577
H	0.178459	-1.849262	0.749699
N	-0.489991	1.300965	0.6005
O	-1.516926	1.269867	1.271055
O	0.166882	2.311003	0.345381
Br	3.438178	0.0	0.0
