16

C	-0.430299	0.085373	-1.47694
C	0.0	0.0	0.0
F	-1.767535	0.502731	-1.498284
H	1.091201	0.0	0.0
N	0.330488	0.958923	-2.314267
H	1.264426	0.56679	-2.412403
H	0.445495	1.835336	-1.816584
C	-0.402047	-1.274186	-2.061894
N	-0.444222	-2.304914	-2.622123
N	-0.511494	-1.141995	0.659394
H	0.051757	-1.351077	1.47275
H	-1.472307	-1.005422	0.943315
N	-0.419015	1.31123	0.668451
O	-1.126785	1.24123	1.670537
O	-0.021321	2.362295	0.169734
Br	3.40055	0.0	0.0
