16

C	-0.508202	-0.01043	-1.446857
C	0.0	0.0	0.0
F	-0.011286	-1.172352	-2.015133
H	1.090546	0.0	0.0
N	-1.944246	-0.13144	-1.499865
H	-2.225586	-0.246526	-2.467274
H	-2.346042	0.727261	-1.141633
C	0.021879	1.103969	-2.26358
N	0.37391	2.001983	-2.933444
N	-0.475169	-1.120659	0.739405
H	0.28575	-1.764047	0.899871
H	-1.245761	-1.569399	0.263372
N	-0.435392	1.272175	0.699344
O	-0.06343	1.414923	1.852335
O	-1.133063	2.085075	0.076847
Br	3.404612	0.0	0.0
