16

C	-0.58475	0.04885	-1.419772
C	0.0	0.0	0.0
F	0.035783	-1.000381	-2.109431
H	1.089076	0.0	0.0
N	-1.989975	-0.135425	-1.339367
H	-2.138495	-1.003473	-0.833242
H	-2.390621	-0.204581	-2.267144
C	-0.300379	1.261072	-2.211495
N	-0.151186	2.145831	-2.968551
N	-0.475408	-1.193032	0.648897
H	0.326456	-1.677033	1.029873
H	-1.086081	-0.92852	1.411915
N	-0.435536	1.243085	0.741039
O	-1.101712	1.113175	1.768874
O	-0.079758	2.314516	0.265241
Br	3.398369	0.0	0.0
