16

C	-0.588096	0.034792	-1.417962
C	0.0	0.0	0.0
F	-0.180625	-1.095147	-2.083198
H	1.090294	0.0	0.0
N	-2.026184	-0.005442	-1.350685
H	-2.380513	0.713461	-0.731697
H	-2.420404	0.130013	-2.273635
C	-0.099842	1.183392	-2.22596
N	0.132582	2.077641	-2.951752
N	-0.459093	-1.137513	0.693898
H	0.139415	-1.323472	1.486216
H	-1.427816	-1.06879	0.967286
N	-0.427325	1.329411	0.646284
O	-1.424114	1.309529	1.37996
O	0.221127	2.332298	0.36841
Br	3.437487	0.0	0.0
