16

C	-0.382091	-0.006498	-1.469781
C	0.0	0.0	0.0
Cl	-2.182671	-0.057044	-1.67975
H	1.102931	0.0	0.0
H	-0.074043	0.942169	-1.918713
C	0.256747	-1.166463	-2.200599
H	0.021023	-1.136924	-3.266808
H	1.339673	-1.103647	-2.059111
H	-0.097707	-2.102619	-1.770127
N	-0.446571	-1.210942	0.65722
H	-1.378288	-1.045738	1.023375
H	0.178249	-1.418087	1.426479
N	-0.534173	1.197112	0.672066
H	-0.282162	2.012973	0.120041
H	-0.012387	1.289967	1.539614
Cl	3.506819	0.0	0.0
