16

C	-0.553489	0.095519	-1.418417
C	0.0	0.0	0.0
Cl	-0.090492	1.663199	-2.191543
H	1.103637	0.0	0.0
H	-0.045588	-0.671162	-2.004909
C	-2.060459	-0.06391	-1.497814
H	-2.403716	-0.003017	-2.53238
H	-2.555811	0.711417	-0.913133
H	-2.326904	-1.042974	-1.094826
N	-0.404813	-1.304947	0.525735
H	-1.191278	-1.164664	1.150002
H	0.367244	-1.684563	1.05788
N	-0.547613	1.072586	0.845483
H	0.004516	1.063252	1.697508
H	-0.336867	1.960481	0.401943
Cl	3.521331	0.0	0.0
