16

C	-0.38374	0.004421	-1.46927
C	0.0	0.0	0.0
Cl	-2.183953	-0.05198	-1.680219
H	1.102919	0.0	0.0
H	-0.080249	0.958455	-1.909159
C	0.259238	-1.144837	-2.21276
H	0.021821	-1.106409	-3.278195
H	1.341715	-1.077893	-2.072533
H	-0.089501	-2.086634	-1.791415
N	-0.44668	-1.216215	0.646629
H	0.176704	-1.428322	1.416195
H	-1.37928	-1.053732	1.012529
N	-0.532855	1.191181	0.683922
H	-0.007983	1.27633	1.550596
H	-0.282384	2.011432	0.137982
Cl	3.508367	0.0	0.0
