16

C	-0.535675	0.091699	-1.424945
C	0.0	0.0	0.0
Cl	-0.0635	-1.363184	-2.362052
H	1.100016	0.0	0.0
H	-1.629452	0.079164	-1.382854
C	-0.024744	1.322554	-2.154265
H	-0.318109	1.302409	-3.205602
H	1.066004	1.353537	-2.091041
H	-0.445022	2.226367	-1.705305
N	-0.486707	-1.189013	0.664478
H	0.192555	-1.4939	1.348888
H	-1.361991	-0.973251	1.129003
N	-0.486969	1.210397	0.715782
H	-0.190379	1.082474	1.679466
H	0.059263	2.003484	0.389613
Cl	3.522643	0.0	0.0
