16

C	-0.348366	-0.024569	-1.482347
C	0.0	0.0	0.0
Cl	-2.159572	0.007982	-1.710822
H	1.097953	0.0	0.0
H	-0.003652	0.91072	-1.928808
C	0.238807	-1.215291	-2.20115
H	-0.166397	-2.134967	-1.781115
H	0.035581	-1.171607	-3.274141
H	1.319401	-1.201168	-2.031129
N	-0.467639	-1.217109	0.641197
H	-1.437814	-1.080216	0.906952
H	0.060858	-1.31328	1.501245
N	-0.425032	1.218795	0.690715
H	-1.277226	1.580997	0.275917
H	0.303348	1.918402	0.597169
Cl	3.471516	0.0	0.0
