16

C	-0.490621	0.06618	-1.448142
C	0.0	0.0	0.0
Cl	-0.158462	-1.485591	-2.308103
H	1.101609	0.0	0.0
H	-1.580235	0.168517	-1.436397
C	0.164957	1.200504	-2.212236
H	-0.133167	2.151077	-1.764494
H	-0.140128	1.202344	-3.260717
H	1.251344	1.098189	-2.150073
N	-0.476003	-1.14371	0.756898
H	0.164234	-1.912619	0.609675
H	-1.389308	-1.429804	0.421221
N	-0.520828	1.221749	0.650865
H	-0.571189	0.980091	1.635317
H	0.198334	1.93621	0.576472
Cl	3.527941	0.0	0.0
