16

C	-0.496444	0.173406	-1.427375
C	0.0	0.0	0.0
F	-1.812158	0.563589	-1.424767
H	1.086922	0.0	0.0
H	-0.411671	-0.898114	0.455217
C	0.32302	1.079757	-2.302468
H	1.373731	0.796389	-2.239097
H	0.209235	2.096721	-1.931897
H	-0.030568	1.017961	-3.333504
N	-0.491252	-1.241039	-2.016431
O	-1.536123	-1.880868	-1.940345
O	0.567581	-1.634967	-2.490177
N	-0.452106	1.130418	0.849361
O	-0.973521	0.846283	1.927932
O	-0.252749	2.27315	0.442518
Br	3.446491	0.0	0.0
