16

C	-0.448711	-0.01646	-1.438913
C	0.0	0.0	0.0
F	-0.212812	1.188242	-2.024615
H	1.088652	0.0	0.0
H	-0.357173	-0.889422	0.518671
C	0.261657	-1.100772	-2.214319
H	1.336884	-0.930935	-2.123881
H	0.016067	-2.083098	-1.810087
H	-0.043883	-1.045258	-3.261368
N	-1.949681	-0.27245	-1.551775
O	-2.377781	-1.207831	-0.880314
O	-2.594981	0.403036	-2.339245
N	-0.541355	1.165316	0.745877
O	0.081944	1.53742	1.732755
O	-1.608862	1.642234	0.3545
Br	3.490979	0.0	0.0
