16

C	-0.441278	-0.014954	-1.453567
C	0.0	0.0	0.0
F	-0.10677	1.210175	-1.954056
H	1.089834	0.0	0.0
H	-0.400632	0.887214	0.487274
C	0.149274	-1.092461	-2.317771
H	-0.155826	-0.923334	-3.353195
H	-0.17316	-2.07517	-1.986435
H	1.23543	-1.020704	-2.226796
N	-1.970251	-0.077981	-1.501837
O	-2.463262	-1.184798	-1.296386
O	-2.588949	0.959922	-1.704966
N	-0.482836	-1.175004	0.761661
O	-0.050418	-2.280317	0.446321
O	-1.278234	-0.960652	1.678747
Br	3.44945	0.0	0.0
