16

C	-0.57707	0.111672	-1.38574
C	0.0	0.0	0.0
F	-1.937794	0.25895	-1.296118
H	1.089454	0.0	0.0
H	-0.333721	0.87193	0.563429
C	0.024697	1.282042	-2.123947
H	1.108707	1.188505	-2.137555
H	-0.369802	1.315041	-3.140851
H	-0.253001	2.201569	-1.607483
N	-0.334857	-1.135939	-2.22559
O	0.839971	-1.42346	-2.401053
O	-1.31108	-1.699517	-2.70348
N	-0.509048	-1.173227	0.749862
O	-0.744668	-1.008653	1.94502
O	-0.633392	-2.235498	0.144113
Br	3.436628	0.0	0.0
