16

C	-0.569044	0.122895	-1.389595
C	0.0	0.0	0.0
F	-1.926067	0.327601	-1.314513
H	1.089471	0.0	0.0
H	-0.326767	0.875538	0.562231
C	0.090528	1.260188	-2.132182
H	-0.302071	1.306963	-3.150643
H	1.171485	1.111977	-2.140491
H	-0.141282	2.196555	-1.620124
N	-0.372043	-1.135153	-2.227633
O	0.791458	-1.466592	-2.402001
O	-1.368017	-1.664122	-2.703463
N	-0.510666	-1.167394	0.758289
O	-0.670391	-2.225799	0.153644
O	-0.712026	-1.000842	1.959139
Br	3.446538	0.0	0.0
