12
Coordinates from ORCA-job run
  C   0.96805625361818      0.02661792368922     -0.25322286582501
  C   -0.37243429662381      0.19010656087957     -0.10827757365230
  H   1.53437089421016      0.49525658474933     -1.04047162849324
  N   1.72213062153295     -0.80176982680538      0.63342274633359
  O   1.13517599643079     -1.37687380067615      1.56308917572587
  O   2.92922110724267     -0.89477185728015      0.40904436883139
  N   -1.21219423330237     -0.25443282548540      0.83740586644016
  H   -0.85010908136035     -0.95759332569745      1.46322644270566
  H   -2.19769735394097     -0.19880597860725      0.63661693193988
  N   -1.04313224716166      1.04804999042657     -1.12718480962721
  O   -2.27283049295864      1.05832347136681     -1.09855074907841
  O   -0.33855716768694      1.66689308344030     -1.91509790530038
