12
Coordinates from ORCA-job run
  C   0.97007956657055      0.01640068573071     -0.24576444252174
  C   -0.37117264348451      0.18740722805033     -0.11716865224134
  H   1.54296294963598      0.45938663253122     -1.04306190623504
  N   1.71485604054904     -0.78581551816987      0.67220212388968
  O   1.11870098409492     -1.33070763687092      1.61412418562090
  O   2.92347687786002     -0.88853353750303      0.46080528925744
  N   -1.21979868061975     -0.22505044849738      0.83519413369573
  H   -0.86449282561835     -0.90965513635286      1.48505815815285
  H   -2.20353853119715     -0.17464632799172      0.62463222440925
  N   -1.03092758352828      1.01488094106217     -1.16776402722841
  O   -0.31830525626621      1.60867182886793     -1.96762381160138
  O   -2.26084089799626      1.02766128914343     -1.15063327519792
