12
Coordinates from ORCA-job run
  C   0.87777815620328      0.42388530425088      0.22722534347017
  C   -0.39069920193751      0.11303500103067     -0.14582528425946
  H   1.30289535665163      1.40503037610674      0.09801877842688
  N   1.74670833895708     -0.54852322578303      0.81057655493985
  O   2.88086147238575     -0.16962026730494      1.10413353879979
  O   1.32545736849723     -1.70242030960344      0.98540491630710
  N   -1.09454186907626     -1.01836132405179      0.00030667476856
  H   -0.57537066105370     -1.83588915890577      0.28188326130841
  H   -1.94195319659394     -1.10384743147791     -0.53736909373820
  N   -1.17625536044666      1.21108225291965     -0.77878497992003
  O   -0.69882550822639      2.33902896129475     -0.77546621213657
  O   -2.25705489536052      0.88759982152419     -1.26910349796653
