12
Coordinates from ORCA-job run
  C   0.71079934239722     -0.65818385397813      0.37316909863652
  C   -0.47380154959170     -0.17522662382519     -0.04397220733745
  H   0.83331404192664     -1.67477315659761      0.72157382950472
  N   1.91297120791910      0.13569153235932      0.45345267766335
  O   2.01142450021577      1.13411065514692     -0.25759003832784
  O   2.77493445400386     -0.28642658906824      1.22512057174324
  N   -1.66407303942996     -0.84638484644378     -0.09453524453548
  H   -2.28627974138594     -0.52984635203344     -0.82432476478870
  H   -1.60257706866617     -1.85046368474258     -0.02338860209101
  N   -0.66599330535747      1.24138285896263     -0.41694324926285
  O   -1.07108757784604      1.42687183376250     -1.56236133598486
  O   -0.48063126418532      2.08324822645760      0.44979926478038
