12
Coordinates from ORCA-job run
  C   0.98222449978073     -0.00669423812997     -0.19220534703477
  C   -0.36844856038317      0.13563846077748     -0.18031996651435
  H   1.61296546547175      0.45456018670098     -0.93351097467523
  N   1.66401888058865     -0.77181823358427      0.80305297045793
  O   2.89073256889515     -0.82671343962088      0.71263193576452
  O   1.00065708665553     -1.32819653476914      1.69180725461808
  N   -1.30040411766197     -0.41195613704573      0.61266056811768
  H   -0.96504292492455     -0.87754734225154      1.44211645598740
  H   -2.22094360768019     -0.00383855104310      0.58645686053963
  N   -0.94712180214281      0.99599694323945     -1.25222468947377
  O   -2.14234116063722      1.26476206813017     -1.14130226903484
  O   -0.20629632796191      1.37680681759656     -2.15016279875227
