12
Coordinates from ORCA-job run
  C   0.70709452974695     -0.63127998485559      0.42283780081428
  C   -0.45997786649136     -0.19579105157843     -0.08549906483402
  H   0.83774300979300     -1.63728128491908      0.79799676648794
  N   1.90677742115350      0.16923352930482      0.46751898718498
  O   1.80150092225463      1.39442189995007      0.45810319835738
  O   2.96124507006594     -0.46194613304533      0.54692199114260
  N   -1.61938301314483     -0.90965233962679     -0.21231283742840
  H   -2.45743048352473     -0.34901148643382     -0.15495106042745
  H   -1.66757960322651     -1.76311562198974      0.32273478837620
  N   -0.60949305514023      1.14107407337782     -0.69649967621143
  O   0.06607345444569      1.38850960884257     -1.68483904169714
  O   -1.46757038593206      1.85483879097351     -0.18201185176494
