12
Coordinates from ORCA-job run
  C   0.96826535113099      0.25044163802204      0.04002827012673
  C   -0.35525421782236      0.09916097957452     -0.22485655549861
  H   1.57408526128384      1.01354518761319     -0.41904349283097
  N   1.64787210415513     -0.59502960358157      0.96977319836109
  O   1.01139265449116     -1.49492064356422      1.53947675804797
  O   2.84437348298075     -0.36729819269080      1.15016759777957
  N   -1.23320516337527     -0.82303533365759      0.19470231352966
  H   -0.93277681416013     -1.41369623429975      0.95503617860549
  H   -2.21008089512847     -0.62382493382242      0.05092596264567
  N   -0.94845058155488      1.07553706244803     -1.18328834141096
  O   -2.17351137500806      1.04893293760178     -1.29126921163902
  O   -0.19170980699271      1.83018713635680     -1.78165267771663
