12
Coordinates from ORCA-job run
  C   0.98154512323824      0.19416776982013     -0.00165998948655
  C   -0.36364902883461      0.14582056098484     -0.18247823785194
  H   1.59805305512843      0.98426264387549     -0.39641731628163
  N   1.67249032988312     -0.80212607631328      0.75388204879907
  O   1.02554906071553     -1.74092623823496      1.24338104249463
  O   2.88938315835520     -0.65793799367656      0.87444168244849
  N   -1.26312265453901     -0.78344387133585      0.17229749797708
  H   -0.94615048719935     -1.48353605048355      0.82567677014521
  H   -2.23349776720724     -0.51508721151113      0.13651188930316
  N   -0.96279323006880      1.27264801569082     -0.95413698161256
  O   -2.19184891551320      1.32008408901112     -0.97257621800420
  O   -0.20595864395829      2.06607436217295     -1.49992218793077
