12
Coordinates from ORCA-job run
  C   0.71201712774326     -0.63407304399594      0.41052222350054
  C   -0.47229213315618     -0.18064577673042     -0.03932910286979
  H   0.83924131082254     -1.63213636477749      0.80741912812933
  N   1.90799720231635      0.17151197940407      0.46192603159054
  O   2.76690654091710     -0.20731380453525      1.25903331921672
  O   2.00505886201420      1.13583788818062     -0.29489578332408
  N   -1.65719997454914     -0.86220984420070     -0.06780196524167
  H   -2.27621171441519     -0.58510912333888     -0.81606819704933
  H   -1.59011249032862     -1.86119997983606      0.05246996281666
  N   -0.67069409627031      1.21495019886546     -0.48152062880906
  O   -0.49836590710173      2.09874741454318      0.34529952519359
  O   -1.06634472799230      1.34264045642143     -1.63805451315344
