12
Coordinates from ORCA-job run
  C   0.87441860280754      0.39540609369578      0.28444949531397
  C   -0.33353534284165      0.09332611131833     -0.25820566877516
  H   1.35352545141869      1.35085372189094      0.15145627738967
  N   1.58866406574859     -0.54203468444351      1.09227450102334
  O   1.09389358226556     -1.66212845602814      1.29204403498858
  O   2.66840264954636     -0.16638459100336      1.54948521020894
  N   -1.03486153962113     -1.04960278801480     -0.25537520454437
  H   -2.00322080259224     -0.99051890001014     -0.52665383591980
  H   -0.72111180424947     -1.76453488182831      0.38307755595937
  N   -0.98983627843701      1.17797867943669     -1.04348298681518
  O   -0.34339477335519      2.19037651922159     -1.28263670381756
  O   -2.15194381069005      0.96726317576494     -1.38743267501180
