12
Coordinates from ORCA-job run
  C   0.70280681586479     -0.58984657477250      0.48579430207970
  C   -0.46733080989966     -0.19093429753844     -0.04536302949437
  H   0.82680259153029     -1.55352436177828      0.96096597407815
  N   1.88404096239783      0.23797263665440      0.52781244487485
  O   1.99931998674759      1.14660259197934     -0.29263064808990
  O   2.71333504289548     -0.06720896009770      1.38553886479470
  N   -1.64006309613063     -0.89354043789359     -0.07281337259999
  H   -1.56359107460676     -1.87969327117718      0.12372316386012
  H   -2.22928892723111     -0.68348129997879     -0.86566209363790
  N   -0.66686632973281      1.16457513978627     -0.59811501851021
  O   -1.01378298157188      1.19933029261957     -1.77661895284661
  O   -0.54438218026314      2.10974854219690      0.16736836549145
