12
Coordinates from ORCA-job run
  C   0.68553618776867     -0.59477498708098      0.50285875097553
  C   -0.47654285234845     -0.17041898602306     -0.02612955137959
  H   0.77490934356026     -1.53720339551208      1.02604759452520
  N   1.90431170224535      0.17699680586527      0.47818569450196
  O   2.04406673638064      1.03539585800627     -0.39113420329533
  O   2.73741961156182     -0.12296755992991      1.33421031911347
  N   -1.68002191013475     -0.81886732848270      0.00702657664066
  H   -1.64222814008307     -1.79638631714603      0.25215216278772
  H   -2.27535518192387     -0.62370111407718     -0.78510604449381
  N   -0.62734477851187      1.16197508731746     -0.64657496210688
  O   -1.00311686595726      1.15124332270379     -1.81673666189395
  O   -0.44063385255746      2.13970861435915      0.06320032462502
