12
Coordinates from ORCA-job run
  C   0.97813974992397      0.07096477080550     -0.20046115679674
  C   -0.37388908794085      0.17753598289346     -0.12382560043268
  H   1.56470330298656      0.58135779240980     -0.94580391521395
  N   1.71741711746129     -0.75152535920281      0.70373123450020
  O   1.10684583278396     -1.36838471625576      1.59052012946359
  O   2.93659168933341     -0.79710556381723      0.53744743574509
  N   -1.24321338085139     -0.32434615469032      0.76426154604893
  H   -0.88600954702952     -1.02391616820793      1.39676185079475
  H   -2.21932556759033     -0.29926625843306      0.51734283489700
  N   -1.02421222573643      1.03521039801812     -1.15619437277592
  O   -0.30478527529248      1.69978626187344     -1.89168490592725
  O   -2.25326260804819      0.99868901460679     -1.19109508030301
