12
Coordinates from ORCA-job run
  C   0.60625991097753     -0.49340123506297      0.68304636727854
  C   -0.41862736113173     -0.24257445315330     -0.15202959873964
  H   0.67738949255637     -1.40725477629020      1.25720763731149
  N   1.73139106137519      0.39315810565573      0.85554058700136
  O   1.59071640352369      1.58627720996214      0.59330544866443
  O   2.75489221676859     -0.13083337736080      1.29670060689040
  N   -1.48961387592403     -1.05345699001827     -0.40593888455347
  H   -2.33385345091875     -0.55843967264729     -0.65488009820177
  H   -1.63821609237692     -1.80259918809596      0.25248481103231
  N   -0.46236181358675      0.95359782555407     -1.01826377090686
  O   -1.44300474963114      1.67663210718176     -0.85666105867256
  O   0.42302825836796      1.07989444427509     -1.85151204710423
