12
Coordinates from ORCA-job run
  C   0.65250393914767     -0.49724111193683      0.63626098917692
  C   -0.49344833819102     -0.10370064769424      0.05092877934332
  H   0.67622882375252     -1.23149265032574      1.43008451595593
  N   1.94565245132157      0.05409325650476      0.31149180399784
  O   2.80840367676227     -0.07305811289379      1.18104009703451
  O   2.10884640981839      0.56951160541524     -0.79294291282396
  N   -1.75687851512612     -0.53692094274768      0.34331810571415
  H   -2.39278716191167     -0.51747385441172     -0.44096442488007
  H   -1.81375941255309     -1.38289742083242      0.88921109287967
  N   -0.54030040555600      0.97584082982659     -0.95673094421836
  O   -0.18424736904273      2.09133731984919     -0.60578650354844
  O   -1.01021409842179      0.65100172924664     -2.04491059863151
