12
Coordinates from ORCA-job run
  C   0.64152283314466     -0.58890024393424      0.56487867703035
  C   -0.46037869831685     -0.18968945461255     -0.09602432589100
  H   0.69470628990324     -1.53511272990651      1.08614819630347
  N   1.87050452108313      0.16657016499907      0.59684223827892
  O   1.82433415824592      1.37975879985393      0.40152336868463
  O   2.88393387082826     -0.48269908803126      0.85747440118910
  N   -1.63830507650601     -0.87337217438471     -0.22056339550170
  H   -1.76755199908658     -1.63934777894237      0.42266820083194
  H   -2.45128371866980     -0.28088150461413     -0.31077385910994
  N   -0.49904192001634      1.05159958035821     -0.89625926297993
  O   -1.35342184223886      1.86530663524253     -0.55234027497528
  O   0.25598158162922      1.12876779397202     -1.85457396386054
