12
Coordinates from ORCA-job run
  C   0.90215562521889      0.35078872042212      0.25508280295010
  C   -0.34865258980404      0.12351476647004     -0.22284108263783
  H   1.39612866297539      1.30439650271915      0.17324798763068
  N   1.64741778440569     -0.67112920700812      0.91948985348318
  O   1.13779254855123     -1.79428630492010      1.05451541165280
  O   2.76783207402865     -0.36169460072508      1.32543930427010
  N   -1.07883056160448     -0.99981185265675     -0.26877972319665
  H   -0.73874370035246     -1.77730481741446      0.27624788756662
  H   -2.06105432932251     -0.89901856589537     -0.46810796271675
  N   -1.02968366333297      1.28797817487654     -0.85876296788747
  O   -2.21833189635448      1.13279138612178     -1.13467837449426
  O   -0.37502995440891      2.30477579801026     -1.05285313662053
