12
Coordinates from ORCA-job run
  C   0.68315452265105     -0.57555237783393      0.52967027389274
  C   -0.48901116693871     -0.11654868726515      0.05492107169865
  H   0.74496370593864     -1.41554985176185      1.20835432115103
  N   1.95772473729772      0.03465592784507      0.23729964684039
  O   2.06945204185177      0.71294985116344     -0.78204276753569
  O   2.85451486795146     -0.20182390495788      1.04746071496014
  N   -1.73728785570320     -0.60301330610164      0.33262618877423
  H   -2.40025548148390     -0.48720551543909     -0.42070386221176
  H   -1.76333008390036     -1.51874942064241      0.75444832471742
  N   -0.58530128334361      1.09408482390812     -0.78634510558131
  O   -0.23700853476803      2.15484142193422     -0.28862049940670
  O   -1.09961546955283      0.92191103915110     -1.88906830729912
