12
Coordinates from ORCA-job run
  C   0.95118968532619      0.29932528322024      0.07834862764244
  C   -0.36175526237187      0.10779788847640     -0.21072687284507
  H   1.50908712720372      1.15348530337412     -0.26712577867661
  N   1.68473542027135     -0.62587356111942      0.88284401196603
  O   2.86671167280147     -0.35497267120612      1.09619986460083
  O   1.10583144045640     -1.63247353165806      1.31991739636888
  N   -1.18048095465501     -0.91702487607206      0.06866826357992
  H   -0.84224155105403     -1.58450992044721      0.74518603870479
  H   -2.16846521985349     -0.75287998754327     -0.04082970566475
  N   -1.01643160634872      1.17212856184903     -1.02461623486072
  O   -0.30876128446681      2.04700145975129     -1.50839941885095
  O   -2.23841946730919      1.08899605137507     -1.13846619196480
