12
Coordinates from ORCA-job run
  C   0.66047673160426     -0.62279604275902      0.50449177490042
  C   -0.47311434227773     -0.21672405130661     -0.09421748931090
  H   0.78355340230768     -1.63708237673936      0.86181532682158
  N   1.82676391417908      0.22446376284317      0.72917104422305
  O   2.53483410501391      0.47405474657590     -0.24302631035338
  O   2.02896469202625      0.56762423739859      1.88863676308048
  N   -1.56090275890518     -1.01032939295572     -0.35629684880083
  H   -1.34834247512066     -1.92495883030003     -0.72083003988909
  H   -2.29105805860571     -0.53447606518940     -0.86437605333608
  N   -0.66261589854641      1.20487062423190     -0.47715828190268
  O   0.12208961218154      2.02698704182956     -0.01832726430167
  O   -1.62064892385702      1.44836634637103     -1.20988262113089
