12
Coordinates from ORCA-job run
  C   0.85088226398443      0.42540752815185      0.31075304157355
  C   -0.33874366243408      0.09033677171733     -0.25248972695789
  H   1.27696221622498      1.41172858551864      0.23514724864952
  N   1.61567244801322     -0.51746598336275      1.06385132816343
  O   1.18349832121254     -1.67313429873925      1.19457631395166
  O   2.67304215874542     -0.11091437429642      1.54611682552266
  N   -0.97691403704925     -1.08691808750759     -0.31746462597675
  H   -0.62190683192722     -1.82161308693291      0.27531425287140
  H   -1.94577476429824     -1.06746361994842     -0.59231346974816
  N   -1.05317352981582      1.18132915982868     -0.97552893438946
  O   -0.46218913907194      2.23920958743792     -1.15404916932695
  O   -2.20235544358404      0.92849781813291     -1.33391308433299
