12
Coordinates from ORCA-job run
  C   0.85471562912596      0.36694830250258      0.36943342849815
  C   -0.36349671141243      0.14020664782279     -0.18666651168030
  H   1.22446366967526      1.35516311194362      0.58585943708915
  N   1.72728799899142     -0.70627949672933      0.72636464107763
  O   1.36318824610470     -1.87282503148163      0.51181274908411
  O   2.80340456388855     -0.39579893728106      1.23780610430522
  N   -0.94863874594633     -1.00014744314799     -0.57977588541850
  H   -0.50926238692931     -1.85640053988188     -0.27818996365319
  H   -1.93821744348157     -0.96571316257494     -0.76488555120430
  N   -1.19059901876782      1.34792163956585     -0.47017813742989
  O   -0.66829239506890      2.44855519811329     -0.34368950415542
  O   -2.35455340617951      1.13736971114872     -0.80789080651266
