12
Coordinates from ORCA-job run
  C   0.70767947781207     -0.57859027053377      0.49208777435766
  C   -0.44289456119551     -0.22203842683587     -0.10760992044962
  H   0.87610410590481     -1.57307656034163      0.88257648609891
  N   1.80261441220030      0.33200459732269      0.72385790286214
  O   1.90512712266916      1.32817542317787      0.01010315896346
  O   2.58087640713358      0.00632184524910      1.62100324730722
  N   -1.54166255998493     -1.00922826098802     -0.31272851803413
  H   -1.39606720049926     -2.00127214801337     -0.20524989196097
  H   -2.07972316370547     -0.76489575132836     -1.13159933741407
  N   -0.71291080296019      1.16286806700185     -0.54532943887795
  O   -0.74646392315562      2.02999349113213      0.31568801120901
  O   -0.95267931421892      1.29173799415737     -1.74379947406165
