12
Coordinates from ORCA-job run
  C   0.86079427491349      0.44627011786925      0.24998921120806
  C   -0.39266216696901      0.10427743779572     -0.14612204931914
  H   1.25342982861954      1.44512776975462      0.15991844203006
  N   1.75925454468511     -0.51607884549216      0.80476213557342
  O   1.37852119186414     -1.69001845363290      0.93302427203091
  O   2.87659358121124     -0.10803163564470      1.12306055135006
  N   -1.05606808024695     -1.05601378297556     -0.04881511385532
  H   -1.89987377576019     -1.15027649682308     -0.59068578590369
  H   -0.51354708887552     -1.86593302769863      0.20935114270476
  N   -1.21284820700890      1.19643546476262     -0.74444032946439
  O   -0.77275953934704      2.33868281033241     -0.70190099970081
  O   -2.28183456308590      0.85455864175241     -1.24814147665390
