12
Coordinates from ORCA-job run
  C   0.87811945280128      0.37625619917338      0.29781878105433
  C   -0.35875933943868      0.12683108437450     -0.20443085663133
  H   1.30122893192216      1.36546626975431      0.34848769449888
  N   1.70127254065672     -0.67030325819730      0.81608554674883
  O   1.27749891262516     -1.83609069371914      0.78989839238691
  O   2.79775481111492     -0.33791156050060      1.26684524992201
  N   -1.00689172395714     -1.02953699144403     -0.40564236248631
  H   -0.60534980067871     -1.84767774676956      0.02646789973330
  H   -1.99722497828962     -0.97266107137116     -0.58113622675502
  N   -1.12942675403640      1.31573363472439     -0.67070142049958
  O   -2.30696691192114      1.11407350456558     -0.96356131583032
  O   -0.55225514079858      2.39482062940962     -0.72113138214168
