12
Coordinates from ORCA-job run
  C   0.82161589369472     -0.57664218157518      0.26620032159637
  C   -0.36825733066940     -0.23192883081388     -0.25932452210444
  H   1.21466756011394     -1.58235470481454      0.20389616605958
  N   1.71180959313092      0.35985424358192      0.90811611783485
  O   2.89466010920556      0.01980856888569      0.95285069925877
  O   1.24216773977822      1.39133402241456      1.38530001025282
  N   -1.23828350710937     -1.04674057341719     -0.92925127714791
  H   -1.07759330541452     -2.03686972876117     -0.82510536080096
  H   -2.20837636992011     -0.78231086637164     -0.83485090594066
  N   -0.85709232891003      1.16223466855011     -0.27016720058402
  O   -0.19988893982103      1.98595492555251     -0.88980530718465
  O   -1.93442911407890      1.33966045676882      0.29414125876024
