12
Coordinates from ORCA-job run
  C   0.61732805156714     -0.57890136077580      0.60086409536787
  C   -0.46327628003310     -0.18224476844001     -0.09579517117608
  H   0.63941017637196     -1.50222265159886      1.16373648431973
  N   1.86359664907294      0.14794097098317      0.62369157280839
  O   2.85574663712116     -0.51327132066355      0.93208305204104
  O   1.85133587007176      1.35210678938965      0.37490681557807
  N   -1.65489730729167     -0.84301142523020     -0.21253282243790
  H   -1.81337059674669     -1.57818398001877      0.45942344257231
  H   -2.45199099411932     -0.23678987579583     -0.34356023282265
  N   -0.45834092973381      1.02378408488167     -0.94927452546820
  O   0.31443233120822      1.04141546697876     -1.89627457655833
  O   -1.29997360748859      1.87037807028976     -0.65726813422425
