12
Coordinates from ORCA-job run
  C   0.75818759674352      0.40498016260127      0.51259361242971
  C   -0.33832127079417      0.12429165725994     -0.23806685363586
  H   1.02241295052136      1.40519832267252      0.81235229812577
  N   1.63523949377728     -0.62477162261257      0.97264936851720
  O   2.59357441200006     -0.26781075681326      1.65828428221272
  O   1.39053999900136     -1.80236635061260      0.66795455142883
  N   -0.77513118861481     -1.03404096875037     -0.75256539313138
  H   -1.72290424663664     -1.05518411851789     -1.09304346389340
  H   -0.33029823165837     -1.87175597849847     -0.40959595763283
  N   -1.19078535825439      1.28830516217078     -0.61545035080271
  O   -2.26863908900493      1.01862332064830     -1.14330491246349
  O   -0.77287506708028      2.41353117045235     -0.37180718115456
