12
Coordinates from ORCA-job run
  C   0.76866435827105      0.41368723997988      0.49041740706948
  C   -0.33953812171722      0.12018837117462     -0.23826472307550
  H   1.04602990161461      1.42016136893964      0.75524112082648
  N   1.63692895541134     -0.61028112854656      0.97869093063057
  O   1.37647365985889     -1.79455993939080      0.71554055356211
  O   2.60466954305709     -0.24200794355968      1.64495622534512
  N   -0.79566255672323     -1.04964379521992     -0.70691410092717
  H   -1.74419980964634     -1.07094387577666     -1.04492661962203
  H   -0.35542611655776     -1.88161422944372     -0.34493712974062
  N   -1.18218577395689      1.28059662484670     -0.64759945657521
  O   -0.75083534122557      2.40847494774074     -0.44256747443245
  O   -2.26591869838597      1.00594235925574     -1.16063673306080
