12
Coordinates from ORCA-job run
  C   0.69414051904050     -0.55313550198943      0.56976894264582
  C   -0.46754315476044     -0.22181246311413     -0.01731471107199
  H   0.82053682568409     -1.49222744217516      1.09024897871586
  N   1.86996003504593      0.29107823995741      0.56624956661629
  O   1.96413453486513      1.17203213714443     -0.28584172996122
  O   2.69490259743253      0.04445924763002      1.44663675158537
  N   -1.52247347973992     -1.09637263308066     -0.14991319715333
  H   -2.41192010603185     -0.66092691011837     -0.34074546773264
  H   -1.35125190178041     -1.88194758854527     -0.75809750573493
  N   -0.69044310477880      1.13913702798478     -0.56951489837502
  O   -0.97087247473784      1.18029930486040     -1.76375490060712
  O   -0.62917029023893      2.08041658144598      0.21327817107292
