12
Coordinates from ORCA-job run
  C   0.61231468207921     -0.52293249340416      0.65533043580022
  C   -0.43473188235877     -0.22339672974870     -0.13498191847830
  H   0.66758235926901     -1.44274232722858      1.22168106585201
  N   1.78110573586976      0.31322877867983      0.78340199130906
  O   2.79857638971534     -0.25694579770577      1.17874128962379
  O   1.68136319549319      1.51254273743467      0.53075995574283
  N   -1.54772227081393     -0.98776957915143     -0.35058706961721
  H   -1.69838699299596     -1.73643145987508      0.30801867708277
  H   -2.38103825008004     -0.45584738659966     -0.55681585077154
  N   -0.46375417322748      0.98039367530240     -0.99102958847448
  O   -1.40161027867759      1.74602341150357     -0.77976302594168
  O   0.38630148572727      1.07187717079293     -1.86475596212747
