12
Coordinates from ORCA-job run
  C   0.68017473530786     -0.66954389332298      0.40813205901386
  C   -0.48206404771950     -0.15363310497442     -0.03199660672513
  H   0.75528652955743     -1.66992216636368      0.81248456765834
  N   1.92020216825480      0.06723391731245      0.43905318942742
  O   2.06131833633114      1.02036729628599     -0.32509502055554
  O   2.76744447061007     -0.35518173376418      1.22666113646697
  N   -1.70325618658819     -0.76843374348561     -0.04140426284340
  H   -1.69006755816090     -1.76871608517213      0.08596579602727
  H   -2.31494167231397     -0.46285107652174     -0.78458537425596
  N   -0.60737759508525      1.24704655338729     -0.48433016166198
  O   -0.37846348837199      2.12667770466896      0.33314452801133
  O   -1.00725569182152      1.38695633195005     -1.63802985056319
