12
Coordinates from ORCA-job run
  C   0.60314218486326     -0.50524202726682      0.67743479328620
  C   -0.45425447654356     -0.20131323080598     -0.09727892923531
  H   0.63256012649257     -1.39002927913780      1.29872978741008
  N   1.76693515075913      0.33748038679001      0.80435414558426
  O   2.01722290136916      1.14059643949087     -0.09258709884322
  O   2.44694143007117      0.15159800658351      1.81422403796376
  N   -1.61369764921784     -0.91482878414353     -0.22174440243374
  H   -1.58485587435017     -1.86029620719071      0.12794965182582
  H   -2.05920746746037     -0.83104078268224     -1.12408747186332
  N   -0.53855318584648      1.05598910563846     -0.86781062069658
  O   -0.57155043283587      2.10206411539368     -0.23628828139338
  O   -0.64368270730099      0.91402225733055     -2.08389561160456
