12
Coordinates from ORCA-job run
  C   0.66645970956848     -0.66938026942583      0.43055272625336
  C   -0.41447376226108     -0.19633863059067     -0.21624680957829
  H   0.81446807880849     -1.72400130492529      0.61956405751959
  N   1.75530040060260      0.16335004265004      0.88076507613942
  O   2.82691295032416     -0.41715316565563      1.05767867958356
  O   1.54215160431466      1.35696780355804      1.08561925361988
  N   -1.45502599064213     -0.92524599582879     -0.72203983432036
  H   -2.33660384948801     -0.43261443857238     -0.73420685665992
  H   -1.52748427113362     -1.87370864132907     -0.38704087787756
  N   -0.56597089869901      1.23009838902529     -0.57022195711084
  O   -1.56770828500194      1.77556433484144     -0.11260851989855
  O   0.25997431360741      1.71346187625286     -1.33081493767030
