13

C	-0.547445	0.049896	-1.437334
C	0.0	0.0	0.0
Cl	0.166739	1.417728	-2.324575
H	1.094137	0.0	0.0
H	-1.622628	0.242732	-1.38597
C	-0.33251	-1.189252	-2.181003
N	-0.2243	-2.18949	-2.786966
C	-0.48875	-1.222462	0.645024
N	-0.939828	-2.153217	1.203852
N	-0.437213	1.199521	0.714676
H	0.375257	1.605739	1.16222
H	-1.124537	0.978368	1.422971
Cl	3.252873	0.0	0.0
