13

C	-0.43018	-0.058376	-1.464995
C	0.0	0.0	0.0
Cl	-2.220644	-0.199895	-1.620133
H	1.102722	0.0	0.0
H	-0.008036	-0.94856	-1.936296
C	-0.000774	1.133559	-2.189632
N	0.278165	2.096064	-2.801622
C	-0.442329	-1.220071	0.689491
N	-0.824131	-2.178822	1.251154
N	-0.453386	1.227502	0.627146
H	0.253209	1.538544	1.281619
H	-1.332467	1.103479	1.110457
Cl	3.234684	0.0	0.0
