13

C	-0.428043	-0.04955	-1.464281
C	0.0	0.0	0.0
Cl	-2.217944	-0.198619	-1.622414
H	1.102718	0.0	0.0
H	-0.002242	-0.933207	-1.942964
C	-0.005598	1.149642	-2.181889
N	0.26356	2.105809	-2.805968
C	-0.440301	-1.225863	0.682571
N	-0.814994	-2.186007	1.247972
N	-0.451984	1.224308	0.633237
H	-1.341819	1.105253	1.097669
H	0.248064	1.520714	1.302655
Cl	3.232647	0.0	0.0
