13

C	-0.435096	0.061538	-1.461588
C	0.0	0.0	0.0
Cl	-2.225178	-0.08871	-1.622278
H	1.096097	0.0	0.0
H	-0.004025	-0.778076	-2.010883
C	-0.023606	1.315323	-2.084843
N	0.279608	2.303027	-2.641742
C	-0.431913	-1.275651	0.590011
N	-0.810599	-2.26363	1.101547
N	-0.45479	1.168488	0.729046
H	0.249533	1.422803	1.408867
H	-1.33625	1.004367	1.196574
Cl	3.234219	0.0	0.0
