13

C	-0.549503	0.002966	-1.432274
C	0.0	0.0	0.0
Cl	0.075682	1.416664	-2.330638
H	1.100642	0.0	0.0
H	-1.633429	0.131538	-1.375056
C	-0.247459	-1.219756	-2.170539
N	-0.070082	-2.208526	-2.77888
C	-0.506092	-1.197409	0.671055
N	-0.943111	-2.13845	1.222112
N	-0.528639	1.195421	0.686721
H	0.105242	1.952827	0.446125
H	-0.404586	1.049806	1.683255
Cl	3.279006	0.0	0.0
