13

C	-0.424453	-0.003197	-1.467356
C	0.0	0.0	0.0
Cl	-2.214975	-0.147411	-1.63536
H	1.091308	0.0	0.0
H	0.004292	-0.871149	-1.972888
C	0.002991	1.21858	-2.142448
N	0.313191	2.185942	-2.729837
C	-0.442803	-1.246459	0.643094
N	-0.82613	-2.213526	1.191058
N	-0.455804	1.20331	0.669668
H	0.234124	1.474168	1.358747
H	-1.350971	1.068382	1.120514
Cl	3.234696	0.0	0.0
