13

C	-0.389489	-0.144657	-1.488884
C	0.0	0.0	0.0
Cl	0.04634	-1.742629	-2.148381
H	1.091275	0.0	0.0
H	0.194537	0.595761	-2.041193
C	-1.816742	0.104327	-1.69375
N	-2.962476	0.347642	-1.795151
C	-0.553473	-1.106012	0.782191
N	-1.026973	-1.978039	1.409086
N	-0.406077	1.268496	0.568352
H	0.260714	1.983533	0.310842
H	-1.345679	1.538135	0.30622
Cl	3.243785	0.0	0.0
