13

C	-0.435573	0.082452	-1.460343
C	0.0	0.0	0.0
Cl	-2.227184	-0.051195	-1.620105
H	1.096126	0.0	0.0
H	-0.012794	-0.755463	-2.019372
C	-0.01253	1.340459	-2.069322
N	0.319536	2.346767	-2.574314
C	-0.436747	-1.282873	0.570074
N	-0.779407	-2.295643	1.05787
N	-0.452714	1.159234	0.746241
H	-1.323999	0.983052	1.226366
H	0.259749	1.41227	1.417815
Cl	3.232338	0.0	0.0
