13

C	-0.456673	-0.169835	-1.454111
C	0.0	0.0	0.0
Cl	-0.01767	-1.768267	-2.111512
H	1.095643	0.0	0.0
H	0.079824	0.583267	-2.033135
C	-1.89771	0.041111	-1.586883
N	-3.05629	0.218795	-1.66583
C	-0.51876	-1.075169	0.852852
N	-0.982471	-1.879126	1.574083
N	-0.413086	1.332586	0.428233
H	-1.296733	1.307923	0.92121
H	0.300974	1.708842	1.038919
Cl	3.25492	0.0	0.0
