15
Coordinates from ORCA-job run
  C   0.34182984128994     -0.18545759883621     -0.85518627405931
  C   -0.76791452499554     -0.29713091836158      0.24252552590230
  Cl  -0.37625072730153      0.12078445386499     -2.42335313128280
  H   -1.49177199730361     -1.02207316254423     -0.13083604591426
  C   1.09206351991158     -1.43215800783642     -0.85964030614316
  N   1.63838778006443     -2.47329378325249     -0.84252621877660
  N   1.34204997569761      0.94569154115920     -0.48890285063571
  O   2.02874892881865      0.68474341886366      0.49142351636173
  O   1.34823913047775      1.95796103850987     -1.15892112734629
  N   -1.49697460283877      1.02350421889465      0.28281510942218
  O   -2.65475082368482      1.04502195827029     -0.11595309930339
  O   -0.85533152955946      1.96099681881084      0.74878655970108
  N   -0.36818031625667     -0.62057160499386      1.56018506250735
  H   0.44006042745388     -0.09668254946446      1.86779506055230
  H   -0.22020508177345     -1.61233582308426      1.68078821901459
