15
Coordinates from ORCA-job run
  C   0.63775075925645     -0.28146277860362     -0.63519278593106
  C   -0.75684892770653     -0.14513287535936      0.03310784617727
  Cl  0.57387471814759     -1.60364584754411     -1.80298369165059
  H   -1.42848692279174      0.27458647682975     -0.72030202708301
  C   1.66396485704335     -0.52798626481391      0.36311139950043
  N   2.41202853668290     -0.74281287146657      1.24486263799029
  N   0.97693044203285      0.97789453960908     -1.45050299991613
  O   0.07773503948618      1.37658660337983     -2.17371708885938
  O   2.10247703800226      1.43284990805609     -1.33346266670909
  N   -0.62069869342012      0.93488661652887      1.10730362999616
  O   -0.00750756655899      1.94196189719281      0.77160583943825
  O   -1.14149723224844      0.73124865536849      2.19626250760388
  N   -1.17711723194728     -1.37615541843955      0.59659581698041
  H   -1.26345081202207     -1.30098002007021      1.60184984927329
  H   -2.05015400395642     -1.69083862066759      0.20146173318928
