15
Coordinates from ORCA-job run
  C   0.33423253818942      0.33884786718186     -0.76555342744116
  C   -0.35802518916140     -0.28560135650745      0.45858443630967
  Cl  -0.35084598686168      1.87030610573875     -1.23244016923689
  H   0.12900602409976     -1.25559236586370      0.64076462706200
  C   0.41655547129829     -0.57906767479127     -1.89240401178337
  N   0.53226189492976     -1.30676385787671     -2.80835471963701
  N   1.80867497060605      0.52940488824443     -0.26404924659487
  O   2.39916045235695     -0.52338490768895     -0.06512181691499
  O   2.21055343647403      1.66145939199079     -0.06409260968490
  N   -1.79793000188958     -0.65200331827454      0.15283201685341
  O   -2.17168234658963     -0.68091699315590     -1.01271586776862
  O   -2.46583308756114     -0.93153504598888      1.14220821488892
  N   -0.39110944309684      0.63074243597395      1.55433339241060
  H   -0.81749964898030      0.19538247433738      2.36055928848952
  H   0.52348091618631      0.98872235668022      1.79444989304771
