15
Coordinates from ORCA-job run
  C   0.60817602243906     -0.18674123951527     -0.57608482883425
  C   -0.78362841843134     -0.22773728644691      0.11550222815741
  Cl  0.75366564731256     -1.62109882428163     -1.61116639348855
  H   -1.52603445279511     -0.03518456151932     -0.66271992354391
  C   1.68220662623376     -0.17406336366053      0.40212834479776
  N   2.48188641376932     -0.24447130458775      1.26141528786443
  N   0.73548015955034      1.01461591747466     -1.52759763894109
  O   -0.24677563483084      1.22740581957158     -2.21990808802846
  O   1.80365476117799      1.60094316618509     -1.53563359354873
  N   -0.84081827816708      0.99203488883612      1.05195599920677
  O   -0.20113447117709      1.97150393478129      0.67344859717041
  O   -1.52418201221987      0.91336442506106      2.05767087328528
  N   -1.10266984057451     -1.38718497240864      0.83986730166504
  H   -0.37433909734591     -1.70863637320463      1.46205531868364
  H   -1.46648742494129     -2.13275022628513      0.26906651555424
