17

C	0.0	0.0	0.0
C	-0.631391	-0.165353	-1.396039
Cl	1.766109	0.0	0.0
H	-1.601345	-0.623453	-1.181662
C	-0.427995	1.22025	0.680511
N	-0.636698	2.235331	1.234229
N	-0.368448	-1.193517	0.907223
O	-0.378019	-0.987424	2.111785
O	-0.544095	-2.267038	0.351405
C	0.169904	-1.035664	-2.345822
H	0.443919	-1.982809	-1.884057
H	1.071288	-0.521037	-2.688344
H	-0.460849	-1.254113	-3.212914
N	-0.798775	1.178779	-1.942614
H	-0.851841	1.112997	-2.952442
H	-1.703309	1.513713	-1.614595
Cl	-3.513405	0.0	0.0
