17

C	0.0	0.0	0.0
C	-0.458218	-0.136095	-1.476592
Cl	1.759107	0.0	0.0
H	0.2114	0.567211	-1.984408
C	-0.432805	1.264323	0.591373
N	-0.72424	2.32095	1.01491
N	-0.503506	-1.112052	0.929923
O	-1.239591	-1.961314	0.450365
O	-0.126878	-1.034571	2.091454
C	-1.886815	0.307459	-1.740504
H	-2.057731	0.235229	-2.8203
H	-2.045908	1.34719	-1.448372
H	-2.649819	-0.274207	-1.220445
N	-0.09519	-1.466065	-1.956612
H	-0.872493	-2.093221	-1.788523
H	0.048906	-1.412135	-2.957112
Cl	-4.809334	0.0	0.0
