17

C	0.0	0.0	0.0
C	-0.469186	0.151255	-1.502921
Cl	1.768914	0.0	0.0
H	0.306251	-0.392115	-2.05295
C	-0.480941	1.0282	0.907535
N	-0.762562	1.945771	1.586398
N	-0.391122	-1.37826	0.540846
O	-0.819364	-1.440858	1.684841
O	-0.192921	-2.315533	-0.221542
C	-0.422684	1.63032	-1.8644
H	-1.259076	2.150124	-1.390478
H	-0.537847	1.716477	-2.945489
H	0.511691	2.111081	-1.562735
N	-1.730121	-0.405637	-1.864736
H	-2.527046	-0.072809	-1.310629
H	-1.716306	-1.413082	-1.798945
Cl	-4.241106	0.0	0.0
