17

C	0.0	0.0	0.0
C	-0.472567	-0.43577	-1.407466
Cl	1.766588	0.0	0.0
H	0.119822	0.218266	-2.058599
C	-0.434909	1.354085	0.332879
N	-0.723035	2.474523	0.539171
N	-0.477547	-0.918406	1.133231
O	-1.157796	-1.88629	0.827445
O	-0.128753	-0.590348	2.258915
C	-1.944917	-0.173293	-1.678061
H	-2.214508	0.87604	-1.549959
H	-2.13994	-0.444568	-2.720597
H	-2.625772	-0.734332	-1.038566
N	-0.013222	-1.799059	-1.653539
H	0.169773	-1.906274	-2.642328
H	-0.752404	-2.441362	-1.398608
Cl	-4.899745	0.0	0.0
