17

C	-0.523868	0.022137	-1.434147
C	0.0	0.0	0.0
Br	0.28291	-1.51316	-2.330447
H	1.09183	0.0	0.0
C	-2.019367	-0.060559	-1.619249
H	-2.275094	-0.119272	-2.676072
H	-2.47842	0.830515	-1.19166
H	-2.389219	-0.950821	-1.10837
N	0.006512	1.253253	-2.181235
O	-0.681052	1.659783	-3.117151
O	1.100633	1.681798	-1.840239
C	-0.516346	-1.132184	0.742306
N	-0.953979	-2.049922	1.334193
N	-0.39502	1.250643	0.756105
O	-0.037031	1.289316	1.924273
O	-0.892759	2.182128	0.115469
F	2.479913	0.0	0.0
