17

C	-0.486123	0.013614	-1.419711
C	0.0	0.0	0.0
Br	0.352493	1.478117	-2.371871
H	1.092856	0.0	0.0
C	-0.044005	-1.271604	-2.093544
H	-0.54575	-2.116885	-1.616735
H	1.041728	-1.332755	-1.923925
H	-0.291098	-1.251665	-3.162119
N	-2.016534	0.127592	-1.612661
O	-2.660162	-0.711842	-0.985764
O	-2.489875	0.902032	-2.43386
C	-0.448922	-1.122304	0.784099
N	-0.723744	-2.053	1.451977
N	-0.431635	1.263414	0.694856
O	0.21622	1.58012	1.713066
O	-1.494747	1.789234	0.35272
F	2.466852	0.0	0.0
