18

C	-0.599747	0.015053	-1.409602
C	0.0	0.0	0.0
Cl	0.301605	1.196232	-2.38434
H	1.08629	0.0	0.0
N	-0.29551	-1.342237	-2.059483
O	0.646681	-1.975182	-1.608645
O	-0.990371	-1.650085	-3.021217
C	-2.078661	0.311768	-1.500286
H	-2.271698	1.313771	-1.118038
H	-2.382604	0.267296	-2.543953
H	-2.643494	-0.416191	-0.920753
N	-0.463914	-1.16169	0.821966
O	-1.322511	-1.913431	0.364831
O	0.064383	-1.255904	1.921265
N	-0.480361	1.219444	0.731467
O	-1.496368	1.104116	1.417784
O	0.155809	2.248347	0.550609
Br	3.343815	0.0	0.0
