15
Coordinates from ORCA-job run
  C   0.84172359646495     -0.36218653690735      0.63898899306201
  C   -0.55470595108025      0.16353474593296      0.26919944460239
  H   0.67340189042319     -1.21302070483338      1.31333436531035
  H   -1.07043205472811      0.45636365465875      1.18740967993927
  C   1.61764691005267      0.63338289786998      1.38608319354921
  N   2.20018814899398      1.41627496695382      2.03842341043176
  C   1.58070879644018     -0.87311315891655     -0.52048623856298
  N   2.13945122949991     -1.35336544752947     -1.43420457481513
  C   -1.37754482945807     -0.83717586624806     -0.52373189275662
  H   -1.47993199655363     -1.76773940828574      0.03876958464967
  H   -0.90023392504605     -1.05673402064528     -1.48091453383465
  H   -2.37171993140253     -0.42977360710296     -0.70611339211898
  N   -0.44806657758323      1.43426325400864     -0.53255120704198
  O   -1.48981720882001      2.07084953250464     -0.64701980871095
  O   0.63933190279699      1.71843969854000     -1.02718702370335
