15
Coordinates from ORCA-job run
  C   1.03223129093945      0.18344341688385      0.44506033842102
  C   -0.48853161236569      0.35789538537940      0.25268674278826
  H   1.46809942375773      1.15456256291493      0.69799239965956
  H   -0.90489378399423      0.74069229957182      1.19082512669612
  C   1.66071643736320     -0.29250089941154     -0.79216323925381
  N   2.13410109288613     -0.67416399261349     -1.79641066798289
  C   1.27908270002851     -0.75093360618280      1.54694532573774
  N   1.44218016678645     -1.48720159847325      2.44692555411143
  C   -1.19979741273719     -0.90155951733480     -0.19167094727450
  H   -1.02690541518252     -1.69407285653196      0.53927192430138
  H   -0.83353593088683     -1.23006082563573     -1.16590712978552
  H   -2.27068214910461     -0.72467427866162     -0.26745316795892
  N   -0.70303990653105      1.48594369242878     -0.73950950549838
  O   -1.73399756454199      1.45794031962064     -1.40058447200568
  O   0.14497266358263      2.37468989804577     -0.76700828195582
