15
Coordinates from ORCA-job run
  C   1.04590140309526     -0.15821060793950     -0.05943990037430
  C   -0.42947097436331      0.13767386778941      0.26909368639473
  H   1.18520795732203     -0.03975603167827     -1.13977894950226
  H   -0.58292076812010      0.14225374382200      1.34942793490705
  C   1.37126452355429     -1.53573970617705      0.31981816561557
  N   1.59834840352656     -2.64869216315200      0.61704292682733
  C   1.93399131536413      0.78863114218455      0.62405481111948
  N   2.62098681703283      1.56204393857591      1.17910622888925
  C   -1.39320644948549     -0.79915310848364     -0.43714341236121
  H   -1.24307112947476     -1.82424693172711     -0.09582472730050
  H   -2.42010842655529     -0.50729194475807     -0.21083607011136
  H   -1.24209401923337     -0.75550684043445     -1.51796390008650
  N   -0.72664256655242      1.54187652905163     -0.18013759120090
  O   -1.48367103156905      2.19492915739025      0.52967704735734
  O   -0.23451505454131      1.90218895553634     -1.24709625017374
