12

C	0.0	0.0	0.0
C	-0.220617	-0.133392	-1.552144
Cl	1.791599	0.0	0.0
H	0.414312	-0.971205	-1.850938
H	0.235789	0.767996	-1.973939
C	-0.444809	1.273938	0.555101
N	-0.523793	2.365353	0.988286
C	-0.431493	-1.175315	0.75476
N	-0.508748	-2.184354	1.355019
C	-1.502409	-0.334863	-2.228787
N	-2.191816	-0.553937	-3.159069
Cl	-2.917674	0.0	0.0
