12

C	0.0	0.0	0.0
C	-0.221685	-0.225904	-1.538811
Cl	1.791271	0.0	0.0
H	0.256249	-1.186566	-1.749997
H	0.393572	0.537196	-2.022933
C	-0.440715	1.31219	0.467851
N	-0.514645	2.430032	0.827727
C	-0.444329	-1.114369	0.834424
N	-0.524062	-2.073182	1.511891
C	-1.508654	-0.214655	-2.235939
N	-2.204861	-0.253334	-3.186528
Cl	-2.937812	0.0	0.0
