18

C	0.0	0.0	0.0
C	-0.483811	0.017817	-1.445352
Br	2.005595	0.0	0.0
H	-1.580171	0.097938	-1.305717
C	-0.409877	1.274789	0.717058
H	-0.076352	1.236463	1.759145
H	-0.0159	2.166398	0.232462
H	-1.509814	1.264538	0.684651
N	-0.487574	-1.183853	0.634239
H	-1.499373	-1.179381	0.400986
H	-0.434141	-1.039186	1.636603
N	-0.201411	-1.250741	-2.105345
H	0.79736	-1.430483	-2.06597
H	-0.4734	-1.173306	-3.079017
N	-0.023495	1.22575	-2.131746
H	0.940421	1.08969	-2.423601
H	-0.58966	1.353418	-2.963018
H	-3.19123	0.0	0.0
