18

C	0.0	0.0	0.0
C	-0.505795	0.070117	-1.441535
Br	1.969192	0.0	0.0
H	-1.594419	0.185489	-1.281359
C	-0.421431	1.248779	0.758958
H	-1.519459	1.247601	0.741298
H	-0.031709	2.149378	0.286401
H	-0.071771	1.191293	1.794944
N	-0.527312	-1.215997	0.571923
H	-1.558701	-1.076489	0.48602
H	-0.314856	-1.223493	1.566373
N	-0.179484	-1.16885	-2.160277
H	-0.964347	-1.383157	-2.770323
H	-0.149671	-1.908407	-1.462354
N	-0.013991	1.253434	-2.129664
H	0.890091	1.004994	-2.522144
H	-0.636561	1.438245	-2.909081
H	-3.191584	0.0	0.0
