18

C	0.0	0.0	0.0
C	-0.52267	0.042343	-1.440411
Br	1.980815	0.0	0.0
H	-1.582868	0.298229	-1.267211
C	-0.426491	1.259455	0.732603
H	-0.053679	2.147266	0.222575
H	-1.52429	1.255751	0.732352
H	-0.059177	1.227944	1.760079
N	-0.489998	-1.141245	0.71637
H	-0.327685	-1.955739	0.130123
H	-1.513046	-0.984673	0.745188
N	-0.449684	-1.306365	-2.045208
H	-0.238225	-1.198136	-3.029249
H	-1.380198	-1.709922	-1.98006
N	0.098943	1.08501	-2.226502
H	-0.422825	1.215689	-3.085504
H	1.052486	0.821248	-2.45074
H	-3.220722	0.0	0.0
