18

C	0.0	0.0	0.0
C	-0.439723	0.036358	-1.512969
Br	2.028851	0.0	0.0
H	0.448306	0.12545	-2.142513
C	-0.367556	1.251423	0.78148
H	0.048816	1.161197	1.78655
H	0.002677	2.151004	0.295378
H	-1.458708	1.292431	0.841496
N	-0.447961	-1.137921	0.740566
H	-1.448846	-0.958943	0.893817
H	-0.401225	-1.940631	0.119797
N	-1.269556	1.215294	-1.753197
H	-2.141285	1.047251	-1.230138
H	-1.514673	1.211474	-2.739773
N	-1.070021	-1.253316	-1.830891
H	-1.22369	-1.274641	-2.834479
H	-1.993487	-1.207743	-1.387515
H	-3.228007	0.0	0.0
