16

C	0.0	0.0	0.0
C	-0.567783	-0.165981	-1.407021
Br	1.940462	0.0	0.0
H	-1.66627	-0.289675	-1.179528
N	-0.416493	1.258574	0.516104
H	-0.290402	1.217977	1.523619
H	-1.430016	1.286858	0.356008
N	-0.585777	-1.15345	0.762078
O	-1.733496	-0.795171	1.270379
O	-0.303595	-2.306854	0.359593
C	-0.072808	-1.353141	-2.112063
N	0.270626	-2.169919	-2.887388
N	-0.427571	1.047624	-2.201139
H	0.558934	1.267136	-2.296406
H	-0.796627	0.864362	-3.128134
H	-2.829265	0.0	0.0
