16

C	0.0	0.0	0.0
C	-0.249235	0.170141	-1.544283
Br	1.960513	0.0	0.0
H	0.455409	-0.53565	-1.995759
N	-0.253491	1.140273	0.844911
H	0.208654	0.961426	1.731416
H	-1.259626	1.148891	0.997152
N	-0.620932	-1.256812	0.453457
O	-0.640313	-2.200704	-0.392012
O	-0.609886	-1.4545	1.691995
C	0.164852	1.524973	-1.943658
N	0.449567	2.577857	-2.37922
N	-1.599401	-0.052005	-2.090768
H	-1.462787	-0.161541	-3.097174
H	-1.874234	-0.963831	-1.7343
H	-2.007183	0.0	0.0
