16

C	0.0	0.0	0.0
C	-0.469194	-0.148233	-1.454121
Br	1.941649	0.0	0.0
H	-1.568649	-0.125966	-1.363437
N	-0.508614	1.242213	0.48483
H	-0.270207	1.277925	1.475043
H	-1.547002	1.098813	0.430588
N	-0.57709	-1.11282	0.824714
O	-1.724966	-1.474955	0.324803
O	-0.328628	-1.046482	2.053055
C	-0.089296	-1.442226	-2.029645
N	0.184117	-2.440592	-2.584556
N	0.067506	0.942326	-2.275902
H	0.028575	1.771316	-1.689471
H	-0.57536	1.087026	-3.047254
H	-2.802084	0.0	0.0
