16

C	0.0	0.0	0.0
C	-0.553443	-0.068438	-1.431888
Br	1.938847	0.0	0.0
H	-1.647798	-0.216739	-1.184398
N	-0.557302	1.057975	0.735511
H	-1.584856	0.813393	0.719138
H	-0.469475	1.875033	0.138061
N	-0.356171	-1.310197	0.731966
O	-0.520572	-2.30525	0.032685
O	-0.39309	-1.278575	1.951966
C	-0.028311	-1.118905	-2.297338
N	0.384778	-1.868925	-3.104398
N	-0.406895	1.251334	-2.042432
H	-1.170253	1.393684	-2.695548
H	0.46864	1.296995	-2.553871
H	-2.934586	0.0	0.0
