16

C	0.0	0.0	0.0
C	-0.538419	-0.105825	-1.428123
F	1.374848	0.0	0.0
H	-1.639461	-0.113884	-1.391477
N	-0.468885	1.239112	0.524214
H	-0.196184	1.302621	1.499212
H	-1.495765	1.21186	0.483196
C	-0.380252	-1.192179	0.806978
N	-0.576931	-2.068244	1.564721
N	-0.071091	-1.309265	-2.180113
O	-0.406169	-1.340861	-3.360951
O	0.574322	-2.166598	-1.586956
N	-0.076058	1.07853	-2.218386
O	1.092667	1.060679	-2.598247
O	-0.893376	1.968895	-2.410893
Cl	-3.426631	0.0	0.0
