16

C	0.0	0.0	0.0
C	-0.549318	0.064621	-1.425956
F	1.365121	0.0	0.0
H	-1.650173	0.066727	-1.376466
N	-0.46865	1.16777	0.671434
H	-1.494809	1.150228	0.626304
H	-0.198708	1.108169	1.64748
C	-0.383656	-1.279953	0.660164
N	-0.577461	-2.239893	1.309206
N	-0.108747	-1.052669	-2.313186
O	0.562949	-1.962234	-1.837366
O	-0.489007	-0.964244	-3.477036
N	-0.07384	1.322708	-2.081829
O	-0.869253	2.251373	-2.142448
O	1.083904	1.320298	-2.494424
Cl	-3.432585	0.0	0.0
