16

C	0.0	0.0	0.0
C	-0.514129	-0.069422	-1.440634
F	1.391966	0.0	0.0
H	-1.605958	-0.225114	-1.410363
N	-0.48832	1.210881	0.563121
H	-1.516744	1.147299	0.539124
H	-0.203079	1.252712	1.535597
C	-0.362207	-1.213909	0.781039
N	-0.545771	-2.090487	1.542698
N	0.123099	-1.179548	-2.21858
O	0.080253	-2.284707	-1.689572
O	0.584645	-0.925509	-3.325344
N	-0.236973	1.201366	-2.174405
O	-1.182871	1.675376	-2.800256
O	0.901635	1.649869	-2.131122
Cl	-3.413392	0.0	0.0
