16

C	0.0	0.0	0.0
C	-0.133515	-0.154214	-1.555489
F	1.3877	0.0	0.0
H	0.386333	0.712823	-1.958506
N	-0.524413	1.191126	0.528913
H	-0.394298	1.956116	-0.124161
H	-1.540764	1.041051	0.640689
C	-0.446895	-1.152727	0.799349
N	-0.652323	-2.052445	1.52473
N	-1.455775	-0.165268	-2.25799
O	-1.875832	0.943623	-2.561775
O	-1.935244	-1.252875	-2.541117
N	0.61994	-1.335951	-2.096862
O	0.698339	-2.353251	-1.421789
O	1.088734	-1.17201	-3.22295
Cl	-3.402052	0.0	0.0
