14
Coordinates from ORCA-job run
  C   -0.32111089483089      0.70791563247181      0.05118790562752
  C   1.02872516332922      0.05596254288969      0.33537135264173
  Cl  -0.05727932197472      2.45418663540606      0.32137131741462
  H   1.36024427385458      0.29419274996138      1.34494190401531
  H   1.77888252396219      0.37344298329279     -0.38830680916328
  N   -0.63129613282269      0.53900240114732     -1.45186707349559
  O   0.29820489446079      0.78403539784444     -2.20822752732060
  O   -1.75871190541072      0.19028176399392     -1.75968278897027
  N   -1.44716732580810      0.28707351241356      0.78644841225445
  H   -1.76266171971247     -0.63036393457943      0.50320894621259
  H   -1.29427224333831      0.34946702590371      1.78327528176629
  N   0.94944973784149     -1.43276739395183      0.25432342247636
  O   1.75723117392262     -2.06391893549125      0.92525835327892
  O   0.10076177652700     -1.91051038130217     -0.49730269673805
