14
Coordinates from ORCA-job run
  C   -0.27698453021554      0.60518513867274      0.11559756256582
  C   1.08103340515611     -0.03010582570920      0.33401539986328
  Cl  -0.09070342239069      2.36152434926112      0.59736297001595
  H   1.80513783800176      0.37515510773629     -0.36970310925576
  H   1.40766757472101      0.11032434629305      1.36240326169159
  N   -0.60953838026184      0.68552241711757     -1.38252327304949
  O   -1.78730769371167      0.54550333110973     -1.68249970301322
  O   0.31651020993338      0.93865516911917     -2.13530973202801
  N   -1.29362037894483     -0.09703356599298      0.75647361788650
  H   -2.21616747807337      0.23372269180829      0.50902294326482
  H   -1.16399463285476     -0.14280262688263      1.75785496944077
  N   0.97363670188490     -1.50006231862385      0.10278410689723
  O   1.20542647081721     -2.23424079530186      1.05931659910279
  O   0.64890431593833     -1.85234741860743     -1.02579561338226
