14
Coordinates from ORCA-job run
  C   -0.28471353652090      0.58816098527841      0.12143362579963
  C   0.35228307987925     -0.74070715553136      0.51388022098679
  Cl  0.78349197454726      1.90818919659716      0.55940332191767
  H   -0.26017462728834     -1.55886907189428      0.13197080611085
  H   0.44927206873178     -0.79185603714019      1.59658870912344
  N   -0.55110047153416      0.57844758825108     -1.39728279065159
  O   -1.27453394646827     -0.35412298470339     -1.73441663786806
  O   -0.10468848856691      1.45929986942740     -2.10467943552984
  N   -1.57611024253507      0.80882694955609      0.69857277112287
  H   -2.18774410489919      0.02183387752412      0.51808839699097
  H   -1.50706795811908      0.99373197713098      1.69024843032464
  N   1.71904070406648     -0.92131585781324     -0.05319568040355
  O   1.83996500886673     -0.70938381256767     -1.25656837063991
  O   2.60308053984043     -1.28223552411511      0.71695663271609
