14
Coordinates from ORCA-job run
  C   -0.15008717908507      0.65761350401317      0.04430798858233
  C   1.08690813856197     -0.19261118081411      0.24969450815762
  Cl  0.39813131475636      2.39339102302810      0.23965493055195
  H   1.79546135682397     -0.03217971947045     -0.56017880636340
  H   1.53805864858790      0.01785157989925      1.21730021361514
  N   -0.61793626743773      0.60015699768232     -1.41853817343774
  O   -1.82642077071504      0.65190023655780     -1.60147961989510
  O   0.25477887609431      0.56629294947776     -2.27031758815766
  N   -1.20334890068888      0.25611846914589      0.86053459025401
  H   -0.98017465768030      0.31606706779633      1.84447417596576
  H   -2.07265497195021      0.72219798547947      0.63989619152649
  N   0.69356555558327     -1.63192123454899      0.25153013553604
  O   0.88518579503097     -2.26166368146655      1.28803600420161
  O   0.19853306211846     -2.06321399678001     -0.78391455053704
