14
Coordinates from ORCA-job run
  C   -0.20261262077634      0.51933965752637     -0.17684918106566
  C   0.65058907377207     -0.73616221442904     -0.30722514008138
  Cl  0.67202590326283      1.96883575165574     -0.71642710871542
  H   0.02167943131510     -1.62334579543573     -0.23069579605765
  H   1.20486757612086     -0.73233984304511     -1.24023746486638
  N   -1.34457522656560      0.35965638227726     -1.24311809791421
  O   -1.06261526292531     -0.22565918532148     -2.28148009551087
  O   -2.42340401687024      0.85619280849151     -0.94920833004187
  N   -0.68303197366281      0.70704708925831      1.11854432260939
  H   -1.34555578478904      1.46825837744794      1.17625453033217
  H   -1.04911445891921     -0.13954649979408      1.53372998273887
  N   1.61822191240736     -0.79444303594715      0.82243632850902
  O   2.70456235604046     -0.24898588562165      0.65906531748857
  O   1.23896309158987     -1.37984760706285      1.83521073257547
