14
Coordinates from ORCA-job run
  C   -0.22837503024188      0.58598284259781     -0.15561370123338
  C   0.48430826613892     -0.77079953806083     -0.28360012820950
  Cl  0.93010910348350      1.86813525814632     -0.46415842195823
  H   -0.21711700834750     -1.57032837047139     -0.04343916895488
  H   0.90918506969929     -0.89654924253499     -1.27842513666375
  N   -1.28395792433472      0.53177213896167     -1.28355408160243
  O   -1.17239807318545      1.24449399193187     -2.26487084993501
  O   -2.16849747327699     -0.29264109738756     -1.06472423839904
  N   -0.96185064552610      0.87350582735745      1.02830565393295
  H   -1.62877418956871      0.13154361252984      1.20615743750530
  H   -0.33090388972071      0.94944791364608      1.81577607176223
  N   1.61082864019747     -0.86178739388104      0.68386537446013
  O   1.31984367660390     -0.76786622611832      1.87577341844424
  O   2.73759947807900     -1.02490971671686      0.22750777085135
