14
Coordinates from ORCA-job run
  C   -0.25751636648314      0.45648517917256     -0.14955719238148
  C   0.43779541666513     -0.89195590214885     -0.23650427643222
  Cl  0.97508047979188      1.73957623885550     -0.55841164558779
  H   -0.26117380146050     -1.68045613861411      0.04660822314027
  H   0.83667453896682     -1.05979477860777     -1.23047662832244
  N   -1.28111239462538      0.55471677255907     -1.29053956834713
  O   -1.25678588303769     -0.31213491782365     -2.15571684790455
  O   -2.04736956488929      1.50342755520003     -1.22425724919357
  N   -0.97185311195521      0.64807044347771      1.03176953293966
  H   -1.39943740101259      1.56393827432184      1.07186332398450
  H   -0.40489953789363      0.45132319240488      1.84595144686922
  N   1.59081629823169     -0.96278849924081      0.71092962842769
  O   2.67336701818254     -1.29693681200086      0.24453440790863
  O   1.36541430951937     -0.71347060755555      1.89480684489927
