14
Coordinates from ORCA-job run
  C   -0.22309333837233      0.57611419253305     -0.19463935902799
  C   0.48362638044704     -0.78940773680614     -0.22696878464581
  Cl  0.94735240635282      1.82961983887560     -0.56958090404230
  H   -0.22428994464367     -1.56894319720133      0.05608150417149
  H   0.91834839169179     -0.98136326114298     -1.20686401120817
  N   -1.26534855386852      0.45643753560504     -1.32961185692236
  O   -2.15375012771315     -0.35274741151787     -1.07243965769639
  O   -1.14253923568109      1.11078666604509     -2.34941871965712
  N   -0.96967273163474      0.94237448809628      0.95901046127376
  H   -1.64909320720202      0.22040204407745      1.16925358011314
  H   -0.34896761980281      1.05555937552256      1.75019223035038
  N   1.59981267037402     -0.82415517402582      0.75622877276138
  O   2.72816168368626     -1.03548013465844      0.32438421741292
  O   1.29945322636638     -0.64119722540253      1.93537252711708
