14
Coordinates from ORCA-job run
  C   -0.24967043467257      0.62395884003283      0.07315384993367
  C   1.10067125815585     -0.03629721189712      0.26517558794881
  Cl  0.01828919591659      2.40972889887840      0.37187445886025
  H   1.78785780853966      0.27250070938389     -0.51967382680486
  H   1.49883836426474      0.18986055130088      1.25225963972213
  N   -0.67860573437622      0.57571296686275     -1.40179034219223
  O   -1.87728972952507      0.44961367677956     -1.61143035562193
  O   0.20230698259123      0.72494544175122     -2.23247428171445
  N   -1.24096511576644      0.01972738499027      0.84069855043337
  H   -2.16830278498288      0.35924635266742      0.62556089348412
  H   -1.04420629693621      0.05482110704193      1.83143734991503
  N   0.93101448722644     -1.51664755498140      0.18752903971762
  O   1.18133719879691     -2.16156214594619      1.20193039349057
  O   0.53872480076798     -1.96460901686442     -0.88425095717208
