14
Coordinates from ORCA-job run
  C   -0.26343463591553      0.56564847686532     -0.17451428993150
  C   0.53534492584048     -0.74611333036148     -0.25374479647362
  Cl  0.81624748660883      1.90824089284968     -0.51167542298616
  H   0.97625930937932     -0.87534774090196     -1.24112761209890
  H   -0.11539535875438     -1.58154731007267      0.00620215166927
  N   -1.30050013964323      0.41089846126104     -1.31029209038867
  O   -2.13108242510003     -0.46410510642211     -1.07679415183334
  O   -1.22601963710830      1.10317709681478     -2.30952913903442
  N   -1.02778807632549      0.84238749853998      0.99236248558639
  H   -0.41223322957125      0.97079979110054      1.78529871478171
  H   -1.65544058432649      0.06918080332324      1.18035692830412
  N   1.65719826008228     -0.73558641243678      0.72357555236311
  O   2.79463155281335     -0.85631661224664      0.28088868335044
  O   1.35221255202043     -0.61031650831295      1.90899298669159
