14
Coordinates from ORCA-job run
  C   -0.13358719013725      0.51760196505247     -0.23723737336498
  C   0.51102396893169     -0.86302561222826     -0.23397477526102
  Cl  0.91028869035619      1.73004963592542     -1.01019680494500
  H   0.99721545116244     -1.06605594086729     -1.18273709095115
  H   -0.23771813151698     -1.62272305836961     -0.00887334411313
  N   -1.35578097635524      0.40522083417457     -1.21635734334127
  O   -2.32391966810009      1.10227179614521     -0.94503746430827
  O   -1.23749811383018     -0.34866858341065     -2.17452920927581
  N   -0.49159628671745      0.94309817647194      1.04168379258756
  H   -1.02588262627916      1.80103278276710      1.02515577824424
  H   -0.95406228654931      0.22553642998107      1.58432826030788
  N   1.53123294944408     -0.92782596083825      0.84807511455082
  O   1.13702188635923     -1.31444016300188      1.94681454937076
  O   2.67326233323206     -0.58307230180180      0.56288591049931
