14
Coordinates from ORCA-job run
  C   -0.27889750986670      0.55849685968831     -0.17300518084350
  C   0.57741905299550     -0.71688019115264     -0.24652741524559
  Cl  0.75749220192333      1.95269119351654     -0.42644844177889
  H   -0.04877517186917     -1.58455877702773     -0.03684488954861
  H   1.06794075208853     -0.80264770452241     -1.21505461468819
  N   -1.25538241675969      0.39133370863432     -1.35921676139264
  O   -1.16535186707200      1.11241839465559     -2.33659735051064
  O   -2.05744773008988     -0.52354639357142     -1.18646254960189
  N   -1.10650075528300      0.77259096473076      0.96347858156009
  H   -0.53363234562850      0.90511137032127      1.78711523711392
  H   -1.70930324952327     -0.03010935655474      1.10266691698242
  N   1.65196037649203     -0.68513001632247      0.78200783514897
  O   1.28777377161640     -0.60550306011980      1.95464853248995
  O   2.81270489097641     -0.74426699227559      0.39024010031457
