14
Coordinates from ORCA-job run
  C   -0.37456472544567      0.44189654504880      0.21857950128384
  C   0.42097518463907     -0.84918725198200      0.36191122822427
  Cl  0.45649269688184      1.86055292929295      0.95587205745296
  H   -0.12978509029499     -1.63910636995564     -0.14332185525221
  H   0.51803897464478     -1.06910505211773      1.42711684966570
  N   -0.54694179324469      0.81091051368167     -1.25572796971469
  O   -1.49483648353271      1.53618572370102     -1.52235467081745
  O   0.28817540183596      0.37330833915541     -2.03597486335037
  N   -1.67406738849178      0.20884702389481      0.72206919737077
  H   -1.65303109447317      0.06269375733361      1.72332592276063
  H   -2.27855167994112      0.99253910245512      0.50344412745875
  N   1.81010304045692     -0.88331748240796     -0.19408889019928
  O   2.61530248140966     -0.06839069077770      0.23966127583961
  O   2.04369047555590     -1.77882708732238     -0.99851191072250
