14
Coordinates from ORCA-job run
  C   -0.25866343238389      0.61320239637308      0.11577618156155
  C   1.07717603330918     -0.06457837375155      0.34279966377422
  Cl  -0.02183346176221      2.36095469981986      0.60970994741948
  H   1.39856917044095      0.06279940715271      1.37455965744591
  H   1.81980212433222      0.31936280878218     -0.35339292019603
  N   -0.57506944489582      0.71383071606143     -1.38510265182501
  O   0.36553669759834      0.93907995815727     -2.12853586229814
  O   -1.75445297543032      0.61617402485117     -1.69535347784816
  N   -1.30192759804340     -0.06099468878250      0.74199307531896
  H   -2.21200798728026      0.30075446192541      0.49224318716345
  H   -1.18107170151481     -0.12818821432876      1.74313005508129
  N   0.92469956965174     -1.52985316939428      0.10611026867226
  O   1.10569098272287     -2.27262900173646      1.06695401347141
  O   0.61555202325538     -1.86891502512957     -1.03089113774121
