14
Coordinates from ORCA-job run
  C   -0.28990829670611      0.58734451319104      0.11522541298510
  C   0.37445141150699     -0.72358458485535      0.52212527543438
  Cl  0.76945527856872      1.93125185326708      0.49847864052759
  H   0.49756121206145     -0.74918636473240      1.60308595938889
  H   -0.23565999069876     -1.55816914771592      0.17337180414692
  N   -0.59124611936634      0.53946095534714     -1.39634458095872
  O   -1.30928797502802     -0.40992105006277     -1.69576917397074
  O   -0.17310202977088      1.40995006623173     -2.13333067699617
  N   -1.57084542285345      0.80373436589041      0.71719358344353
  H   -1.48125545488687      1.00716374141564      1.70366803235005
  H   -2.17575567003681      0.00539510871037      0.56579845415003
  N   1.72978329181090     -0.89909717878531     -0.07327894630452
  O   2.63665926102996     -1.23018267617841      0.68362216551293
  O   1.81915050436924     -0.71415960172327     -1.28384594970929
