14
Coordinates from ORCA-job run
  C   -0.28278086101830      0.49338878078013      0.13278954781452
  C   0.31610589196407     -0.86066635999598      0.44704108936811
  Cl  0.86058649428347      1.79328933679761      0.61756452812481
  H   0.37361842791401     -0.99658162121930      1.52616709641465
  H   -0.29773340506276     -1.64101790707855     -0.00035617460283
  N   -0.57811290514626      0.64063373196298     -1.36854553598073
  O   -0.83004627333681      1.77228299234640     -1.75541791653088
  O   -0.64653205340144     -0.39253346627595     -2.01771873665483
  N   -1.55955173373437      0.58980876552725      0.73835755922863
  H   -1.98427319993752      1.48625762337114      0.52705959032709
  H   -1.50025689443373      0.47915146033331      1.74268832969938
  N   1.70526145794331     -1.05509353344305     -0.06752778543031
  O   2.03257098961962     -0.45781228121153     -1.08576782394601
  O   2.39214406434673     -1.85210752189445      0.56366623216839
