14
Coordinates from ORCA-job run
  C   -0.24252903868719      0.69246440189472      0.18760713056329
  C   1.03486693618551     -0.07503829574711      0.46867093721563
  Cl  0.11061389429634      2.41368081400379      0.46881326270232
  H   1.87558062211688      0.33725631820141     -0.08135488466159
  H   1.23471837159961     -0.05071491781493      1.54022281603838
  N   -0.53045177202453      0.60778548163305     -1.34676684354513
  O   0.43539626684496      0.48706572265830     -2.08933150597644
  O   -1.70460979816748      0.69727958713859     -1.67521050747406
  N   -1.33136346703313      0.30356567218334      0.98132898189579
  H   -2.13842345500882      0.88614935770278      0.79806203133413
  H   -1.55962406901476     -0.66547508122737      0.79439728577671
  N   0.95337005277256     -1.51790777804554      0.07579003139313
  O   2.00565130698178     -2.13889330876187      0.12307586877324
  O   -0.14219585086175     -1.97621797381916     -0.24630460403533
