14
Coordinates from ORCA-job run
  C   -0.36794722195034      0.44312585428731      0.24252871834940
  C   0.40951480077578     -0.85794661383719      0.35961526588721
  Cl  0.42477458624518      1.79970841488349      1.12029220804617
  H   0.53044620745721     -1.09393216028076      1.41948197776895
  H   -0.15464151102195     -1.64171972652000     -0.13956100418136
  N   -0.47401744753551      0.88420827191662     -1.21881334730022
  O   -1.27600879152168      1.77900934304234     -1.44387907981168
  O   0.22828571324136      0.30120102125705     -2.03496986902682
  N   -1.70185287785401      0.20249117268255      0.65272726101990
  H   -1.73760990704745     -0.05578532243375      1.63108019918482
  H   -2.26236986216161      1.03460241279186      0.50459231541406
  N   1.78511423141780     -0.90095587022460     -0.23229253497442
  O   2.52814814273831      0.05396517678026     -0.05469586658155
  O   2.06916393721691     -1.94697197434519     -0.80510624379444
