14
Coordinates from ORCA-job run
  C   -0.29323590258645      0.48356253157885      0.15038062331480
  C   0.32533647964230     -0.87116727721752      0.41937033816736
  Cl  0.81333375494833      1.78335805916171      0.71250475765821
  H   -0.27060364494303     -1.64396784119510     -0.06386357814486
  H   0.37268318547231     -1.04760642913447      1.49318302516947
  N   -0.56295332507337      0.68770266605370     -1.34922020928943
  O   -0.60321361780043     -0.31926821240154     -2.04064494344084
  O   -0.82567825476892      1.83010851621175     -1.69484489539646
  N   -1.58382870973442      0.52996195475640      0.73372827030156
  H   -1.53880494973348      0.38727094778960      1.73493555487513
  H   -2.02228533598169      1.42545758728017      0.54716141367202
  N   1.72276227664227     -1.02517306248764     -0.08673780320700
  O   2.40648018274276     -1.85321326738300      0.50655741110015
  O   2.06000786117385     -0.36702617301295     -1.06350996478006
