14
Coordinates from ORCA-job run
  C   -0.17629426283456      0.51854358514046     -0.20612804467638
  C   0.60285684757614     -0.78954899590039     -0.27019798868881
  Cl  0.76816004992838      1.87916019837750     -0.84898953678523
  H   -0.07363505359791     -1.63295010156761     -0.13042946062922
  H   1.13923341141952     -0.87413863136677     -1.20983418645356
  N   -1.34511933531422      0.35811074016847     -1.24269677313763
  O   -1.11338340449040     -0.30109772880745     -2.24864254463797
  O   -2.39125189588646      0.92657227951693     -0.96137019562508
  N   -0.62087849267712      0.81295585053917      1.08219859603154
  H   -1.23698783152237      1.61400229458545      1.10264587281542
  H   -1.02784536405395      0.01644849611987      1.55448049644370
  N   1.58568671238562     -0.83314635895523      0.84645939872833
  O   1.19295317919528     -1.33280582629313      1.89918200201114
  O   2.69750543987206     -0.36110580155729      0.63332236460380
