14
Coordinates from ORCA-job run
  C   -0.10853541266590      0.50668905693969     -0.27107839475732
  C   0.45776374208896     -0.90488871129533     -0.17924696972268
  Cl  0.98788665910702      1.60085898882853     -1.14135756749388
  H   -0.32815235405080     -1.60302129583051      0.10953082412032
  H   0.91457451269717     -1.20083852579173     -1.11810745547408
  N   -1.35188152864609      0.39624133497200     -1.22366689419891
  O   -1.29220791743759     -0.42738802613248     -2.12837147455512
  O   -2.27476098228720      1.16438576862848     -0.98907618839834
  N   -0.42015226014130      1.03972469571611      0.97925653086134
  H   -0.90571995818482      1.92354378635829      0.90979083089077
  H   -0.91186679146332      0.38912099460673      1.57766241464846
  N   1.49209511449290     -0.95237274051245      0.89022192635396
  O   2.64653266456201     -0.69532002002769      0.56520429164009
  O   1.09642451192892     -1.23673530645969      2.01923812608543
