14
Coordinates from ORCA-job run
  C   -0.22584152055827      0.55481547581933     -0.24589747290223
  C   0.49048089669491     -0.80313190937738     -0.15518084533897
  Cl  0.93714531487112      1.77992756999829     -0.72306941751731
  H   -0.21381955276209     -1.55942053845238      0.19241496359300
  H   0.93138479493722     -1.07745125633669     -1.11246634982726
  N   -1.26143554178992      0.32866421917086     -1.37085598918287
  O   -1.13968855480631      0.89529387995698     -2.44204397975071
  O   -2.14367697722826     -0.46396643205884     -1.04937017445274
  N   -0.98116332588758      1.01415206557303      0.86817506073523
  H   -0.36513290776659      1.20381222440839      1.64833083097670
  H   -1.65400764764972      0.30658303008616      1.13959820861588
  N   1.60130836810527     -0.74205481464473      0.83249079964967
  O   2.73510547458707     -0.97172703583864      0.42485169388324
  O   1.29134117925311     -0.46649647830435      1.99102267151839
