14
Coordinates from ORCA-job run
  C   -0.12389117415329      0.65169128840088      0.12875734884332
  C   1.02416531154462     -0.30647310736485      0.37190449850124
  Cl  0.46805309586968      2.29242922040871      0.68464295197147
  H   1.85754450328528     -0.07382797642686     -0.28766519500369
  H   1.32761437515021     -0.28090633662259      1.41658834370434
  N   -0.35879317652260      0.85491904121247     -1.37645750612194
  O   0.63419007916735      0.89249715695077     -2.08417970304790
  O   -1.51998173478339      1.01957075820161     -1.72444805552057
  N   -1.30986862321064      0.20526054213939      0.70406086512259
  H   -2.11095223581643      0.76056547809084      0.43661314409735
  H   -1.24137377843438      0.09718318899286      1.70664321919179
  N   0.56826434902818     -1.69697192875943      0.08028965122307
  O   0.22042417825434     -1.92611316165957     -1.07286795103709
  O   0.56660483062092     -2.49182416356424      1.01611838807597
