14
Coordinates from ORCA-job run
  C   -0.24755738131790      0.56377489425772     -0.20244416493651
  C   0.53001463967521     -0.76313783045310     -0.20947086870324
  Cl  0.86587961706277      1.87483686445529     -0.55425271182038
  H   0.99956387628172     -0.93616764460862     -1.17674933753729
  H   -0.14388365514851     -1.57698855483543      0.05995381306783
  N   -1.25151122328399      0.38407455071842     -1.36412115647450
  O   -1.12697143806471      1.03014852883734     -2.38906327323611
  O   -2.10952113925089     -0.46168523177132     -1.12261220377579
  N   -1.04172481913998      0.89510514032461      0.92929265082044
  H   -1.69607893089840      0.14474786002928      1.11839078329329
  H   -0.45000755515649      1.03329101007659      1.73850986961338
  N   1.62091534230547     -0.73530351656963      0.80184262321746
  O   2.76955689003237     -0.88743738910967      0.39963923735412
  O   1.28132577690336     -0.56425868135142      1.97208473911725
