14
Coordinates from ORCA-job run
  C   -0.27891382052263      0.58437516922319      0.14872245705386
  C   0.34249814113107     -0.76861060226830      0.47844193900536
  Cl  0.80116730385139      1.87013074290322      0.65420152690831
  H   0.43429381034548     -0.87282199456646      1.55780277574080
  H   -0.27760642481420     -1.56060038286124      0.05581489659042
  N   -0.53884934207963      0.65109261762852     -1.37003814337789
  O   -0.08118446042305      1.56105042674377     -2.03197430071557
  O   -1.26970134280205     -0.25690132166555     -1.75470590380850
  N   -1.57046705779942      0.79057382131308      0.73063651769810
  H   -2.18852208248895      0.01802890318235      0.51350298907365
  H   -1.50368592408806      0.93131323897711      1.72966632138917
  N   1.70929249379585     -0.93651263470577     -0.09186674137963
  O   2.58614335292162     -1.34457366525521      0.66286870163988
  O   1.83753535297259     -0.66754431864870     -1.28307303581798
