14
Coordinates from ORCA-job run
  C   -0.25035089963312      0.52005640109068      0.26454708357704
  C   0.39475974881424     -0.83562887790036      0.49240979871368
  Cl  0.81667228450638      1.81103985018435      0.78635947541689
  H   0.54193323300561     -0.98010688129758      1.55945433052208
  H   -0.23415077056194     -1.62067737732517      0.06967807079691
  N   -0.55144175989413      0.68300036451657     -1.26039961402155
  O   -1.24081558522214     -0.23461202704944     -1.69739386458422
  O   -0.18762857854300      1.67658447501228     -1.86119828747802
  N   -1.46465081135262      0.56732471268001      1.00433593695130
  H   -2.13153873104912     -0.09281829698284      0.62018524124794
  H   -1.86017756548839      1.49989120815772      0.99765933267170
  N   1.72879022259245     -0.95783843961489     -0.15998172756410
  O   2.61466738747983     -1.49825020820149      0.49382445760379
  O   1.82493182534590     -0.53796490326982     -1.30948023385347
