14
Coordinates from ORCA-job run
  C   -0.36714500584096      0.43935392557830      0.24703587967028
  C   0.39943512292890     -0.87151177323245      0.33748665450307
  Cl  0.44173447792035      1.77650450447651      1.14172795726576
  H   -0.16750769970575     -1.63418956849581     -0.19049098968908
  H   0.50348607426081     -1.13567910386685      1.39241348772436
  N   -0.46955074646754      0.91172546560051     -1.20415487188386
  O   -1.30485817245892      1.77721033539521     -1.42313310215285
  O   0.28096287362541      0.38920041872445     -2.01822322262937
  N   -1.69964911954792      0.20101702212476      0.66032104582145
  H   -1.73297412364710     -0.05476902867470      1.63932354458187
  H   -2.26086844748680      1.03209322953525      0.50987050096828
  N   1.78248975834747     -0.91303318277698     -0.23631007671402
  O   2.04057418910550     -1.90821297357598     -0.90414703483251
  O   2.55587081896654     -0.00870927081214      0.04728022736664
