14
Coordinates from ORCA-job run
  C   -0.24214424449326      0.52625671676511      0.26017075084496
  C   0.38350113381380     -0.83654759503659      0.49950555151422
  Cl  0.84576005191899      1.80629212940988      0.76517849736205
  H   -0.25725417120142     -1.61596014708280      0.08414719319624
  H   0.52956779977191     -0.97306138386193      1.56774287144728
  N   -0.54525864691506      0.67837322611527     -1.26611901509468
  O   -0.16572142086158      1.65837052687043     -1.87914262080126
  O   -1.25195808302492     -0.23189713116831     -1.69055353041086
  N   -1.45324819832691      0.59865350064682      1.00288533561192
  H   -1.83693311347352      1.53604180824580      0.98557904069299
  H   -2.12965847857331     -0.05749976695820      0.62867176249745
  N   1.71462472232586     -0.98333621574937     -0.15333574126276
  O   2.59647670402470     -1.52298010626635      0.50653172009998
  O   1.81224594501478     -0.58170556192978     -1.30926181569752
