14
Coordinates from ORCA-job run
  C   -0.28922303942594      0.58219603987070      0.13748089252679
  C   0.35981112540097     -0.75113574252285      0.49294453752550
  Cl  0.76946360817109      1.89900606972602      0.60698316994060
  H   0.46140550755870     -0.82937147215970      1.57360639256073
  H   -0.24781578948003     -1.56412295795907      0.09268393628898
  N   -0.56030872607711      0.61046583538638     -1.38024039194774
  O   -0.12508103811434      1.51463219387414     -2.06492652704563
  O   -1.27600479324815     -0.31954908062417     -1.73998730426118
  N   -1.58056121529524      0.77680273734143      0.72404332643215
  H   -2.18441836186677     -0.01329654729274      0.53160683411944
  H   -1.50926801378394      0.94442683243927      1.71858543284808
  N   1.72557159063667     -0.90654680419175     -0.08372055731551
  O   2.61457323660632     -1.28335347709627      0.67301843143833
  O   1.84085590891775     -0.66015362679139     -1.28107817311051
