14
Coordinates from ORCA-job run
  C   -0.17328216672220      0.69869541997936      0.23477623793522
  C   1.09714347134241     -0.12830107963124      0.27505814311274
  Cl  0.30286856555960      2.39761223144614      0.46699941910910
  H   1.84429861104277      0.25661381675311     -0.41264006742665
  H   1.48639225473035     -0.13154294152274      1.29350581612330
  N   -0.73308886888166      0.65566757158672     -1.22432319384744
  O   -1.94141880025833      0.80364320948042     -1.33673141939027
  O   0.07834911904011      0.50603529270738     -2.12873218283815
  N   -1.12019942706548      0.34243798122178      1.20587289739837
  H   -1.91992078014986      0.96198758270101      1.17533083116970
  H   -1.42153312151245     -0.61251254526873      1.05300905331681
  N   0.88072726416507     -1.55932377021860     -0.11019264148128
  O   1.89504651630383     -2.22703647738857     -0.25345930009606
  O   -0.27438263759410     -1.96297629184610     -0.23947359308541
