14
Coordinates from ORCA-job run
  C   -0.22675942086667      0.76870250020235      0.11885750867764
  C   1.04033059393736     -0.07427191755333      0.33030417133738
  Cl  0.24661064332962      2.44894993220999      0.39435130501154
  H   1.33679178507116     -0.02554411087574      1.37733471303350
  H   1.83677957400418      0.25039848004875     -0.33579453498727
  N   -0.57453897903047      0.57642813445123     -1.37505010626814
  O   -1.50521442142865     -0.18636651531693     -1.60405449656052
  O   0.15407085076382      1.11893492313921     -2.19101098450950
  N   -1.38674465446797      0.48070021531430      0.87326200210765
  H   -1.67512712450528     -0.48214772964539      0.75612331149956
  H   -1.23596629321446      0.68473179641467      1.85214357057854
  N   0.74713678716260     -1.50139141043130      0.01515690856416
  O   1.15727771269946     -1.93622521671418     -1.05828348034100
  O   0.08635294654528     -2.12389908124366      0.84666011185646
