12

C	-0.575511	-0.067901	-1.407928
C	0.0	0.0	0.0
Cl	-0.275756	1.458327	-2.316602
H	1.093236	0.0	0.0
H	-1.662128	-0.185999	-1.377002
H	-0.389616	0.909795	0.472159
C	-0.036852	-1.192279	-2.17326
N	0.364391	-2.081494	-2.826277
N	-0.447682	-1.226097	0.685461
H	-1.007115	-1.005544	1.49835
H	0.397934	-1.682419	1.008286
F	2.663935	0.0	0.0
