12

C	-0.451958	0.123512	-1.45013
C	0.0	0.0	0.0
Cl	-0.116586	-1.380797	-2.374903
H	1.092184	0.0	0.0
H	0.137709	0.915163	-1.912889
H	-0.416051	-0.918105	0.435187
C	-1.876242	0.432127	-1.579617
N	-3.022261	0.681948	-1.644493
N	-0.410781	1.231958	0.677917
H	-1.209069	1.090993	1.281902
H	0.376387	1.537777	1.234909
F	2.660715	0.0	0.0
