12

C	-0.355291	-0.022071	-1.490714
C	0.0	0.0	0.0
Cl	0.222794	-1.531401	-2.282848
H	1.093019	0.0	0.0
H	0.179132	0.796408	-1.979969
H	-0.369384	0.960946	0.383581
C	-1.789744	0.096028	-1.761878
N	-2.944371	0.224261	-1.948655
N	-0.516444	-1.100068	0.791113
H	0.109314	-1.882983	0.672952
H	-1.445712	-1.384018	0.506857
F	2.656521	0.0	0.0
