12

C	-0.352646	-0.002468	-1.492755
C	0.0	0.0	0.0
Cl	0.218238	-1.502913	-2.303526
H	1.093025	0.0	0.0
H	0.186131	0.819403	-1.969006
H	-0.368493	0.95761	0.392369
C	-1.786416	0.121683	-1.757277
N	-2.948561	0.231464	-1.895436
N	-0.522688	-1.105271	0.777626
H	0.09354	-1.895861	0.64569
H	-1.459075	-1.373155	0.496004
F	2.656074	0.0	0.0
