15

C	-0.602191	0.0528	-1.3884
C	0.0	0.0	0.0
F	-0.407908	-1.140637	-2.003392
H	1.08653	0.0	0.0
H	-1.666739	0.28642	-1.374504
N	0.057619	1.122624	-2.227671
O	-0.087125	1.00076	-3.437555
O	0.614565	2.036677	-1.637944
N	-0.5251	-1.263396	0.624673
O	-1.728774	-1.259702	0.891371
O	0.251445	-2.191388	0.783211
N	-0.516502	1.0996	0.861845
O	-1.344082	1.87677	0.388331
O	-0.083477	1.117489	2.007115
Cl	3.168879	0.0	0.0
