15

C	-0.405207	0.025222	-1.462191
C	0.0	0.0	0.0
F	-0.021978	1.192875	-2.034565
H	1.09056	0.0	0.0
H	0.044471	-0.815498	-1.986392
N	-1.892503	-0.070194	-1.697447
O	-2.273161	-0.862892	-2.553313
O	-2.593921	0.709065	-1.057213
N	-0.423401	-1.270476	0.641234
O	-0.062467	-1.446188	1.796694
O	-1.063483	-2.067574	-0.050979
N	-0.530157	1.152294	0.787855
O	-1.417086	0.939555	1.608883
O	-0.025189	2.235527	0.520339
Cl	3.114953	0.0	0.0
