15

C	-0.438658	0.100154	-1.446093
C	0.0	0.0	0.0
F	-0.006176	1.222701	-2.056003
H	1.105804	0.0	0.0
H	-0.063965	-0.775092	-1.977732
N	-1.945055	0.060568	-1.611049
O	-2.602567	0.895769	-1.003326
O	-2.382077	-0.797509	-2.378267
N	-0.529057	-1.306142	0.498825
O	-1.693057	-1.32864	0.897109
O	0.219843	-2.272523	0.394707
N	-0.408974	1.111198	0.908043
O	-0.570275	0.828451	2.089262
O	-0.4206	2.234349	0.420193
Cl	3.123537	0.0	0.0
