15

C	-0.536807	-0.044763	-1.419503
C	0.0	0.0	0.0
F	0.003179	-1.083703	-2.081386
H	1.105998	0.0	0.0
H	-1.626306	-0.096111	-1.457241
N	-0.152934	1.222788	-2.172649
O	0.253147	1.087977	-3.315816
O	-0.361339	2.278146	-1.585003
N	-0.468192	-1.205223	0.762997
O	-1.086921	-2.082755	0.164616
O	-0.184401	-1.205244	1.95581
N	-0.586667	1.143974	0.764752
O	-1.818933	1.17477	0.783844
O	0.168733	1.920972	1.326227
Cl	3.151303	0.0	0.0
