15

C	-0.576316	0.064253	-1.399975
C	0.0	0.0	0.0
F	-0.489411	-1.15535	-1.981829
H	1.106293	0.0	0.0
H	-1.610985	0.404728	-1.411858
N	0.209713	1.050066	-2.233972
O	0.347035	0.782566	-3.419363
O	0.576654	2.061197	-1.652218
N	-0.538277	-1.255553	0.624109
O	-1.759194	-1.27395	0.798038
O	0.247272	-2.151642	0.891274
N	-0.513732	1.10093	0.869894
O	-0.036806	1.135575	1.998604
O	-1.386964	1.848532	0.43057
Cl	3.160098	0.0	0.0
