15

C	-0.516424	0.017347	-1.420982
C	0.0	0.0	0.0
F	-1.798037	0.451344	-1.516337
H	1.087014	0.0	0.0
H	0.129796	0.661124	-2.020614
N	-0.433951	-1.358926	-2.042526
O	-1.248876	-1.606572	-2.921176
O	0.482506	-2.073584	-1.658308
N	-0.550238	-1.113005	0.813362
O	0.047395	-1.37824	1.848475
O	-1.574128	-1.658608	0.40059
N	-0.423324	1.293886	0.631378
O	-1.017014	1.265991	1.701558
O	-0.106975	2.2946	-0.002186
Cl	3.134865	0.0	0.0
