15

C	-0.433223	-0.058675	-1.446974
C	0.0	0.0	0.0
F	0.068949	0.995154	-2.11849
H	1.090369	0.0	0.0
H	-0.073404	-0.990216	-1.88528
N	-1.939172	-0.065756	-1.631418
O	-2.551316	-0.82552	-0.888634
O	-2.408746	0.618429	-2.525534
N	-0.426894	-1.226009	0.742681
O	-1.020744	-1.099942	1.803756
O	-0.10513	-2.279304	0.206017
N	-0.502875	1.205666	0.703651
O	0.058182	1.492394	1.754428
O	-1.444745	1.813712	0.1895
Cl	3.121672	0.0	0.0
