16

C	0.0	0.0	0.0
C	-0.510603	0.275675	-1.394093
F	1.354371	0.0	0.0
H	-0.115312	1.235077	-1.724916
H	-0.372047	-0.924905	0.436104
N	-0.39934	1.119504	0.935329
O	-0.41165	2.257601	0.474294
O	-0.579594	0.806605	2.108492
C	-2.018556	0.188442	-1.520646
H	-2.313897	0.441437	-2.539223
H	-2.385228	-0.806466	-1.27705
H	-2.532712	0.87228	-0.846536
N	0.120893	-0.746229	-2.288716
O	0.094221	-1.917621	-1.912015
O	0.582809	-0.35205	-3.357656
Br	-5.084889	0.0	0.0
