16

C	0.0	0.0	0.0
C	-0.579982	0.088136	-1.397044
F	1.357658	0.0	0.0
H	-1.63616	0.354312	-1.29316
H	-0.393267	-0.867874	0.526353
N	-0.363964	1.19427	0.845369
O	-0.364975	2.28597	0.283533
O	-0.521689	0.98612	2.043965
C	-0.425374	-1.242725	-2.112907
H	-0.788724	-1.154565	-3.139535
H	0.617997	-1.563841	-2.128332
H	-1.045575	-1.980758	-1.601228
N	0.063913	1.149852	-2.235857
O	1.273293	1.056315	-2.455456
O	-0.672103	2.006361	-2.718373
Br	-3.652419	0.0	0.0
