16

C	0.0	0.0	0.0
C	-0.395714	0.42511	-1.430568
F	1.356397	0.0	0.0
H	0.567876	0.422899	-1.954648
H	-0.395959	-0.968107	0.280789
N	-0.346532	0.932983	1.132011
O	-0.558037	0.387354	2.210292
O	-0.231908	2.142015	0.950292
C	-1.071473	1.750202	-1.712506
H	-2.010429	1.819847	-1.171162
H	-1.262358	1.810455	-2.784023
H	-0.398641	2.556563	-1.422954
N	-1.081358	-0.74067	-2.126894
O	-0.738772	-1.867181	-1.776609
O	-1.790512	-0.490954	-3.091156
Br	-3.390693	0.0	0.0
