14

C	0.0	0.0	0.0
C	-0.548897	0.070572	-1.410553
Cl	1.811097	0.0	0.0
H	-0.455608	1.113812	-1.720597
H	-1.641479	-0.130714	-1.258676
N	-0.597977	0.987792	0.767103
H	-1.64403	0.799448	0.606024
H	-0.391807	0.82161	1.747187
N	-0.283975	-1.43528	0.584627
O	-0.296601	-1.51472	1.80813
O	-0.43774	-2.365264	-0.195078
C	0.059539	-0.784642	-2.41353
N	0.483562	-1.427553	-3.300402
H	-2.922185	0.0	0.0
