14

C	0.0	0.0	0.0
C	-0.530831	-0.122212	-1.415489
Cl	1.81127	0.0	0.0
H	-1.622236	-0.308665	-1.259856
H	-0.432899	0.871275	-1.858635
N	-0.595964	1.089382	0.615264
H	-1.642594	0.876769	0.48544
H	-0.383128	1.071943	1.607535
N	-0.294122	-1.337407	0.773607
O	-0.317351	-1.247286	1.996078
O	-0.445505	-2.365155	0.127369
C	0.104912	-1.095526	-2.286398
N	0.564408	-1.839247	-3.071131
H	-2.913622	0.0	0.0
