14

C	0.0	0.0	0.0
C	-0.565847	-0.052795	-1.407904
Cl	1.766691	0.0	0.0
H	-0.474212	0.958268	-1.810156
H	-1.657001	-0.236799	-1.230326
N	-0.598904	1.056347	0.679453
H	-0.379087	0.985839	1.668026
H	-1.640492	0.857093	0.550316
N	-0.298953	-1.378824	0.71222
O	-0.313434	-1.347404	1.938163
O	-0.437583	-2.378432	0.020594
C	0.038952	-0.993129	-2.335621
N	0.481278	-1.706324	-3.158742
H	-2.9456	0.0	0.0
