17

C	0.0	0.0	0.0
C	-0.247656	0.262243	-1.510452
F	1.360152	0.0	0.0
H	0.352362	-0.516711	-1.988764
N	-0.412186	1.202606	0.82771
O	-1.164089	2.017701	0.308295
O	0.053	1.232917	1.963286
C	-0.62311	-1.233116	0.565259
H	-0.354896	-2.095979	-0.045317
H	-0.260591	-1.364824	1.585652
H	-1.714715	-1.103477	0.557868
C	0.294799	1.55215	-1.93041
N	0.812769	2.53514	-2.309588
N	-1.616048	0.040776	-2.118942
O	-2.225648	1.01406	-2.528503
O	-1.916463	-1.140203	-2.230442
Cl	-3.919099	0.0	0.0
