17

C	0.0	0.0	0.0
C	-0.637044	-0.091087	-1.375952
F	1.354849	0.0	0.0
H	-1.735219	0.043785	-1.218694
N	-0.374295	1.355013	0.625215
O	-1.059987	2.137621	-0.017536
O	0.08824	1.54418	1.746294
C	-0.496106	-1.096612	0.909734
H	-0.147146	-2.056403	0.526026
H	-1.588448	-1.077701	0.947378
H	-0.072736	-0.923516	1.898903
C	-0.368755	-1.388482	-1.980555
N	-0.110029	-2.439922	-2.435196
N	-0.176023	0.950325	-2.368828
O	0.726776	1.71529	-2.047944
O	-0.754794	0.924513	-3.449234
Cl	-3.634372	0.0	0.0
