17

C	0.0	0.0	0.0
C	-0.659718	-0.128307	-1.369361
F	1.350358	0.0	0.0
H	-1.741729	0.074037	-1.20042
N	-0.294905	1.461351	0.489152
O	0.642322	2.251158	0.423277
O	-1.412057	1.688035	0.91937
C	-0.59542	-0.955698	0.987367
H	-1.681686	-0.815783	0.982134
H	-0.184848	-0.75337	1.97872
H	-0.351676	-1.980119	0.698812
C	-0.463261	-1.461606	-1.920469
N	-0.335613	-2.552083	-2.336263
N	-0.106537	0.897899	-2.322011
O	-0.586792	2.022191	-2.230557
O	0.78402	0.545515	-3.090051
Cl	-3.831089	0.0	0.0
