17

C	0.0	0.0	0.0
C	-0.630327	0.388428	-1.327975
F	1.354158	0.0	0.0
H	-1.729476	0.459244	-1.145575
N	-0.369217	1.070596	1.040659
O	0.163776	0.921661	2.136156
O	-1.133112	1.969956	0.718849
C	-0.514355	-1.326857	0.490723
H	-0.183403	-2.112887	-0.190346
H	-1.606214	-1.297321	0.536538
H	-0.090753	-1.504658	1.479154
C	-0.344585	-0.616048	-2.343764
N	-0.084057	-1.438287	-3.140969
N	-0.167089	1.715647	-1.884405
O	-0.728778	2.069414	-2.914955
O	0.721822	2.322797	-1.299124
Cl	-3.666927	0.0	0.0
