17

C	0.0	0.0	0.0
C	-0.314115	-0.315605	-1.480879
F	1.367894	0.0	0.0
H	0.071961	0.529047	-2.050664
N	-0.377426	1.456463	0.286554
O	-0.441539	1.773657	1.467861
O	-0.468351	2.218102	-0.671568
C	-0.490132	-0.920115	1.068334
H	-0.039338	-0.613603	2.011652
H	-1.57737	-0.840318	1.107608
H	-0.18294	-1.934618	0.820212
C	-1.629208	-0.665978	-2.01914
N	-2.301892	-1.059418	-2.905448
N	0.606012	-1.464656	-1.87732
O	1.530652	-1.187963	-2.634117
O	0.352553	-2.574801	-1.429223
Cl	-3.424099	0.0	0.0
