17

C	0.0	0.0	0.0
C	-0.217766	-0.070632	-1.538927
F	1.366125	0.0	0.0
H	0.339276	-0.972496	-1.807253
N	-0.397338	1.34887	0.574761
O	-0.15158	1.488917	1.768361
O	-0.871277	2.185871	-0.182475
C	-0.603783	-1.108824	0.791012
H	-0.25621	-1.03735	1.821574
H	-1.696118	-0.997301	0.747119
H	-0.311471	-2.066958	0.358132
C	0.413461	1.045768	-2.239017
N	1.005766	1.84277	-2.865205
N	-1.584309	-0.340341	-2.129762
O	-1.917971	-1.517631	-2.086012
O	-2.166763	0.58585	-2.66787
Cl	-3.788828	0.0	0.0
