17

C	0.0	0.0	0.0
C	-0.633923	-0.028621	-1.383097
F	1.354749	0.0	0.0
H	-1.731914	0.093677	-1.226901
N	-0.371708	1.333859	0.669957
O	-1.037226	2.146866	0.042566
O	0.071548	1.477567	1.80471
C	-0.504418	-1.128985	0.858634
H	-0.139176	-2.072459	0.448961
H	-0.102066	-0.991104	1.862104
H	-1.596308	-1.116829	0.877092
C	-0.352336	-1.293939	-2.048183
N	-0.093116	-2.316462	-2.564235
N	-0.175394	1.061953	-2.324295
O	-0.816045	1.146885	-3.364909
O	0.790889	1.746023	-2.010283
Cl	-3.631071	0.0	0.0
