18

C	0.0	0.0	0.0
C	-0.448027	-0.087826	-1.492666
Br	1.963234	0.0	0.0
H	0.419424	0.177035	-2.107724
C	-0.386952	1.217766	0.715363
N	-0.515705	2.124934	1.452769
C	-0.386466	-1.193611	0.88933
H	0.041544	-1.034391	1.881455
H	0.014678	-2.123883	0.485096
H	-1.479032	-1.168809	0.912851
N	-1.418526	0.995487	-1.902469
O	-1.113027	2.1374	-1.572835
O	-2.307094	0.710945	-2.693329
C	-0.971579	-1.446883	-1.892698
H	-1.201259	-1.450139	-2.958441
H	-0.214488	-2.212451	-1.702366
H	-1.879261	-1.617153	-1.315942
F	-2.537696	0.0	0.0
