18

C	0.0	0.0	0.0
C	-0.417305	-0.005804	-1.519009
Br	1.979947	0.0	0.0
H	0.511695	-0.015405	-2.097632
C	-0.413709	1.169128	0.774098
N	-0.604084	2.053313	1.526019
C	-0.427672	-1.253943	0.763232
H	-0.019813	-2.151341	0.295698
H	-1.525437	-1.205938	0.733235
H	-0.050401	-1.190573	1.786977
N	-0.995985	1.328232	-1.924595
O	-0.346784	2.315843	-1.579232
O	-1.979586	1.356661	-2.651544
C	-1.305234	-1.144205	-1.979854
H	-0.808567	-2.098114	-1.779937
H	-2.237182	-1.038148	-1.414664
H	-1.462394	-1.058297	-3.054963
F	-2.664891	0.0	0.0
