18

C	0.0	0.0	0.0
C	-0.61307	-0.063749	-1.406184
Br	1.964464	0.0	0.0
H	-1.707288	-0.186577	-1.112358
C	-0.379515	1.285251	0.595523
N	-0.571007	2.331222	1.096354
C	-0.462429	-1.127304	0.924663
H	-0.08474	-0.944477	1.933357
H	-0.092086	-2.08701	0.567353
H	-1.557828	-1.069725	0.880805
N	-0.135518	-1.286165	-2.109865
O	0.658232	-1.158057	-3.047486
O	-0.574938	-2.373868	-1.730179
C	-0.374827	1.165104	-2.252413
H	0.686119	1.399165	-2.363355
H	-0.79789	1.014991	-3.247578
H	-0.89276	2.00506	-1.787058
F	-2.82774	0.0	0.0
