16
Coordinates from ORCA-job run
  C   -0.55903201898964      0.35847241588095     -0.39377713312363
  C   0.59506893237899     -0.20118532436832      0.46313541991696
  Br  -0.10207750744642      0.18259460285843     -2.30007648545358
  H   0.34544994775024     -0.00711422261154      1.51017284725671
  C   -0.79438719489057      1.77606710134534     -0.13608608744614
  N   -1.08436579296651      2.89554815995709      0.07621650530819
  C   -1.83942117953181     -0.42837107124574     -0.12150264891861
  H   -2.65655713503474     -0.02390877249681     -0.71914999068600
  H   -1.68376305142568     -1.47826993486441     -0.35976153386704
  H   -2.09614747756150     -0.33546001221632      0.93783993144347
  N   1.85623210520801      0.64837554146170      0.23298440934162
  O   1.87280457823022      1.75016839511300      0.77345058530109
  O   2.74243070361262      0.15998377971782     -0.46055836143348
  N   0.79365842938831     -1.58195565064316      0.24018166771557
  H   1.41607888238698     -1.97339807646459      0.93474423101123
  H   1.19102777889150     -1.74154693142346     -0.67781335636637
