16
Coordinates from ORCA-job run
  C   -0.65318877057657      0.02890713594048     -0.55856890896559
  C   0.67846688578007     -0.60468754562322     -0.10025102589703
  Br  -1.22881829780675     -0.98048802528478     -2.14059515522232
  H   0.53624241886067     -1.67969930782062      0.01453748365709
  C   -0.43598421117380      1.40998004944547     -0.97908807411299
  N   -0.26265821023965      2.52934539818131     -1.29429772391868
  C   -1.75369477562605     -0.04862334017339      0.49556630596576
  H   -1.87593085701524     -1.07874804671861      0.83435525430260
  H   -1.50317679142737      0.58381178103853      1.35015148235352
  H   -2.69376898728560      0.30130282077529      0.06914828020765
  N   0.91769753851690     -0.10843699967509      1.33313907804996
  O   0.61091626512644     -0.86855656557260      2.24795450550689
  O   1.37950076069334      1.02450489787176      1.44975871706992
  N   1.74189924205162     -0.31099955569616     -0.97904967615237
  H   1.98232205612776      0.67308839741417     -0.95967267730485
  H   2.56117573399425     -0.86970109410253     -0.78308786553956
