16
Coordinates from ORCA-job run
  C   -0.53574731055205      0.38536830966441     -0.40099225013639
  C   0.56485749498424     -0.23377557839780      0.48501746427537
  Br  0.05264043840668      0.37203990959615     -2.27898803521987
  H   0.24117617492367     -0.12944037641179      1.52453410936748
  C   -0.80786117043085      1.77469953589731     -0.04445196156396
  N   -1.12588266195271      2.87052945316025      0.23913441756685
  C   -1.82054135967277     -0.43203569589270     -0.28342801008222
  H   -1.63460140613258     -1.45698273192930     -0.59680245044362
  H   -2.14954716950240     -0.43054573896436      0.75988219031827
  H   -2.60092640504033      0.01431779973559     -0.90008069956193
  N   1.82667509825620      0.64220462074182      0.41369883187944
  O   2.76467138999574      0.22082893570258     -0.25528459186871
  O   1.79129316274510      1.69475035698124      1.04399219829920
  N   0.79737798860847     -1.58967636699755      0.16349935495047
  H   1.37637774302064     -2.03222186196560      0.86493258033472
  H   1.25903799234298     -1.66906057092025     -0.73466314811510
