14

C	0.0	0.0	0.0
C	-0.449535	-0.066121	-1.488147
Cl	1.78298	0.0	0.0
H	0.251723	0.565998	-2.042131
H	-0.354284	-0.86832	0.558032
C	-0.448045	1.234614	0.642274
N	-0.721025	2.27222	1.120349
C	-1.880975	0.415637	-1.739736
H	-2.600343	0.081535	-0.988271
H	-1.903725	1.504872	-1.740873
H	-2.246473	0.05244	-2.702246
C	-0.225841	-1.434397	-1.962221
N	-0.036926	-2.519514	-2.368354
Cl	-4.775917	0.0	0.0
