14

C	0.0	0.0	0.0
C	-0.550345	-0.172231	-1.422424
Cl	1.782268	0.0	0.0
H	-1.629201	0.035501	-1.311027
H	-0.365985	-0.820066	0.617443
C	-0.405197	1.275604	0.597706
N	-0.587158	2.323216	1.09572
C	-0.382919	-1.606966	-1.917091
H	-0.756027	-1.696108	-2.939267
H	-0.98245	-2.261535	-1.28082
H	0.66248	-1.923947	-1.896583
C	0.046322	0.789321	-2.344008
N	0.524473	1.524281	-3.125922
Cl	-3.398906	0.0	0.0
