14

C	0.0	0.0	0.0
C	-0.550645	-0.178741	-1.421143
Cl	1.782427	0.0	0.0
H	-1.626848	0.045637	-1.313355
H	-0.36964	-0.814843	0.621866
C	-0.40347	1.279939	0.589687
N	-0.577017	2.335348	1.073853
C	-0.405695	-1.621538	-1.897775
H	0.632258	-1.958966	-1.859624
H	-1.027336	-2.257202	-1.263147
H	-0.765246	-1.716825	-2.923993
C	0.059892	0.7639	-2.352506
N	0.544578	1.485477	-3.142908
Cl	-3.395563	0.0	0.0
