15

C	0.0	0.0	0.0
C	-0.523458	0.043808	-1.433173
Br	1.967079	0.0	0.0
H	-1.630337	0.061348	-1.291788
H	-0.212021	0.967581	-1.929264
C	-0.428458	1.278979	0.712509
H	-0.029039	2.173874	0.225268
H	-1.527082	1.275162	0.68591
H	-0.08494	1.261966	1.750603
N	-0.510667	-1.20095	0.599692
H	-0.303361	-1.182009	1.594658
H	-1.541531	-1.093184	0.508784
C	-0.137681	-1.097646	-2.249398
N	0.137136	-1.995675	-2.953979
H	-3.093778	0.0	0.0
