15

C	0.0	0.0	0.0
C	-0.499471	-0.00505	-1.452907
Br	1.97222	0.0	0.0
H	-0.152455	0.87379	-2.004401
H	-1.606938	0.036414	-1.318001
C	-0.449654	1.292796	0.655889
H	-0.112253	1.308565	1.693286
H	-1.54822	1.282429	0.619182
H	-0.054041	2.163572	0.127264
N	-0.505982	-1.099112	0.769234
H	-1.535833	-0.949383	0.738606
H	-0.312809	-1.970592	0.282407
C	-0.1405	-1.21312	-2.180245
N	0.143661	-2.198091	-2.754611
H	-3.088877	0.0	0.0
