15

C	0.0	0.0	0.0
C	-0.616963	0.042092	-1.381744
Br	2.030197	0.0	0.0
H	-0.392013	-0.867237	-1.947165
H	-1.730826	0.041246	-1.115825
C	-0.466535	1.179125	0.81859
H	-1.568838	1.102429	0.807788
H	-0.136424	2.121037	0.378066
H	-0.0872	1.115658	1.841866
N	-0.412289	-1.207612	0.611024
H	-0.052226	-2.021644	0.12942
H	-0.151676	-1.243111	1.587435
C	-0.250125	1.209646	-2.162892
N	0.028262	2.162468	-2.792416
H	-3.220378	0.0	0.0
