15

C	0.0	0.0	0.0
C	-0.60159	-0.07037	-1.387968
Br	2.039525	0.0	0.0
H	-0.343237	0.81138	-1.979201
H	-1.71655	-0.064213	-1.134755
C	-0.476257	1.259149	0.68086
H	-0.111252	1.309132	1.710266
H	-0.139555	2.148714	0.144378
H	-1.57918	1.174337	0.664725
N	-0.411625	-1.132827	0.730276
H	-0.131332	-1.089019	1.699632
H	-0.112284	-2.003618	0.312632
C	-0.249886	-1.279025	-2.112806
N	0.034809	-2.269982	-2.677625
H	-3.209613	0.0	0.0
