15

C	0.0	0.0	0.0
C	-0.493825	-0.012387	-1.454526
Br	1.97351	0.0	0.0
H	-0.131155	0.857681	-2.012428
H	-1.599795	0.040059	-1.328488
C	-0.442483	1.295293	0.655471
H	-0.095733	1.30989	1.689966
H	-1.541023	1.290495	0.626746
H	-0.044498	2.163109	0.123537
N	-0.500868	-1.098429	0.773265
H	-0.289504	-1.972112	0.297392
H	-1.531386	-0.960394	0.734652
C	-0.132698	-1.229746	-2.166677
N	0.155667	-2.221932	-2.726251
H	-3.089487	0.0	0.0
