15

C	0.0	0.0	0.0
C	-0.527037	0.086857	-1.430866
Br	1.969084	0.0	0.0
H	-1.635059	0.104539	-1.282206
H	-0.254804	-0.822609	-1.971666
C	-0.418596	1.231699	0.793679
H	-0.018955	2.154723	0.366091
H	-0.071471	1.143255	1.827538
H	-1.51693	1.232711	0.770926
N	-0.51868	-1.234138	0.526396
H	-0.312853	-1.268097	1.520861
H	-1.550906	-1.101484	0.441402
C	-0.09496	1.261715	-2.16868
N	0.250802	2.213983	-2.761935
H	-3.08458	0.0	0.0
