16

C	0.0	0.0	0.0
C	-0.400617	-0.308087	-1.509834
Br	1.934159	0.0	0.0
H	0.519938	-0.206399	-2.0918
H	-0.378062	-0.717491	0.717486
N	-0.393969	1.34183	0.532855
O	-0.315956	2.305108	-0.225847
O	-0.680215	1.402715	1.722214
N	-1.40955	0.499639	-2.150772
H	-2.187571	0.463945	-1.460184
H	-1.072867	1.453349	-2.18993
C	-0.854625	-1.763927	-1.513869
H	-0.113625	-2.429282	-1.056247
H	-1.031468	-2.080271	-2.544538
H	-1.78745	-1.77899	-0.947848
F	-2.601456	0.0	0.0
