16

C	0.0	0.0	0.0
C	-0.396264	-0.015052	-1.540624
Br	1.944911	0.0	0.0
H	0.525587	0.191383	-2.090297
H	-0.372143	-0.843181	0.568142
N	-0.390515	1.213706	0.782738
O	-0.671614	1.042766	1.962445
O	-0.315974	2.305763	0.225272
N	-1.400712	0.903724	-2.017382
H	-1.064769	1.845605	-1.861165
H	-2.181851	0.73234	-1.350912
C	-0.851444	-1.442965	-1.822722
H	-0.10498	-2.180967	-1.506508
H	-1.031548	-1.555149	-2.894307
H	-1.781419	-1.569032	-1.266182
F	-2.59201	0.0	0.0
