16

C	0.0	0.0	0.0
C	-0.393765	-0.021853	-1.542755
Br	1.936194	0.0	0.0
H	0.52651	0.203185	-2.091375
H	-0.377412	-0.839523	0.570468
N	-0.402762	1.218795	0.76745
O	-0.718782	1.055041	1.938659
O	-0.309304	2.307767	0.205621
N	-1.411865	0.880608	-2.023979
H	-2.192777	0.699872	-1.35935
H	-1.090671	1.82826	-1.869879
C	-0.836431	-1.453662	-1.819952
H	-0.102247	-2.189062	-1.469662
H	-1.780935	-1.569876	-1.286289
H	-0.990936	-1.584925	-2.892296
F	-2.602158	0.0	0.0
