18

C	0.0	0.0	0.0
C	-0.432772	0.127785	-1.487302
Cl	1.780508	0.0	0.0
H	-1.425825	0.563917	-1.385368
N	-0.420766	1.21575	0.816342
O	-0.53037	2.276227	0.217635
O	-0.497828	1.06365	2.026952
C	-0.476845	-1.197729	0.679334
N	-0.594151	-2.241993	1.208708
C	-0.622336	-1.261487	-2.083153
H	0.277201	-1.882181	-1.996101
H	-0.866242	-1.168628	-3.147286
H	-1.456825	-1.742443	-1.574061
C	0.476123	0.983799	-2.366534
H	1.388365	0.462267	-2.670073
H	-0.086531	1.22818	-3.273249
H	0.749368	1.920874	-1.883419
F	-2.419857	0.0	0.0
