18

C	0.0	0.0	0.0
C	-0.358396	0.161935	-1.537975
Cl	1.772243	0.0	0.0
H	0.605982	0.29035	-2.039166
N	-0.393942	1.134354	0.936135
O	-0.297689	2.273219	0.499848
O	-0.62908	0.831005	2.095638
C	-0.460546	-1.251406	0.592437
N	-0.602102	-2.331964	1.035275
C	-1.203553	1.368113	-1.952862
H	-1.430895	1.246462	-3.018523
H	-2.119546	1.359016	-1.365967
H	-0.664098	2.306898	-1.827111
C	-0.97774	-1.131346	-2.07104
H	-1.940928	-1.250536	-1.580344
H	-1.098612	-1.042835	-3.15583
H	-0.347963	-2.003949	-1.876187
F	-2.369081	0.0	0.0
