14
Coordinates from ORCA-job run
  C   -0.57038070624753      1.30057830570172     -0.09561716729189
  C   0.00651570934893     -0.00824140776173      0.40166910103928
  F   -1.88370866639584      1.45196850805509      0.34092279605906
  H   -0.03188789994474      0.01981822571438      1.49761105295071
  H   -0.58207206528633      1.32942258179927     -1.19072016688534
  H   -0.00002402802336      2.15464418257934      0.28127822959707
  C   1.46398639180957     -0.12022605153139     -0.03832259140249
  H   2.06495836833777      0.71459259470263      0.33302329614075
  H   1.54060254806654     -0.13297190099906     -1.13010377653301
  H   1.91057020151699     -1.04449066202831      0.33513376248424
  C   -0.82319382088444     -1.19017466687895     -0.08770768017429
  H   -0.80048158556351     -1.24860881761797     -1.18087776640123
  H   -0.43207533124563     -2.13136631819919      0.30679578668307
  H   -1.86380911548841     -1.09394457353584      0.22491512373407
