18

C	0.0	0.0	0.0
C	-0.633629	0.321389	-1.406486
Cl	1.761565	0.0	0.0
H	-1.420902	1.034697	-1.170886
N	-0.303117	1.220116	0.890061
O	-0.227516	2.32386	0.352284
O	-0.509791	1.041615	2.082693
C	-0.516442	-1.239941	0.675656
H	-1.600654	-1.080841	0.752062
H	-0.296826	-2.086977	0.026041
H	-0.045189	-1.370115	1.64929
N	-1.224566	-0.902276	-1.926191
H	-1.520561	-0.658426	-2.866696
H	-2.082897	-0.939479	-1.34819
N	0.247959	0.899424	-2.399144
H	1.013721	0.258385	-2.572872
H	0.63627	1.75552	-2.024365
F	-2.907852	0.0	0.0
