18

C	0.0	0.0	0.0
C	-0.384766	-0.008172	-1.519137
Cl	1.769719	0.0	0.0
H	0.419225	-0.604282	-1.96867
N	-0.436133	1.256313	0.754372
O	0.028183	1.390645	1.883745
O	-1.259815	1.999759	0.240896
C	-0.596588	-1.156348	0.765266
H	-0.361988	-2.089134	0.252506
H	-0.202244	-1.169006	1.783127
H	-1.68489	-0.989385	0.747392
N	-0.185844	1.337109	-2.090859
H	-1.02778	1.866287	-1.900857
H	-0.118347	1.217318	-3.095714
N	-1.623351	-0.690971	-1.756751
H	-1.873772	-0.556735	-2.729892
H	-2.409387	-0.354576	-1.107046
F	-3.287617	0.0	0.0
