18

C	0.0	0.0	0.0
C	-0.58599	0.037327	-1.402223
Cl	1.775261	0.0	0.0
H	-1.664674	0.180955	-1.154974
N	-0.386834	1.296808	0.741297
O	-1.020939	2.160676	0.157835
O	-0.02298	1.367308	1.914185
C	-0.542266	-1.141458	0.825374
H	-0.171166	-1.066119	1.847318
H	-1.637817	-1.007181	0.760208
H	-0.235852	-2.081637	0.371181
N	-0.430406	-1.286942	-1.999229
H	-1.137905	-1.399218	-2.712599
H	0.48078	-1.364267	-2.438209
N	-0.031579	1.14788	-2.174585
H	-0.761786	1.544568	-2.752646
H	0.713657	0.813212	-2.776332
F	-2.958767	0.0	0.0
