18

C	0.0	0.0	0.0
C	-0.562291	0.080295	-1.494623
Cl	1.772427	0.0	0.0
H	-0.86903	-0.95207	-1.69535
N	-0.325393	1.341817	0.668614
O	-0.941204	1.342895	1.725018
O	0.065893	2.350268	0.081581
C	-0.654077	-1.109614	0.763465
H	-1.74131	-0.922703	0.672104
H	-0.385034	-2.058423	0.29362
H	-0.344627	-1.118945	1.809301
N	0.508055	0.412258	-2.444204
H	-0.005524	0.578186	-3.30438
H	0.877697	1.318025	-2.168878
N	-1.724528	0.89358	-1.692869
H	-1.501799	1.85671	-1.470182
H	-2.516189	0.555132	-1.053265
F	-3.354834	0.0	0.0
