18

C	0.0	0.0	0.0
C	-0.330859	0.018443	-1.564039
Cl	1.777698	0.0	0.0
H	0.004162	-1.002578	-1.829286
N	-0.38407	1.300859	0.692484
O	-0.592829	1.250959	1.900865
O	-0.399283	2.325437	0.018426
C	-0.660611	-1.148655	0.698814
H	-0.414528	-2.070812	0.167488
H	-0.339467	-1.224179	1.737114
H	-1.745714	-0.945793	0.634227
N	0.441882	0.916949	-2.423971
H	0.013072	1.825757	-2.307175
H	1.41821	0.969726	-2.164644
N	-1.702009	0.284818	-1.841446
H	-2.409761	0.176373	-1.043007
H	-1.992341	-0.275784	-2.629347
F	-3.350972	0.0	0.0
