13
Coordinates from ORCA-job run
  C   0.40174630047440     -0.29972887910090     -0.58024988208284
  C   -0.69943032376850     -0.34194931477703      0.50289713490815
  Cl  1.06440140171868     -1.94946799781546     -0.73120866775035
  H   -0.24653745401738     -0.71761769858737      1.42898132373191
  H   -0.06107974153390     -0.06170913888080     -1.54013514744328
  C   1.50339854474193      0.68433321108806     -0.24025082918771
  H   1.10913335912594      1.70201240224439     -0.20257176887813
  H   1.95385775758536      0.44004090789030      0.72435153448458
  H   2.28281589744937      0.64389599034909     -1.00153361740458
  C   -1.79553095000507     -1.24257829078033      0.12941212417641
  N   -2.67285764251753     -1.95830810809549     -0.17998974810505
  C   -1.22572679922231      1.00488655735687      0.75269705239898
  N   -1.61519035003100      2.09719035910868      0.93660049115190
