13
Coordinates from ORCA-job run
  C   0.38902252511209     -0.29397896234820     -0.59228493840342
  C   -0.70812070814437     -0.33354054492785      0.49483516626440
  Cl  0.99414108604753     -1.95950080248999     -0.80034448155951
  H   -0.26333702166202     -0.75110021022077      1.40667597409396
  H   -0.06924259741148     -0.00883181863485     -1.54149702127131
  C   1.52547881659508      0.63987107764799     -0.22558221522986
  H   2.29869927314704      0.60031416674659     -0.99339047531059
  H   1.97293129301319      0.34562238100057      0.72660177157441
  H   1.16649184093444      1.66849249336130     -0.14879596812477
  C   -1.83504781678990     -1.18613838812123      0.10118943029708
  N   -2.73757626108635     -1.86255643957769     -0.22376312209839
  C   -1.18931088772404      1.02142778984081      0.78831022073905
  N   -1.54312954203122      2.11891925772330      1.00904565902894
