13
Coordinates from ORCA-job run
  C   0.36518601944426      0.00508664429411     -0.69092976973248
  C   -0.86016361933295      0.27250488265811      0.20728883707374
  Cl  0.27066813758162     -1.65053939342351     -1.33909722480408
  H   -0.78089237664810      1.30880103461035      0.56279836712737
  H   0.29051705324172      0.67795123992920     -1.54844666918210
  C   1.66761399328908      0.21437290060379      0.05629577359034
  H   1.75767029350433     -0.49061922841659      0.88451043322921
  H   1.71821065235634      1.23426587138478      0.44838883673537
  H   2.51134184527158      0.06199827944905     -0.61738771981433
  C   -0.86588354851650     -0.60156601248336      1.38493671739029
  N   -0.84139001286084     -1.28133512215895      2.34153946908232
  C   -2.11823105145906      0.15503479484948     -0.53642735422473
  N   -3.11464738587147      0.09304410870355     -1.15346969647090
