13
Coordinates from ORCA-job run
  C   0.43406863299479      0.15509089719519     -0.63206167795492
  C   -0.89461770560877      0.18015625839073      0.15137941578705
  Cl  0.53427066181871     -1.35254416102291     -1.57384515896679
  H   -0.93283525305400      1.13398909482608      0.69481518652546
  H   0.39780865684799      0.97140498360033     -1.35730780589003
  C   1.63210956538799      0.29323463891245      0.28676159177541
  H   1.56375295594804      1.22275446568311      0.85929343235970
  H   2.55038692486988      0.31712603015207     -0.30071456552124
  H   1.68920128790189     -0.54832225947671      0.97930963907032
  C   -0.95526920113781     -0.89877247554470      1.14300764563407
  N   -0.98376139945920     -1.74066314967361      1.96040644248153
  C   -2.05641219551160      0.13349694239564     -0.74190724291251
  N   -2.97770293099793      0.13204873456235     -1.46913690238804
