13
Coordinates from ORCA-job run
  C   0.44759154389050     -0.18155205749491     -0.75743791473608
  C   -0.97656944050251     -0.35829591746433     -0.18406882371887
  Cl  1.06919672280648     -1.80294857925987     -1.16720049012658
  H   -1.56454704079725     -0.94742618121015     -0.89714593803360
  H   0.35097494540244      0.35855280386102     -1.70183681991571
  C   1.38785046329432      0.53403722161244      0.18939681252850
  H   0.99960533684928      1.52819053500794      0.42555559422909
  H   2.36737329362201      0.64772819272247     -0.27610864549956
  H   1.50953181739676     -0.03163471898245      1.11475902757068
  C   -1.61430571596574      0.95367169961591     -0.02649240334248
  N   -2.09158120308017      2.02241623003997      0.06565657174270
  C   -0.95701873769154     -1.07520780658862      1.09530374928101
  N   -0.92610198522459     -1.64753142185942      2.11961928002089
