13
Coordinates from ORCA-job run
  C   0.41032103792141      0.02687242742885     -0.66453252951504
  C   -0.88818976624479      0.21599369595460      0.14672640272136
  Cl  0.46743992875545     -1.63324263161363     -1.30577837689873
  H   -0.90136464324968      1.25582025893591      0.50071598430414
  H   0.35077902700156      0.69115818714318     -1.52992567421275
  C   1.64247002821720      0.32279515740537      0.16771106897419
  H   2.53855176449506      0.21949193254188     -0.44461237284496
  H   1.71903569855190     -0.36928374864791      1.00784091579904
  H   1.60210832322280      1.34644551606146      0.55077440746991
  C   -0.91713357787054     -0.65507166494535      1.32642218916090
  N   -0.91151373696113     -1.33056231238350      2.28616879641550
  C   -2.08255365020939      0.01618703644650     -0.68013898217645
  N   -3.03095043362985     -0.10760385432733     -1.36037182919711
