13
Coordinates from ORCA-job run
  C   0.42769435283370      0.29426642313430     -0.56608735656053
  C   -0.87768899070768     -0.29352355293569      0.01480766583902
  Cl  0.55785774571199     -0.26430280837082     -2.25559143646179
  H   -0.82687326556729     -1.38519047188410     -0.08289528264141
  H   0.33555575769065      1.38157698402294     -0.60436453331100
  C   1.64846787546427     -0.12829106027784      0.22705727975520
  H   1.59756028404728      0.26353357173286      1.24520358626479
  H   1.72365974780723     -1.21739770886600      0.26706451432832
  H   2.55019022526727      0.25949923322118     -0.24773171861106
  C   -2.06038695117322      0.17632400832338     -0.71483976994767
  N   -3.00423755459886      0.55817894786849     -1.29868009554388
  C   -1.00408659170213      0.04188216238427      1.43775029290018
  N   -1.06671263507322      0.31344427164702      2.57830685398983
