13
Coordinates from ORCA-job run
  C   0.50175698134291     -0.32305362550936     -0.48214521914085
  C   -0.72656764959099     -0.35171550359135      0.45472261499830
  Cl  1.32484654987485     -1.89882475054143     -0.32978476522400
  H   -0.36983727808813     -0.56261989272420      1.47057808730855
  H   0.15294054716895     -0.25324791382765     -1.51446180478247
  C   1.45424050409960      0.80666462522947     -0.14400533053541
  H   1.78923618879843      0.73022885856274      0.89285462008314
  H   0.96884559593069      1.77357512255694     -0.29211069432974
  H   2.33057458715542      0.75746881082673     -0.79078941070931
  C   -1.67714359741311     -1.40212557620061      0.07390269346098
  N   -2.43728519742913     -2.23877291856864     -0.24213162980450
  C   -1.40165575822767      0.95130502655144      0.45685960502547
  N   -1.91095147362181      2.00911773723592      0.44551123364985
