13
Coordinates from ORCA-job run
  C   0.44467717264804     -0.20417914572814     -0.75309618962446
  C   -0.97706506449090     -0.36483287919223     -0.16954164140060
  Cl  1.06609119082038     -1.83637456178931     -1.11821199793968
  H   -1.56660855837142     -0.97927161491330     -0.85953208236394
  H   0.34450378259816      0.30853369854846     -1.71228779116688
  C   1.38812108831039      0.53879489021832      0.16922278834312
  H   2.36556704773072      0.64004414438474     -0.30366581992350
  H   0.99996834447363      1.53898922610883      0.37900021868569
  H   1.51435335291825     -0.00065803120173      1.10964048271983
  C   -1.61663727132449      0.95060737297178     -0.05404927522117
  N   -2.09538984754494      2.02111408123621      0.00316809256957
  C   -0.95178745400964     -1.03790892203637      1.13338237770901
  N   -0.91679378375820     -1.57585825860728      2.17597083761299
