13
Coordinates from ORCA-job run
  C   0.43202005060912     -0.17577574653783     -0.76730150780371
  C   -0.98144681060528     -0.35269532242359     -0.16826405186299
  Cl  1.03983590311084     -1.79573546764451     -1.20348068464716
  H   -1.58592123441774     -0.93249336808952     -0.87518881282144
  H   0.31962007218772      0.37296809868505     -1.70498360321642
  C   1.39294476431920      0.52756244812001      0.16787726400989
  H   2.36315203853640      0.64411968259137     -0.31596838446847
  H   1.53195003754844     -0.04843349214472      1.08431345555504
  H   1.01215612675897      1.51989735126965      0.42263766644410
  C   -1.61079428175852      0.96011371327135      0.01401586957877
  N   -2.08328799119098      2.02947134000493      0.12242788678137
  C   -0.93958380053821     -1.08261804973541      1.10318753914851
  N   -0.88964487455995     -1.66738118736678      2.11972736330251
