15

C	-0.314136	0.023903	-1.470013
C	0.0	0.0	0.0
Cl	-2.096469	0.012404	-1.847744
H	1.095304	0.0	0.0
H	0.087045	-0.879362	-1.925992
C	0.267677	1.198788	-2.110658
N	0.691639	2.145336	-2.6609
N	-0.416835	-1.295866	0.556028
O	-0.755516	-1.338677	1.74203
O	-0.345446	-2.293266	-0.168518
C	-0.515244	1.164458	0.806357
H	-0.162638	2.088403	0.342605
H	-1.606872	1.186191	0.874784
H	-0.099088	1.116342	1.811314
F	2.490018	0.0	0.0
