15

C	-0.315829	0.033694	-1.468848
C	0.0	0.0	0.0
Cl	-2.098652	0.020401	-1.844835
H	1.095268	0.0	0.0
H	0.086063	-0.864705	-1.933093
C	0.262401	1.215177	-2.100954
N	0.681908	2.165788	-2.646902
N	-0.413664	-1.300755	0.547995
O	-0.741911	-1.352209	1.73683
O	-0.347159	-2.292741	-0.185538
C	-0.514848	1.157766	0.815275
H	-0.096979	1.102617	1.819088
H	-0.163339	2.084978	0.357952
H	-1.606331	1.178603	0.884882
F	2.491396	0.0	0.0
