15

C	-0.500555	-0.115671	-1.44114
C	0.0	0.0	0.0
Cl	-0.459032	1.479342	-2.278381
H	1.090937	0.0	0.0
H	-1.544224	-0.436223	-1.479258
C	0.289669	-1.050213	-2.243321
N	0.863089	-1.781119	-2.960855
N	-0.439755	-1.21558	0.708447
O	-0.829907	-2.180657	0.034006
O	-0.35937	-1.239904	1.936969
C	-0.452051	1.236205	0.748318
H	-0.164792	1.119441	1.791421
H	0.079515	2.098736	0.35063
H	-1.533004	1.413379	0.685968
F	2.50159	0.0	0.0
