15

C	-0.324196	0.028512	-1.467812
C	0.0	0.0	0.0
Cl	-2.110999	-0.026836	-1.830482
H	1.095225	0.0	0.0
H	0.096113	-0.859977	-1.935837
C	0.218499	1.225396	-2.103605
N	0.614251	2.189038	-2.646267
N	-0.404954	-1.304619	0.549219
O	-0.317289	-2.295759	-0.180615
O	-0.745676	-1.358321	1.73388
C	-0.523629	1.153201	0.816587
H	-0.106057	1.100235	1.820713
H	-1.615274	1.16544	0.88664
H	-0.179345	2.084186	0.360438
F	2.491522	0.0	0.0
