15

C	-0.392002	-0.010038	-1.488323
C	0.0	0.0	0.0
Br	-2.373401	0.010018	-1.709806
H	1.098235	0.0	0.0
C	0.107328	1.170394	-2.191981
N	0.481994	2.116022	-2.782043
C	0.075728	-1.227959	-2.14887
N	0.441168	-2.201621	-2.696973
C	-0.451639	-1.243877	0.760074
H	-1.53933	-1.328179	0.807525
H	-0.050644	-1.186287	1.773382
H	-0.030041	-2.134228	0.289197
C	-0.483198	1.222906	0.628393
N	-0.874139	2.190041	1.169694
Br	3.340801	0.0	0.0
