15

C	-0.454574	-0.003485	-1.477319
C	0.0	0.0	0.0
Br	0.25841	1.565949	-2.413561
H	1.09593	0.0	0.0
C	0.027739	-1.200557	-2.168328
N	0.398772	-2.15588	-2.74423
C	-1.915989	0.042341	-1.581514
N	-3.090421	0.06728	-1.63595
C	-0.469638	-1.26006	0.731987
H	-1.559511	-1.347243	0.75105
H	-0.033923	-2.142372	0.259368
H	-0.098631	-1.21762	1.757341
C	-0.503562	1.199858	0.659403
N	-0.936303	2.129419	1.233504
Br	3.374702	0.0	0.0
