15

C	-0.189969	0.090427	-1.522605
C	0.0	0.0	0.0
Cl	-1.820709	0.652395	-2.007245
H	1.095435	0.0	0.0
N	0.829592	0.925703	-1.996124
H	0.923968	0.909902	-3.00242
H	1.700634	0.693452	-1.476285
N	-0.043239	-1.350174	-2.121666
O	0.78859	-2.053914	-1.559927
O	-0.63044	-1.62235	-3.165107
C	-0.612971	-1.151859	0.629429
N	-1.098781	-2.071066	1.178155
C	-0.427304	1.235843	0.636148
N	-0.733922	2.223565	1.19403
F	2.524309	0.0	0.0
