15

C	-0.504145	0.032327	-1.436581
C	0.0	0.0	0.0
Cl	0.369528	-1.269592	-2.357783
H	1.093512	0.0	0.0
N	-1.908232	-0.03325	-1.549206
H	-2.260908	-0.84568	-1.060368
H	-2.191594	-0.049908	-2.519313
N	-0.085927	1.333314	-2.130171
O	0.770993	2.024166	-1.60688
O	-0.658271	1.559548	-3.192009
C	-0.462435	-1.23232	0.616175
N	-0.854305	-2.228008	1.105261
C	-0.497433	1.143544	0.750517
N	-0.866222	2.071967	1.370655
F	2.433822	0.0	0.0
