15

C	-0.494956	-0.004017	-1.43961
C	0.0	0.0	0.0
Cl	0.31608	-1.293432	-2.355673
H	1.093626	0.0	0.0
N	-1.894419	-0.150678	-1.563072
H	-2.178817	0.00823	-2.521942
H	-2.363606	0.50262	-0.946695
N	-0.020243	1.315743	-2.135826
O	0.859453	1.978792	-1.610583
O	-0.596455	1.576263	-3.190748
C	-0.421899	-1.223257	0.664618
N	-0.717049	-2.207418	1.235758
C	-0.530457	1.155608	0.70116
N	-0.976475	2.099691	1.243359
F	2.42895	0.0	0.0
