17
Coordinates from ORCA-job run
  C   0.97731854394023     -0.05201211819377      0.35030724568012
  C   -0.51219173804412      0.32019722167287      0.24763114244267
  Br  2.01834937097032      1.61830521502122      0.90343836976397
  H   -0.79853031589362      0.66923941615137      1.24898353216927
  C   1.52580429851560     -0.40631404230469     -0.95956653807447
  N   1.92959542628243     -0.70896950891958     -2.02093211588404
  N   1.18960066738694     -1.11315726585274      1.26213572088132
  H   0.83350393060009     -0.87547340726920      2.18057536105117
  H   2.16687226002853     -1.36767544371782      1.33381771233465
  C   -1.32690574461670     -0.92753877931363     -0.10597973329484
  H   -1.03776047391293     -1.30890589658676     -1.08935747460930
  H   -1.18984298048929     -1.72668447091279      0.62088137591729
  H   -2.38725096013652     -0.66674438332824     -0.14689985923600
  C   -0.78470058362021      1.43078449318079     -0.76151617028314
  H   -1.85667895185412      1.64002672313781     -0.78550982933942
  H   -0.26457185531670      2.35484854268669     -0.51248957679852
  H   -0.48361089383991      1.12207370454849     -1.76651916272074
