17
Coordinates from ORCA-job run
  C   0.92554749962175     -0.07398520940429      0.38407679111015
  C   -0.44840456731479     -0.10547021031440     -0.30852760109319
  Br  1.03675728424749      1.40598383668252      1.68103700307416
  H   -0.38464737676568     -0.98503596282291     -0.96883073495264
  C   1.98436770972089      0.19031915222908     -0.60513910601551
  N   2.83375909779324      0.31302987088906     -1.40991468532023
  N   1.14318207336437     -1.29715921134671      1.12500249023676
  H   1.10304655613818     -2.08309038459083      0.48223074719222
  H   2.05737281833546     -1.28850568667136      1.56385694329397
  C   -0.69929035342550      1.11806014859354     -1.18343125221680
  H   -0.76404309938915      2.02204409377404     -0.57401335165255
  H   0.08349370731668      1.25995754523194     -1.93158290410200
  H   -1.64915367994800      0.99890455799685     -1.70998121729028
  C   -1.58604706592525     -0.33072496240362      0.68286461296770
  H   -2.50476832382039     -0.55212474545193      0.13377344348375
  H   -1.75903027696675      0.56674150819847      1.28005250831224
  H   -1.37114200298255     -1.15794434058944      1.35852631297227
