17
Coordinates from ORCA-job run
  C   0.97601900930573     -0.16296602435062      0.23173289448440
  C   -0.44495023670573     -0.11055227382483     -0.35709669086249
  Br  1.25064568477579      1.45327047972796      1.45748835731344
  H   -0.44124072484776     -0.94496931809951     -1.07143265028128
  C   1.97557428468218      0.02706316846547     -0.82066323962855
  N   2.76719269733780      0.14440648229988     -1.68133815677203
  N   1.22959352462097     -1.38476128433129      0.89867608226364
  H   2.19098982313345     -1.45527696445640      1.20851991613857
  H   0.61354877863411     -1.50660967832304      1.69180922807940
  C   -0.72994962933123      1.17770501218599     -1.12190627821787
  H   -1.66051251649488      1.06278390387123     -1.68307269641272
  H   0.06231452247654      1.41400378441032     -1.83573145437259
  H   -0.84506450963790      2.02336389689813     -0.44221540491623
  C   -1.51968636205731     -0.38458442761836      0.69102255841021
  H   -1.47530251866737      0.34809751617914      1.50009639970960
  H   -2.50441899342540     -0.30916675126862      0.22436191031554
  H   -1.44475283379899     -1.38980752176544      1.11174922474896
