17
Coordinates from ORCA-job run
  C   1.01936612448223     -0.01433443286265      0.34155548932714
  C   -0.37852818275409     -0.11562901805720     -0.31430532746676
  Br  1.09253247614307      1.55929773571978      1.53458265325456
  H   -0.28208513302191     -0.99602331563497     -0.96853075734789
  C   2.02660566226357      0.20553776024644     -0.70337372531653
  N   2.79931731508342      0.33036126550342     -1.57999537711687
  N   1.44924393140371     -1.14641838275053      1.13253006240672
  H   1.47971971553841     -1.97787689710395      0.55049977809711
  H   0.81235876364560     -1.29919791215962      1.90459757036324
  C   -0.72355944415862      1.08654749207873     -1.18847874880916
  H   -1.64150213822723      0.88194371327886     -1.74512633438673
  H   0.06369303250935      1.30629563109073     -1.91260146140296
  H   -0.88942887352606      1.97625050461530     -0.57805189029477
  C   -1.48530019934910     -0.39635980902368      0.69684512154225
  H   -1.30256259768898     -1.30332782743275      1.27686659796683
  H   -1.60838001596486      0.44115158322872      1.38651241959273
  H   -2.43049043637851     -0.53721809073663      0.16747392959110
