17
Coordinates from ORCA-job run
  C   1.03723451847249      0.08144705296500      0.40753998222064
  C   -0.47768706811585      0.34479846939349      0.24450524963903
  Br  1.90836359505116      1.76113915935824      1.00694570688862
  H   -0.81505231764122      0.70563812470474      1.22532838165826
  C   1.62485491547467     -0.26701183949667     -0.88916294904377
  N   2.03246224227788     -0.58549725657207     -1.94454666977854
  N   1.41418282256170     -0.92826181993402      1.36484117600844
  H   1.21669817547261     -1.85491191334609      1.00612050558181
  H   0.91988246009314     -0.78519196114260      2.23841064810501
  C   -1.19867772735251     -0.96546931376147     -0.08042891108849
  H   -0.83623920542519     -1.38954708112747     -1.02185529963309
  H   -1.08296176058979     -1.71177078658223      0.70722351032845
  H   -2.26808382606925     -0.77458799530637     -0.19511868979293
  C   -0.79871605569451      1.39651715557037     -0.81346842893843
  H   -0.47627089392917      1.06135283483252     -1.80325886481074
  H   -1.87864118297296      1.55895755065843     -0.85208849261279
  H   -0.32134869161319      2.35239961978620     -0.59998685473148
