17
Coordinates from ORCA-job run
  C   1.02448794845727     -0.05013272200475      0.31801422877403
  C   -0.38974966980803     -0.09793003773838     -0.30740859262877
  Br  1.16856985566367      1.49652982095271      1.54006880627628
  H   -0.33459560712539     -0.96871196711089     -0.97908188985195
  C   2.01474144603813      0.16115361638676     -0.74456649401468
  N   2.78542569261751      0.26916693560943     -1.62513681732640
  N   1.43967944282819     -1.20954789492657      1.07660442584968
  H   1.43682456081605     -2.02876728878777      0.47673774383341
  H   0.81394886184102     -1.36214091365114      1.85777659187061
  C   -0.71726389907383      1.12965800079458     -1.15250326682344
  H   0.06018552495809      1.33885214036065     -1.89027457491543
  H   -0.84250927437383      2.01277572811599     -0.52316494922138
  H   -1.65295269842053      0.96263428440411     -1.69182493714655
  C   -1.48276558038311     -0.36396992318032      0.72258240123762
  H   -2.44176711528652     -0.47247358299324      0.21073918310300
  H   -1.56946934467526      0.46648672831465      1.42608446413372
  H   -1.31279014407343     -1.28358292454581      1.28635367685024
