13
Coordinates from ORCA-job run
  C   -0.54247932992666      0.00243572048725      0.02574451532560
  C   0.64519770042250     -0.55233484757046      0.29563466158086
  H   0.64413502078908     -1.49382547442965      0.83546803468156
  N   -0.74349567199691      1.20714478101315     -0.66512368495380
  H   -1.28266774183216      1.85195801245548     -0.09916506566777
  H   -1.27790309364297      1.04443165077928     -1.51071152961150
  N   -1.77390242001938     -0.71944789447236      0.49359108970569
  O   -1.65124705105222     -1.77092517451833      1.11111183203610
  O   -2.84758537434152     -0.18421846645564      0.21340038668572
  C   1.95081584910628      0.04780437121996     -0.10362186156778
  H   2.57706381296700      0.21213286202925      0.77821819338967
  H   1.80201562897039      0.99338057018319     -0.62156717765860
  H   2.49905267055657     -0.63853611072112     -0.75597939394575
