13
Coordinates from ORCA-job run
  C   -0.58047596449570     -0.04306624184803      0.06475918776581
  C   0.58690931439349     -0.68943964187723     -0.09387237298590
  H   0.58473522497644     -1.76874050685205     -0.01542580857782
  N   -0.80102565493480      1.31990928824925     -0.00283941277151
  H   -1.72935712235122      1.57464437644557      0.30062274271251
  H   -0.08019392297427      1.86982502290836      0.43818341985473
  N   -1.81648458658630     -0.83256046714612      0.27970990936126
  O   -2.83829129869100     -0.19403510894344      0.54492457498107
  O   -1.75773563651944     -2.05212879242519      0.18169084687420
  C   1.85544867041344      0.05619722630163     -0.36945543808832
  H   1.67050926372821      0.90982659870593     -1.02844909389146
  H   2.59118974903700     -0.59036050592165     -0.84890793435101
  H   2.31377196400415      0.43992875240298      0.55005937911644
