13
Coordinates from ORCA-job run
  C   -0.57831739532685     -0.06143808449431      0.07042074747760
  C   0.63351874226871     -0.63728509989730      0.14555529291792
  H   0.67956369562333     -1.69872301920515      0.35126792640574
  N   -0.86051120956122      1.26980865316580     -0.17301779415113
  H   -1.84408296835599      1.43216386923872     -0.33092102110590
  H   -0.27610282558912      1.68501109878954     -0.88192931504887
  N   -1.78352922047650     -0.88418641853920      0.32986824455170
  O   -2.87356558203565     -0.34232666885168      0.12919726124480
  O   -1.63446963899090     -2.03427427829927      0.72426343417987
  C   1.88521370475401      0.15969617169581     -0.05189044055014
  H   1.78552294739107      1.15708887048585      0.38674669142971
  H   2.12695469656968      0.28678065119290     -1.11408006078451
  H   2.73880505372944     -0.33331574528172      0.41451903343322
