13
Coordinates from ORCA-job run
  C   -0.58231215340858     -0.05290675618734      0.03471300219277
  C   0.61224450711881     -0.66135777685617      0.12720445684481
  H   0.63531953508118     -1.68418695846724      0.47983063441352
  N   -0.83624732681460      1.23595809570531     -0.39568978086497
  H   -1.79301927707638      1.51418223758309     -0.23493809755652
  H   -0.16920108980228      1.91381213693928     -0.06102752556868
  N   -1.80790358989451     -0.82026738400750      0.36080820516177
  O   -2.86556040900614     -0.18554111773091      0.38125171296144
  O   -1.70601744205476     -2.02017420343362      0.58525172695163
  C   1.87622554398864      0.04918460422197     -0.24487396789577
  H   2.66465024884292     -0.66231332257485     -0.49269418218736
  H   2.25164668460443      0.67418009037263      0.57442938955008
  H   1.71817476842128      0.69843035443535     -1.11126557400273
