13
Coordinates from ORCA-job run
  C   -0.58038883453833     -0.04638323581552      0.06725881918564
  C   0.60505293644556     -0.67915503421833      0.05054557984544
  H   0.62925344712479     -1.72108719903547      0.34167760922115
  N   -0.83402878544753      1.26874633832835     -0.27397550780507
  H   -1.76996056930120      1.55655990331367     -0.02911677004449
  H   -0.12874841121468      1.91464516583059      0.04520495459017
  N   -1.79935838739448     -0.80992892934763      0.42351566449455
  O   -2.83980592005002     -0.15886733776974      0.54907907856461
  O   -1.70961190250198     -2.02292218152622      0.56912787195095
  C   1.85760331188828      0.03331468214748     -0.35544813961284
  H   2.28061009188481      0.62112107141280      0.46826226274966
  H   1.66383078468363      0.71939325707083     -1.18562215201706
  H   2.62455223842115     -0.67443650039080     -0.67150927112270
