13
Coordinates from ORCA-job run
  C   -0.57633367600415     -0.01937963469835      0.10084063524604
  C   0.63397706491725     -0.53710619859214      0.37085471534242
  H   0.67956046401959     -1.43274060940949      0.97655799465742
  N   -0.85888157596392      1.11268558111733     -0.64090883490021
  H   -1.84572554477081      1.21186617357286     -0.82851143205412
  H   -0.29197695792823      1.20592821586914     -1.46942484728597
  N   -1.77864336981333     -0.65703485164501      0.68820780679314
  O   -2.87095912760436     -0.22465953706682      0.31129904561611
  O   -1.62518600865131     -1.55961482176013      1.50205887487608
  C   1.88492395700895      0.09920993433890     -0.14978664777381
  H   2.10607401296429     -0.21212487990031     -1.17785724952474
  H   1.79870499535899      1.18990916261489     -0.14533873290246
  H   2.74546576646704     -0.17593853444087      0.46100867191011
