13
Coordinates from ORCA-job run
  C   -0.58053823884243     -0.06031599766233      0.03811572150134
  C   0.62826685614474     -0.60037554542845      0.26737861731370
  H   0.67360542786138     -1.52236117798153      0.83229446508606
  N   -0.86283564110382      1.10131284757255     -0.65736072114995
  H   -0.22862950027239      1.85796392490423     -0.45284175288589
  H   -1.83214813319406      1.37052791532520     -0.57442234713851
  N   -1.78956078660836     -0.77815436740827      0.50950188524189
  O   -1.65739710471044     -1.89707814807993      0.98990774426161
  O   -2.86532459314012     -0.18822030928999      0.38001517985056
  C   1.87952572274071      0.05024255011357     -0.23391723621584
  H   2.24520216394656      0.81988091422582      0.45640912670596
  H   2.67938265841149     -0.68212574648812     -0.35010882846169
  H   1.71045116876673      0.52670314019724     -1.20397185410922
