13
Coordinates from ORCA-job run
  C   -0.52834663695933      0.40749205710178      0.10870109438798
  C   0.81079203580304      0.43343786847103      0.18604049931098
  H   1.19175984989431      1.39546561388506      0.51859907535243
  N   -1.34190230755987      1.51310131950594      0.41366275528686
  H   -1.70077527888841      1.94163370078340     -0.43145913215331
  H   -2.13336562931608      1.21550566724857      0.97083638152254
  N   -1.24117941614383     -0.84907137164962     -0.24932197375672
  O   -2.39199204715004     -0.96043903682479      0.17580353822527
  O   -0.65416082797053     -1.69058793978265     -0.92608006362398
  C   1.80313720546612     -0.64334529146204     -0.12478835006381
  H   1.92897902585920     -0.75641874612758     -1.20442943971380
  H   2.77108324583749     -0.39072414192337      0.30916145903068
  H   1.48697078112791     -1.61604969922573      0.25227415619488
