13
Coordinates from ORCA-job run
  C   -0.57299521965729     -0.12101055607749      0.00668280455746
  C   0.66767737992288     -0.52263828319476      0.33105088891276
  H   0.77134952948324     -1.41607095447235      0.93279450955683
  N   -0.92722809195012      0.97797394564283     -0.75340804053687
  H   -1.92017528218879      1.15761680458193     -0.73062869834237
  H   -0.37598566605671      1.79964764956189     -0.55984135618188
  N   -1.73010149178410     -0.94366069266553      0.43236193333206
  O   -1.51590852914884     -2.02867630570662      0.95894362952707
  O   -2.84961256434939     -0.47039103984499      0.22068671654325
  C   1.87360300896479      0.24074754416728     -0.12066690211886
  H   2.09081483158743      1.09106282965659      0.53704253842659
  H   1.73061934468015      0.63235359250964     -1.13227628138129
  H   2.75894275049675     -0.39595453415841     -0.12474174229476
