13
Coordinates from ORCA-job run
  C   -0.57571511851354      0.35898253890511     -0.12987269254419
  C   0.76703051821602      0.44904925922894     -0.07053812638347
  H   1.15748381646700      1.45579507947260     -0.20954395803361
  N   -1.48241230122055      1.36635171558077     -0.42748511737903
  H   -1.08347434063843      2.28923495947334     -0.34787700593772
  H   -2.34618497039297      1.27254921819123      0.08711494655088
  N   -1.26223419497107     -0.92699162611342      0.08047911927774
  O   -2.41924630860991     -0.86859113918765      0.50252217199422
  O   -0.65037201157044     -1.96479352573782     -0.15943911858479
  C   1.77319972378395     -0.64516881959988      0.13219924743219
  H   1.91774911278108     -1.23003604675802     -0.77962151499516
  H   1.47216829450670     -1.34819884176055      0.90968198302300
  H   2.73300778016214     -0.20918277169464      0.41338006557995
