13
Coordinates from ORCA-job run
  C   -0.61196324267172      0.30163304160361     -0.10882310607666
  C   0.64470955083347      0.19796134326090     -0.58295064296600
  H   0.86798481370373      0.86140489862996     -1.41679156325758
  N   -1.64739933275036      1.07678810089985     -0.61165525692046
  H   -2.25174038844763      1.43167850073251      0.11536096330379
  H   -1.32703518406758      1.80176340899170     -1.23534378331548
  N   -1.05976601514666     -0.49859805262975      1.04357582968540
  O   -0.49071110303970     -1.56215203107022      1.27604058398359
  O   -1.98269066456638     -0.02854470194422      1.71256434214582
  C   1.74614740721530     -0.71541977710573     -0.13220780111185
  H   1.59791976896477     -1.73378675593907     -0.50013659664924
  H   2.70066158189274     -0.35077228010054     -0.51487335803425
  H   1.81288280808002     -0.78195569532900      0.95424038921293
