13
Coordinates from ORCA-job run
  C   -0.51561123996458      0.43435746117111     -0.05088671660185
  C   0.82583166629004      0.44329363223776     -0.01887155300446
  H   1.23896258260577      1.44641369120173     -0.08443413241310
  N   -1.29452528115547      1.60110781675545     -0.14083112000918
  H   -2.05882631506324      1.45736503087587     -0.78913022649887
  H   -1.68968557214568      1.84403173550568      0.75979392351153
  N   -1.26445820832747     -0.85182240321232     -0.05964578131035
  O   -2.38293751659238     -0.82556528844357     -0.57526411177114
  O   -0.73517205662978     -1.84843388964075      0.42742708889714
  C   1.78280238581480     -0.70154615117947      0.10288585806575
  H   1.49727609261560     -1.54446252350363     -0.52672030658022
  H   1.81212880260364     -1.07820491525819      1.12826331932377
  H   2.78621465994875     -0.37553419650966     -0.17258624160902
