13
Coordinates from ORCA-job run
  C   -0.53300933914495      0.40447175045262     -0.09426464241841
  C   0.75332598320938      0.31538787393701     -0.46341199856906
  H   1.05766169975840      1.12772601387250     -1.11812304905223
  N   -1.38753970972744      1.43836159890279     -0.51860529686695
  H   -1.61472614289806      2.05478681146110      0.25330882281142
  H   -2.25690682169279      1.04715956178848     -0.86109127401727
  N   -1.15200794530096     -0.65481774879597      0.74844139636037
  O   -2.36814210001875     -0.80586542847993      0.62310488437308
  O   -0.43253028092070     -1.30815085776053      1.50105046428784
  C   1.78045287797057     -0.70924120233005     -0.09534002930077
  H   2.61462213287688     -0.66542194099707     -0.79632817417414
  H   1.37194554691711     -1.71968415269400     -0.09013214452723
  H   2.16685409897130     -0.52571227935694      0.91039104109335
