16

C	-0.382336	0.023982	-1.491628
C	0.0	0.0	0.0
Br	-0.280565	-1.950218	-2.110067
H	1.096062	0.0	0.0
N	-1.762203	0.370047	-1.720497
H	-1.817458	1.381856	-1.754061
H	-2.099357	-0.036727	-2.584136
N	0.558326	0.81522	-2.156061
H	0.451549	0.788898	-3.162509
H	1.519476	0.620837	-1.866762
C	-0.584558	-1.073902	0.78104
N	-1.042828	-1.939008	1.429803
N	-0.368029	1.29977	0.698433
O	-0.715777	2.267692	0.029912
O	-0.242401	1.290573	1.917981
Cl	3.207445	0.0	0.0
