16

C	-0.442929	0.049377	-1.463589
C	0.0	0.0	0.0
Br	0.048069	-1.951333	-2.184686
H	1.091425	0.0	0.0
N	-1.83093	0.211247	-1.610028
H	-2.103905	0.20683	-2.584709
H	-2.326171	-0.530068	-1.129064
N	0.322117	0.974414	-2.153448
H	1.308368	0.899951	-1.910289
H	0.185042	0.93957	-3.154044
C	-0.568748	-1.110293	0.744383
N	-1.030051	-2.009105	1.34415
N	-0.452936	1.295158	0.650614
O	-1.47447	1.263219	1.335079
O	0.231922	2.283637	0.42807
Cl	3.18763	0.0	0.0
