16

C	-0.389185	-0.034102	-1.50981
C	0.0	0.0	0.0
Br	-0.123219	1.883553	-2.188001
H	1.091565	0.0	0.0
N	0.489167	-0.957596	-2.083613
H	1.461245	-0.789528	-1.82703
H	0.361653	-1.013904	-3.083992
N	-1.735884	-0.356153	-1.873276
H	-2.374379	0.27955	-1.410456
H	-1.920968	-1.302708	-1.553509
C	-0.513801	-1.210155	0.627982
N	-0.962456	-2.186131	1.104214
N	-0.585322	1.170002	0.719362
O	-1.817784	1.238281	0.71934
O	0.175602	1.968082	1.247899
Cl	3.228233	0.0	0.0
