16

C	-0.332221	0.003618	-1.514844
C	0.0	0.0	0.0
Br	-2.287392	-0.245148	-1.776747
H	1.093209	0.0	0.0
N	0.001107	1.222366	-2.202547
H	-0.565341	1.996267	-1.876566
H	0.975553	1.431777	-1.996024
N	0.345245	-1.137612	-2.036513
H	0.293383	-1.099343	-3.047468
H	1.322175	-1.101811	-1.742269
C	-0.502646	-1.16599	0.704669
N	-0.912008	-2.099349	1.28786
N	-0.477354	1.23454	0.692649
O	0.228231	2.232374	0.550833
O	-1.534593	1.188049	1.32142
Cl	3.224853	0.0	0.0
