15

C	-0.548992	-0.0607	-1.422783
C	0.0	0.0	0.0
Br	0.271705	1.485702	-2.457402
H	1.092767	0.0	0.0
C	-0.07712	-1.265833	-2.107019
N	0.261534	-2.197845	-2.736204
N	-1.9713	-0.020141	-1.462957
H	-2.298187	0.840891	-1.038375
H	-2.315445	-0.073175	-2.414535
N	-0.355877	-1.247191	0.666517
H	-1.219698	-1.192902	1.189068
H	0.41579	-1.493052	1.273222
C	-0.528444	1.184821	0.667341
N	-0.999991	2.098096	1.242359
F	2.519684	0.0	0.0
