15

C	-0.439753	-0.021861	-1.434965
C	0.0	0.0	0.0
Br	-2.668441	-0.05845	-1.399918
H	1.096203	0.0	0.0
C	-0.24184	1.217744	-2.16906
N	-0.066406	2.21848	-2.760906
N	0.024185	-1.13287	-2.087252
H	-0.005825	-1.934037	-1.46551
H	-0.347277	-1.288154	-3.011744
N	-0.306322	-1.289736	0.61164
H	-1.189031	-1.273783	1.109344
H	0.453405	-1.501098	1.248831
C	-0.494418	1.153338	0.730699
N	-0.85175	2.062025	1.387205
F	2.482814	0.0	0.0
