15

C	-0.56182	-0.057892	-1.425331
C	0.0	0.0	0.0
Br	0.334891	-1.513434	-2.40567
H	1.093371	0.0	0.0
C	-1.986867	-0.444102	-1.386681
N	-3.141695	-0.665632	-1.334487
N	-0.327725	1.166103	-2.141179
H	-0.852212	1.184665	-3.006706
H	-0.582452	1.961214	-1.565525
N	-0.35705	-1.211664	0.732463
H	-1.103993	-1.064873	1.397406
H	0.480196	-1.509653	1.21762
C	-0.490941	1.211394	0.644126
N	-0.894705	2.186144	1.168555
F	2.513463	0.0	0.0
