14
Coordinates from ORCA-job run
  C   0.86573189668967      0.14541291266225     -0.07901894946028
  C   -0.61852755764364      0.55166940907965     -0.03720341941674
  Cl  1.91601841866776      1.56015479292276     -0.08304022634624
  H   -0.78000026248046      1.17312755556145     -0.92224686322667
  N   1.06071185055404     -0.60243439395960     -1.41308336738161
  O   0.66239826184813     -0.00730722521052     -2.40085508515967
  O   1.59416924673478     -1.69857180495426     -1.36233417674728
  C   1.19146895962127     -0.74616247599381      1.02297353992069
  N   1.38275547434737     -1.43233891216998      1.95835538100746
  C   -0.88215893448282      1.35186547408893      1.16864655457931
  N   -1.14994257710940      1.94439340300069      2.14733279210156
  N   -1.39812305336191     -0.66083430568890     -0.15556475751674
  H   -2.29379224809655     -0.47836043556353     -0.58777063866762
  H   -1.54970947528825     -1.09961399377512      0.74480921631381
