14
Coordinates from ORCA-job run
  C   0.86378565927674      0.14964022088593     -0.08689159615336
  C   -0.62235491162793      0.54782048336479     -0.03362269972647
  Cl  1.90634403960542      1.57010148170119     -0.10543875904332
  H   -0.79456381593419      1.16441779885983     -0.92000075973946
  N   1.05153475521624     -0.60187845997970     -1.41982877477147
  O   0.63972338448805     -0.01342953067480     -2.40613232380302
  O   1.59449923998584     -1.69338698971769     -1.36992189730727
  C   1.20427110073432     -0.73567260252563      1.01566434769132
  N   1.40712466595508     -1.41670063659802      1.95239241367382
  C   -0.88027728262613      1.35124994495928      1.17111407306852
  N   -1.14210777014604      1.94606941290244      2.15000256816007
  N   -1.39565254969961     -0.66980787161861     -0.14061481921479
  H   -1.53800051006719     -1.10535982597695      0.76279172358132
  H   -2.29532600516062     -0.49506342558208     -0.56751349641589
