14
Coordinates from ORCA-job run
  C   0.77082058708585     -0.20622800023323      0.10730535390740
  C   -0.74367301474830      0.08422559357652      0.02308981366242
  Cl  1.54628501131460      0.82126647834425      1.29477044268509
  H   -1.13440140620304     -0.59528019315551     -0.74014417905538
  N   1.34633860916135      0.06288506008288     -1.31119928153191
  O   2.16330072436702      0.95159276768240     -1.45866742398355
  O   0.86331244511752     -0.67027015352235     -2.16469498225530
  C   0.99968520776047     -1.61200584049593      0.40707746869371
  N   1.19540847708228     -2.74798301763457      0.63670947371612
  C   -0.94585204160897      1.46793121807917     -0.44796084887640
  N   -1.14942045028847      2.57650921200182     -0.78074246640167
  N   -1.35312431794903     -0.23765279532043      1.29015357817535
  H   -1.21433130569283      0.50404405158897      1.96486319570051
  H   -2.34534852539846     -0.39903438099400      1.17943985556364
