14
Coordinates from ORCA-job run
  C   0.86255762140679      0.14266396154280     -0.10194311145085
  C   -0.61958919210030      0.55184591766592     -0.02753742065487
  Cl  1.91440615903135      1.55594557799688     -0.14398751074573
  H   -0.80158269615499      1.16505753431264     -0.91431592474357
  N   1.02505261634297     -0.61659088102265     -1.43329385092200
  O   1.56186993787251     -1.71141630489170     -1.38640979089903
  O   0.60393693086835     -0.02965968600637     -2.41665407880965
  C   1.21409661712866     -0.73884775980598      1.00025231323656
  N   1.42807225194486     -1.41394904531854      1.93873718620208
  C   -0.85197619251880      1.36371854977501      1.17690512266291
  N   -1.09239568246287      1.96569738279919      2.15691496820873
  N   -1.40348225800796     -0.66049878666124     -0.11531701540387
  H   -1.53211803118773     -1.09106806894380      0.79254329558790
  H   -2.30984808216282     -0.48089839144214     -0.52589418226861
