17

C	-0.538308	0.101473	-1.435738
C	0.0	0.0	0.0
F	0.206767	0.975661	-2.152708
H	1.094226	0.0	0.0
N	-0.285165	-1.276619	-2.075222
O	-1.221927	-2.070938	-2.05207
O	0.829761	-1.471819	-2.536985
C	-2.002693	0.446074	-1.557242
H	-2.308838	0.362623	-2.601082
H	-2.13957	1.475683	-1.227131
H	-2.61164	-0.227337	-0.956099
C	-0.516153	-1.173354	0.685268
N	-0.942305	-2.130315	1.217949
N	-0.367228	1.223591	0.802165
O	-0.56617	1.070841	2.002813
O	-0.370803	2.295529	0.207186
Cl	3.11178	0.0	0.0
