17

C	-0.373302	-0.010639	-1.486971
C	0.0	0.0	0.0
F	0.022953	-1.225308	-1.954714
H	1.093544	0.0	0.0
N	-1.891958	0.026385	-1.645585
O	-2.420565	-0.800803	-2.377097
O	-2.457775	0.932679	-1.0401
C	0.238019	1.070132	-2.336378
H	0.048425	0.815844	-3.382596
H	1.311665	1.074959	-2.138692
H	-0.181073	2.043522	-2.097982
C	-0.547545	-1.169005	0.667628
N	-0.971298	-2.140705	1.173224
N	-0.398344	1.251417	0.729055
O	-1.047562	1.131176	1.762579
O	0.014476	2.305138	0.260766
Cl	3.1397	0.0	0.0
