17

C	-0.576562	-0.054728	-1.410408
C	0.0	0.0	0.0
F	-1.943152	-0.066462	-1.334031
H	1.093269	0.0	0.0
N	-0.199295	1.177581	-2.231423
O	0.993848	1.303916	-2.460433
O	-1.111928	1.881644	-2.640998
C	-0.077427	-1.261966	-2.164918
H	-0.471069	-2.163621	-1.69528
H	1.012595	-1.276354	-2.143465
H	-0.436075	-1.212149	-3.195357
C	-0.46301	-1.176186	0.727152
N	-0.821917	-2.16452	1.250659
N	-0.431984	1.23699	0.738954
O	-0.33568	2.292351	0.122305
O	-0.794226	1.113335	1.904681
Cl	3.131665	0.0	0.0
