17

C	-0.536438	-0.058117	-1.428472
C	0.0	0.0	0.0
F	-1.898682	-0.183504	-1.397828
H	1.091105	0.0	0.0
N	-0.237622	1.220684	-2.205551
O	-1.187715	1.848638	-2.649234
O	0.947541	1.456538	-2.378105
C	0.091687	-1.199268	-2.190514
H	1.177301	-1.112575	-2.131469
H	-0.239958	-1.160346	-3.230881
H	-0.226201	-2.144748	-1.751165
C	-0.449296	-1.199052	0.697504
N	-0.777195	-2.206703	1.202486
N	-0.45919	1.213135	0.758606
O	-0.445877	2.276842	0.150165
O	-0.759798	1.060554	1.939071
Cl	3.134733	0.0	0.0
