17

C	-0.400688	0.009047	-1.475582
C	0.0	0.0	0.0
F	-0.166529	-1.263523	-1.932198
H	1.096168	0.0	0.0
N	-1.914798	0.185639	-1.634931
O	-2.583085	0.411351	-0.629814
O	-2.344558	0.075243	-2.778667
C	0.329491	0.978996	-2.363108
H	0.007951	1.999974	-2.175827
H	0.124715	0.702013	-3.397588
H	1.396524	0.886525	-2.145029
C	-0.510953	-1.175466	0.68797
N	-0.887059	-2.14536	1.232833
N	-0.385175	1.239222	0.753886
O	-0.417088	2.292008	0.125625
O	-0.568555	1.119912	1.958013
Cl	3.140079	0.0	0.0
