17

C	-0.546068	0.174235	-1.427272
C	0.0	0.0	0.0
F	-0.274145	1.438343	-1.839386
H	1.106236	0.0	0.0
N	0.217668	-0.772194	-2.346447
O	0.630855	-0.318022	-3.401537
O	0.273912	-1.935535	-1.967071
C	-2.017734	-0.106099	-1.60644
H	-2.284869	0.093414	-2.646514
H	-2.247	-1.141266	-1.354816
H	-2.587254	0.554996	-0.951444
C	-0.519568	-1.192086	0.650435
N	-0.947437	-2.145769	1.186653
N	-0.471069	1.210476	0.774085
O	0.276246	2.177093	0.791803
O	-1.588123	1.148564	1.29299
Cl	3.164886	0.0	0.0
