17

C	-0.377889	-0.010005	-1.485805
C	0.0	0.0	0.0
F	0.018732	-1.223366	-1.956415
H	1.09352	0.0	0.0
N	-1.897731	0.023891	-1.636544
O	-2.429979	-0.814541	-2.351803
O	-2.460529	0.937907	-1.039202
C	0.227456	1.07508	-2.333924
H	0.031969	0.82461	-3.379536
H	1.302448	1.082085	-2.142112
H	-0.192038	2.047035	-2.090023
C	-0.544294	-1.170286	0.668689
N	-0.96446	-2.136303	1.188129
N	-0.401205	1.251121	0.727709
O	-1.069526	1.133899	1.749712
O	0.024786	2.30267	0.266835
Cl	3.139988	0.0	0.0
