17

C	-0.538951	-0.079265	-1.423251
C	0.0	0.0	0.0
F	-1.897127	-0.234683	-1.396627
H	1.107008	0.0	0.0
N	-0.261882	1.198261	-2.212692
O	0.911749	1.531113	-2.272513
O	-1.211221	1.726023	-2.773727
C	0.118393	-1.208987	-2.179177
H	1.201812	-1.085942	-2.134037
H	-0.161521	-2.159537	-1.723796
H	-0.228275	-1.193692	-3.214924
C	-0.437078	-1.189223	0.720902
N	-0.776695	-2.184265	1.244784
N	-0.457427	1.212181	0.761517
O	-0.465647	1.120853	1.983524
O	-0.737599	2.21511	0.113133
Cl	3.137048	0.0	0.0
