17

C	-0.4149	-0.032993	-1.47649
C	0.0	0.0	0.0
F	-0.446733	-1.357372	-1.850642
H	1.097217	0.0	0.0
N	-1.874799	0.407849	-1.628587
O	-2.217869	0.84373	-2.722825
O	-2.614529	0.215567	-0.667786
C	0.492913	0.715145	-2.40529
H	0.209603	0.491595	-3.43294
H	0.423485	1.785149	-2.226341
H	1.514147	0.387523	-2.200684
C	-0.505362	-1.126768	0.765366
N	-0.88406	-2.058609	1.370483
N	-0.387319	1.284716	0.667302
O	-0.544393	2.263261	-0.058782
O	-0.459971	1.281142	1.888509
Cl	3.152713	0.0	0.0
