13

C	0.0	0.0	0.0
C	-0.316865	-0.025099	-1.521845
Cl	1.753999	0.0	0.0
H	0.414593	0.656303	-1.969961
H	-0.426636	-0.80834	0.581926
N	-0.417933	1.309178	0.620635
O	-0.521809	1.314287	1.838303
O	-0.487383	2.273296	-0.130666
C	-1.596464	0.390046	-2.121735
N	-2.242215	0.693605	-3.06346
C	0.014121	-1.370115	-2.005371
N	0.316661	-2.434785	-2.398459
Cl	-2.991177	0.0	0.0
