13

C	0.0	0.0	0.0
C	-0.439169	-0.153249	-1.486848
Cl	1.753927	0.0	0.0
H	0.462688	0.009766	-2.089853
H	-0.404121	-0.766027	0.650269
N	-0.367747	1.330881	0.612961
O	-0.351121	2.305058	-0.128344
O	-0.511036	1.331299	1.826792
C	-1.420158	0.771353	-2.071287
N	-1.919608	1.506523	-2.844163
C	-0.819227	-1.551496	-1.709685
N	-0.984879	-2.69262	-1.929754
Cl	-2.977336	0.0	0.0
