13

C	0.0	0.0	0.0
C	-0.56099	-0.046302	-1.419631
Cl	1.763445	0.0	0.0
H	-1.663225	0.11229	-1.270072
H	-0.38755	-0.826774	0.588467
N	-0.424834	1.258695	0.720315
O	-0.499737	1.163436	1.93772
O	-0.581006	2.268244	0.046563
C	-0.355444	-1.390239	-1.956354
N	-0.180827	-2.471257	-2.38175
C	0.021418	0.937576	-2.328518
N	0.494799	1.680447	-3.10513
Cl	-3.297678	0.0	0.0
