13

C	0.0	0.0	0.0
C	-0.449252	-0.369928	-1.447087
Cl	1.750702	0.0	0.0
H	0.461167	-0.365638	-2.060285
H	-0.398811	-0.669805	0.752569
N	-0.370588	1.399599	0.42965
O	-0.360279	2.26815	-0.432868
O	-0.509453	1.560421	1.633387
C	-1.370238	0.506321	-2.181435
N	-1.865952	1.129172	-3.047274
C	-0.90999	-1.762021	-1.452083
N	-1.110542	-2.917	-1.520068
Cl	-2.965266	0.0	0.0
