13

C	0.0	0.0	0.0
C	-0.306007	-0.173827	-1.510266
Cl	1.78731	0.0	0.0
H	0.351394	-1.008514	-1.785705
H	-0.394523	-0.80893	0.603912
N	-0.421242	1.288391	0.647784
O	-0.574231	2.266854	-0.067213
O	-0.471182	1.252684	1.869892
C	0.188315	0.953317	-2.316167
N	0.617991	1.769062	-3.042776
C	-1.616445	-0.597502	-2.045578
N	-2.224934	-1.092617	-2.930579
Cl	-3.012702	0.0	0.0
