13

C	0.0	0.0	0.0
C	-0.577822	-0.292899	-1.382171
Cl	1.751811	0.0	0.0
H	-1.677626	-0.102728	-1.247753
H	-0.385226	-0.709261	0.728464
N	-0.425198	1.368375	0.488501
O	-0.64149	2.22618	-0.356208
O	-0.444087	1.507188	1.703934
C	-0.390019	-1.713023	-1.67532
N	-0.233005	-2.854939	-1.899976
C	-0.001177	0.508713	-2.457551
N	0.461212	1.093874	-3.364621
Cl	-3.32082	0.0	0.0
