13

C	0.0	0.0	0.0
C	-0.433348	0.178094	-1.482712
Cl	1.787308	0.0	0.0
H	0.474438	0.437452	-2.040509
H	-0.385093	-0.899082	0.465416
N	-0.353019	1.156714	0.897545
O	-0.323675	2.274916	0.399958
O	-0.502293	0.881478	2.079091
C	-1.382345	1.237981	-1.847845
N	-1.877645	2.132215	-2.430626
C	-0.850045	-1.126354	-1.99912
N	-1.019848	-2.187808	-2.470146
Cl	-2.961161	0.0	0.0
