19

C	0.0	0.0	0.0
C	-0.522481	-0.251502	-1.431736
Br	1.96402	0.0	0.0
H	-1.596125	-0.439847	-1.29954
N	-0.484942	1.30684	0.379783
H	-0.253511	1.455282	1.357303
H	-1.509041	1.239033	0.326135
C	-0.409847	-1.100916	0.976134
H	-1.501061	-1.160854	0.964499
H	-0.07171	-0.820472	1.97781
H	0.016812	-2.069799	0.722131
N	0.036776	-1.526363	-1.989135
O	-0.439539	-2.583076	-1.572684
O	0.931464	-1.454857	-2.832838
C	-0.286962	0.887364	-2.398951
H	-0.826564	1.762337	-2.042446
H	0.773446	1.125728	-2.478978
H	-0.663148	0.614245	-3.386995
Cl	-3.659068	0.0	0.0
