19

C	0.0	0.0	0.0
C	-0.519238	-0.073508	-1.449627
Br	2.029007	0.0	0.0
H	-1.577086	-0.349869	-1.327749
N	-0.473452	1.203452	0.556485
H	-0.505076	1.182543	1.564464
H	-0.003779	2.029851	0.219423
C	-0.451187	-1.169811	0.852022
H	-0.070777	-1.045178	1.869569
H	-0.093189	-2.115796	0.454333
H	-1.546727	-1.151086	0.853198
N	0.133519	-1.195845	-2.199211
O	0.947837	-0.918093	-3.080275
O	-0.185676	-2.343284	-1.887213
C	-0.406804	1.217177	-2.229917
H	0.614285	1.604278	-2.228995
H	-0.705228	1.051173	-3.265309
H	-1.098293	1.934113	-1.788139
Cl	-3.808618	0.0	0.0
