19

C	0.0	0.0	0.0
C	-0.534359	-0.124139	-1.449291
Br	1.96679	0.0	0.0
H	-1.6033	-0.331871	-1.311925
N	-0.460207	1.204429	0.641251
H	-0.248479	2.015655	0.074191
H	-1.477951	1.123319	0.721522
C	-0.427211	-1.178447	0.863533
H	-0.095724	-0.982717	1.88405
H	-0.00455	-2.117128	0.513057
H	-1.518499	-1.232177	0.835426
N	0.025873	-1.325885	-2.144057
O	0.943875	-1.161901	-2.951453
O	-0.465615	-2.420015	-1.863384
C	-0.339937	1.097226	-2.319997
H	0.703407	1.41382	-2.347104
H	-0.659826	0.878557	-3.341463
H	-0.972888	1.903253	-1.94863
Cl	-3.674081	0.0	0.0
