19

C	0.0	0.0	0.0
C	-0.522064	-0.150399	-1.442745
Br	2.029064	0.0	0.0
H	-1.578476	-0.423117	-1.302274
N	-0.470815	1.232424	0.492016
H	-0.003312	2.03808	0.105307
H	-0.491382	1.26822	1.499955
C	-0.452091	-1.121794	0.913372
H	-1.547563	-1.100666	0.916209
H	-0.068441	-0.945997	1.92219
H	-0.097558	-2.088111	0.564449
N	0.132067	-1.308736	-2.13373
O	-0.18516	-2.439402	-1.763114
O	0.945333	-1.075709	-3.028691
C	-0.417317	1.097153	-2.290366
H	-1.110601	1.833418	-1.88482
H	-0.71895	0.87507	-3.314218
H	0.601905	1.488304	-2.314194
Cl	-3.808309	0.0	0.0
