19

C	0.0	0.0	0.0
C	-0.272093	-0.085122	-1.568961
Br	1.994225	0.0	0.0
H	0.590471	0.36213	-2.064083
N	-0.463693	1.159195	0.681365
H	-0.351187	1.977546	0.096219
H	-1.471482	1.024195	0.81119
C	-0.458147	-1.223667	0.77198
H	-1.548604	-1.272162	0.699902
H	-0.174489	-1.079169	1.815329
H	-0.009218	-2.144666	0.405288
N	-1.359155	0.832097	-2.099492
O	-1.213189	2.032544	-1.86176
O	-2.207633	0.367266	-2.847011
C	-0.490581	-1.491388	-2.084312
H	-1.417839	-1.899232	-1.682258
H	0.355229	-2.118271	-1.796059
H	-0.560642	-1.485411	-3.172186
Cl	-3.609122	0.0	0.0
