17

C	-0.176836	0.035019	-1.53466
C	0.0	0.0	0.0
Br	0.004099	-1.958723	-2.192831
H	1.102495	0.0	0.0
C	-1.529095	0.46225	-2.058052
H	-1.724921	1.472978	-1.695396
H	-1.538783	0.449877	-3.150625
H	-2.308771	-0.207129	-1.693642
N	0.892315	0.809751	-1.991951
H	1.768362	0.554609	-1.490667
H	0.981714	0.824974	-2.998329
C	-0.662717	-1.084706	0.690301
N	-1.198988	-1.911773	1.331443
N	-0.486782	1.301881	0.536071
H	0.242865	1.959667	0.276047
H	-0.441238	1.235653	1.549106
F	2.656092	0.0	0.0
