17

C	-0.361171	-0.030601	-1.493314
C	0.0	0.0	0.0
Br	0.030073	1.737936	-2.26648
H	1.094986	0.0	0.0
C	0.578325	-1.02188	-2.173487
H	1.59605	-0.800972	-1.83362
H	0.313493	-2.035516	-1.84817
H	0.491311	-0.968826	-3.261989
N	-1.790442	-0.244228	-1.693028
H	-2.004119	-1.178688	-1.352854
H	-1.989872	-0.228735	-2.688915
C	-0.444686	-1.278078	0.57183
N	-0.844122	-2.278611	1.048518
N	-0.518068	1.143194	0.72754
H	0.101153	1.324065	1.507129
H	-1.455846	0.97942	1.070746
F	2.611889	0.0	0.0
