17

C	-0.117873	-0.031047	-1.517057
C	0.0	0.0	0.0
Br	-2.027733	-0.231231	-2.117602
H	1.099091	0.0	0.0
C	0.398139	1.27814	-2.091066
H	1.420817	1.357336	-1.716819
H	-0.184744	2.129001	-1.747041
H	0.393624	1.238027	-3.182456
N	0.627185	-1.193408	-1.931688
H	0.772108	-1.155438	-2.935269
H	1.535234	-1.085654	-1.458794
C	-0.49566	-1.220147	0.629778
N	-0.903733	-2.137924	1.242408
N	-0.501794	1.218789	0.613274
H	-1.433577	1.078267	0.983902
H	0.116649	1.465403	1.376381
F	2.619187	0.0	0.0
