17

C	-0.39233	-0.017366	-1.476225
C	0.0	0.0	0.0
Br	0.40365	1.738348	-2.251397
H	1.09496	0.0	0.0
C	0.356901	-1.116607	-2.196799
H	1.405259	-1.039223	-1.894003
H	-0.053512	-2.079144	-1.874623
H	0.258689	-1.031322	-3.281759
N	-1.791045	-0.019041	-1.640247
H	-2.172977	0.707144	-1.043461
H	-2.06309	0.140241	-2.601375
C	-0.482549	-1.227596	0.620929
N	-0.859518	-2.198594	1.167464
N	-0.604573	1.168978	0.683484
H	0.123176	1.876399	0.685855
H	-0.760378	0.921514	1.652606
F	2.599987	0.0	0.0
