17

C	-0.279639	0.047298	-1.483871
C	0.0	0.0	0.0
Br	-2.36702	0.668359	-1.715422
H	1.09654	0.0	0.0
C	0.532123	1.139732	-2.133702
H	0.419228	1.12944	-3.220358
H	1.564226	0.926595	-1.826041
H	0.234293	2.108038	-1.73879
N	-0.119936	-1.186194	-2.098888
H	-0.64694	-1.931893	-1.663802
H	-0.280188	-1.153749	-3.094789
C	-0.536406	-1.208721	0.615228
N	-0.967533	-2.182361	1.11777
N	-0.361982	1.235822	0.672378
H	0.288215	1.370449	1.435155
H	-1.310944	1.212105	1.022133
F	2.57219	0.0	0.0
