17

C	-0.054427	-0.013213	-1.531679
C	0.0	0.0	0.0
Br	-1.938046	-0.199727	-2.188441
H	1.098238	0.0	0.0
C	0.530506	1.280105	-2.058102
H	-0.053364	2.138597	-1.734458
H	1.532308	1.331469	-1.618093
H	0.591886	1.234889	-3.146302
N	0.727774	-1.119526	-2.049277
H	1.637998	-0.986727	-1.583648
H	0.343531	-1.9895	-1.692084
C	-0.487246	-1.253517	0.570976
N	-0.885989	-2.238953	1.076631
N	-0.540066	1.192405	0.624746
H	-0.019389	1.373575	1.474715
H	-1.517711	1.064415	0.86122
F	2.629477	0.0	0.0
