17

C	-0.062654	-0.061952	-1.522622
C	0.0	0.0	0.0
Br	-1.944451	-0.32596	-2.195763
H	1.100827	0.0	0.0
C	0.452566	1.244895	-2.102271
H	1.4519	1.357617	-1.669327
H	-0.170624	2.092852	-1.824232
H	0.521078	1.169195	-3.191087
N	0.725545	-1.21258	-1.885259
H	0.894633	-1.206359	-2.885728
H	1.620541	-1.065617	-1.393062
C	-0.506696	-1.216228	0.6313
N	-0.947243	-2.122897	1.237966
N	-0.533611	1.224065	0.569221
H	-0.026335	1.422797	1.422473
H	-1.514518	1.106865	0.797828
F	2.638213	0.0	0.0
