17

C	-0.373701	-0.032957	-1.482869
C	0.0	0.0	0.0
Br	0.354765	1.761096	-2.247589
H	1.098378	0.0	0.0
C	0.442167	-1.092503	-2.188014
H	0.36841	-1.006888	-3.275431
H	1.476494	-0.968989	-1.851927
H	0.068344	-2.073267	-1.87869
N	-1.765221	-0.099171	-1.67337
H	-2.027317	0.044981	-2.639883
H	-2.201777	0.601006	-1.082372
C	-0.468487	-1.236615	0.614901
N	-0.810084	-2.234745	1.135094
N	-0.631244	1.15517	0.673758
H	-0.718573	0.934423	1.659688
H	0.050608	1.904482	0.610413
F	2.608941	0.0	0.0
