14

C	-0.556214	-0.090576	-1.390795
C	0.0	0.0	0.0
F	-1.900965	-0.39634	-1.412441
H	1.090388	0.0	0.0
H	-0.330308	-0.920652	0.503173
N	-0.419781	1.267191	-2.081399
O	0.723366	1.600066	-2.355865
O	-1.443661	1.904372	-2.279423
C	0.134936	-1.079205	-2.231743
N	0.597518	-1.918222	-2.909744
N	-0.463625	1.230492	0.633135
H	0.32835	1.608115	1.137775
H	-1.219067	1.069921	1.283758
F	2.593416	0.0	0.0
