17

C	-0.413468	0.027382	-1.43918
C	0.0	0.0	0.0
Br	-2.315093	0.367353	-1.758444
H	1.094721	0.0	0.0
N	0.321142	1.085377	-2.272889
O	0.224821	0.955092	-3.487848
O	0.910876	1.973959	-1.67743
N	-0.012297	-1.302346	-2.098346
O	1.181323	-1.389552	-2.349786
O	-0.868768	-2.159082	-2.251614
C	-0.464515	-1.232913	0.606288
N	-0.85133	-2.205898	1.144183
C	-0.454365	1.189848	0.845069
H	0.045518	1.107052	1.812518
H	-1.537273	1.204067	0.999256
H	-0.132362	2.121053	0.385099
F	2.467187	0.0	0.0
