17

C	-0.39619	0.01881	-1.468801
C	0.0	0.0	0.0
Br	0.335259	-1.482484	-2.402588
H	1.094604	0.0	0.0
N	-1.915385	0.07519	-1.663677
O	-2.525379	-0.986571	-1.758912
O	-2.402565	1.158832	-1.3299
N	0.091509	1.260639	-2.221703
O	-0.406017	1.42977	-3.335496
O	0.989755	1.910926	-1.697198
C	-0.468329	-1.242318	0.598508
N	-0.864078	-2.210122	1.138411
C	-0.492436	1.192665	0.823949
H	0.002798	1.124861	1.795015
H	-1.57461	1.199678	0.97793
H	-0.187769	2.128108	0.357972
F	2.497839	0.0	0.0
