17

C	-0.4398	0.004645	-1.434606
C	0.0	0.0	0.0
Br	0.547221	1.27122	-2.489108
H	1.093972	0.0	0.0
N	-0.271096	-1.346255	-2.136303
O	0.444764	-2.174051	-1.593486
O	-0.845129	-1.458232	-3.21387
N	-1.943862	0.293157	-1.5337
O	-2.318227	1.433328	-1.774854
O	-2.656273	-0.661203	-1.231497
C	-0.535164	-1.125654	0.740331
N	-0.940937	-1.991874	1.426129
C	-0.350646	1.308491	0.718471
H	0.086513	2.150201	0.180878
H	0.117229	1.269138	1.702983
H	-1.426371	1.470378	0.840168
F	2.479013	0.0	0.0
