17

C	-0.394714	0.01129	-1.453048
C	0.0	0.0	0.0
Br	0.328223	-1.499359	-2.39278
H	1.094614	0.0	0.0
N	-1.919641	0.064067	-1.611882
O	-2.538367	-0.969249	-1.820575
O	-2.405697	1.173225	-1.399325
N	0.086665	1.253857	-2.212682
O	-0.401162	1.404726	-3.327506
O	0.925078	1.963086	-1.677797
C	-0.46592	-1.236228	0.599355
N	-0.860287	-2.201254	1.145311
C	-0.474331	1.191479	0.83683
H	-1.555602	1.2056	0.999601
H	0.033427	1.117215	1.800361
H	-0.16476	2.125667	0.374111
F	2.479616	0.0	0.0
