15

C	0.0	0.0	0.0
C	-0.319865	0.175587	-1.546788
Cl	1.825041	0.0	0.0
H	0.44447	-0.440181	-2.030711
C	-0.36457	1.170826	0.817338
N	-0.523156	2.094764	1.528392
N	-0.560677	-1.238972	0.433013
H	-1.589069	-1.047125	0.404013
H	-0.311076	-1.387867	1.407521
C	-0.036317	1.567674	-1.93915
N	0.185735	2.669859	-2.279342
N	-1.604606	-0.242448	-2.037783
H	-1.598775	-1.257067	-2.04076
H	-2.337068	0.009523	-1.325153
H	-3.086051	0.0	0.0
