15

C	0.0	0.0	0.0
C	-0.345416	-0.205164	-1.537307
Cl	1.842083	0.0	0.0
H	0.51771	-0.70388	-1.988504
C	-0.370283	1.335463	0.488656
N	-0.544229	2.420449	0.907393
N	-0.536866	-0.986448	0.866096
H	-1.548591	-0.743706	0.905585
H	-0.495899	-1.876335	0.373954
C	-0.434476	1.101117	-2.224608
N	-0.481803	2.094009	-2.85281
N	-1.493045	-1.077077	-1.664543
H	-1.766501	-1.117562	-2.640514
H	-2.282485	-0.650229	-1.089916
H	-3.067924	0.0	0.0
