15

C	0.0	0.0	0.0
C	-0.554603	-0.027163	-1.420283
Cl	1.788113	0.0	0.0
H	-1.662254	0.014335	-1.188414
C	-0.34123	1.312739	0.611459
N	-0.514814	2.315371	1.200263
N	-0.549272	-1.12163	0.688267
H	-1.586838	-0.944822	0.603608
H	-0.306623	-1.06375	1.673037
C	-0.243044	-1.300639	-2.073689
N	-0.000823	-2.255866	-2.716169
N	-0.154815	1.140729	-2.18239
H	-0.853744	1.335818	-2.88732
H	0.735319	0.984951	-2.639675
H	-2.915817	0.0	0.0
