15

C	0.0	0.0	0.0
C	-0.263976	0.032722	-1.551185
Cl	1.779104	0.0	0.0
H	0.320891	0.905969	-1.901908
C	-0.671749	1.188757	0.584373
N	-0.644091	2.346672	0.852215
N	-0.362209	-1.292387	0.56169
H	0.11846	-1.39402	1.452764
H	-1.370967	-1.197516	0.706621
C	-1.652154	0.253799	-2.02191
N	-2.648743	0.38505	-2.654354
N	0.289379	-1.187788	-2.154729
H	-0.19244	-1.347961	-3.030347
H	0.032635	-1.937705	-1.513241
H	-2.289432	0.0	0.0
