15

C	0.0	0.0	0.0
C	-0.524772	-0.002118	-1.443338
Cl	1.796285	0.0	0.0
H	-1.631611	0.066012	-1.219281
C	-0.366612	1.295963	0.611646
N	-0.527575	2.358311	1.087057
N	-0.535932	-1.05717	0.797919
H	-0.352148	-1.940018	0.324228
H	-1.570412	-0.865971	0.733999
C	-0.246502	-1.299496	-2.067869
N	0.009551	-2.31061	-2.612176
N	-0.071683	1.137815	-2.213185
H	-0.714523	1.313019	-2.974859
H	0.85269	0.974654	-2.59101
H	-2.887441	0.0	0.0
