16

C	0.0	0.0	0.0
C	-0.129345	-0.168411	-1.535479
Cl	1.864518	0.0	0.0
H	0.471414	0.605543	-2.011372
H	0.227702	-1.152751	-1.830048
N	-0.541102	1.205775	0.487065
H	-1.327656	1.006604	1.095951
H	-0.89837	1.779797	-0.266939
C	-0.475263	-1.205419	0.775639
H	0.006249	-2.118651	0.426666
H	-1.562106	-1.273463	0.649396
H	-0.248454	-1.068584	1.834888
N	-1.471542	-3.5e-05	-2.162874
O	-1.85986	1.159384	-2.293423
O	-2.031175	-1.004288	-2.591033
Br	-3.964554	0.0	0.0
