16

C	0.0	0.0	0.0
C	-0.472463	-0.068856	-1.444467
Cl	1.857684	0.0	0.0
H	-0.18975	-1.013455	-1.901153
H	-1.566369	0.059333	-1.421647
N	-0.519109	1.11402	0.656466
H	-0.301416	1.159564	1.637196
H	-0.410562	1.985314	0.168288
C	-0.427805	-1.275918	0.705176
H	-0.10888	-1.240588	1.750343
H	-1.521289	-1.320215	0.660569
H	0.023011	-2.152394	0.237558
N	0.108793	0.985912	-2.314129
O	0.618873	0.628174	-3.372456
O	0.032117	2.155975	-1.941292
Br	-3.980751	0.0	0.0
