16

C	0.0	0.0	0.0
C	-0.493744	-0.381947	-1.392736
Cl	1.841797	0.0	0.0
H	-0.293725	0.420538	-2.10005
H	-1.574847	-0.555482	-1.298851
N	-0.495035	1.30684	0.221653
H	-0.002476	2.018996	-0.297343
H	-0.568889	1.544227	1.198608
C	-0.472255	-0.931427	1.096087
H	-1.567183	-0.916779	1.090277
H	-0.095734	-0.576295	2.059819
H	-0.110786	-1.94266	0.926695
N	0.149252	-1.591421	-1.966313
O	0.737104	-1.464443	-3.041718
O	0.049293	-2.647987	-1.34659
Br	-3.994632	0.0	0.0
