16

C	-0.432311	-0.074463	-1.461272
C	0.0	0.0	0.0
F	-1.826998	-0.070921	-1.528754
H	1.095448	0.0	0.0
C	0.050202	1.063772	-2.26326
N	0.408647	1.871068	-3.037009
C	0.099667	-1.358279	-2.076474
H	-0.348007	-2.216988	-1.575017
H	1.185829	-1.38757	-1.957932
H	-0.160285	-1.383389	-3.13586
C	-0.492884	-1.152835	0.739117
N	-0.878452	-2.118526	1.285345
N	-0.453122	1.250371	0.700183
O	-0.544114	1.190549	1.921566
O	-0.650048	2.245283	0.011815
Br	3.279801	0.0	0.0
