16

C	-0.443448	0.061714	-1.480904
C	0.0	0.0	0.0
F	-0.332031	-1.247719	-1.945157
H	1.095329	0.0	0.0
C	-1.868956	0.428997	-1.599973
N	-3.003885	0.70463	-1.734934
C	0.449275	0.926389	-2.345957
H	0.34016	1.975781	-2.083844
H	1.484168	0.617382	-2.177978
H	0.170347	0.771708	-3.389365
C	-0.534435	-1.174283	0.671752
N	-0.960641	-2.13193	1.201253
N	-0.391262	1.230375	0.767495
O	-0.548362	2.265715	0.122564
O	-0.467765	1.12518	1.9838
Br	3.323958	0.0	0.0
