11
Coordinates from ORCA-job run
  C   0.48355056165654      0.20553152598345     -0.01627498252722
  C   -0.86263375820211      0.10005389258681      0.15519164805167
  H   -1.39336605980700      0.96207949182661      0.54540932948758
  C   1.26626778603480     -0.86811744440266     -0.51061032226487
  N   1.79038705456084     -1.83659900205422     -0.92667023473079
  N   1.16017019316282      1.44533451819791      0.32528563494795
  O   0.47963056259746      2.37506650368776      0.75158145675325
  O   2.37738463270335      1.46623249865628      0.15884793097146
  N   -1.59450839536654     -0.98147497991016     -0.15534491147273
  H   -2.55976810762072     -1.02820635628331      0.11503971481885
  H   -1.14711446971945     -1.83890064828848     -0.44045526403514
