11
Coordinates from ORCA-job run
  C   0.61351328714497     -0.08249723929886     -0.05153604033377
  C   -0.56863017598300     -0.73750216274523      0.17875822316025
  H   -0.49354717047662     -1.80877791621583      0.34439197165397
  C   1.84552700079124     -0.79161270495673     -0.06626606167812
  N   2.83489369611568     -1.42700641819945     -0.06758848364522
  N   0.68483916162582      1.33920788792117     -0.28766876402623
  O   1.79086131767162      1.83538272048459     -0.47622413269407
  O   -0.38122068222438      1.97082959057850     -0.28479269765762
  N   -1.80191126602107     -0.22924703917629      0.22619118098372
  H   -2.58715570323710     -0.82849466105350      0.40437983559045
  H   -1.93716946540716      0.75871794266164      0.07835496864664
