11
Coordinates from ORCA-job run
  C   0.61665948196117     -0.06849890490282     -0.00164919809304
  C   -0.56546219754729     -0.73748170467461     -0.18645908494223
  H   -0.47889225101185     -1.78855688924508     -0.44807042235279
  C   1.86021186763916     -0.74208177886198     -0.14611712699649
  N   2.85754536588516     -1.35116333950755     -0.27701005512296
  N   0.67694754465141      1.33106780751239      0.34429971511060
  O   1.78382636228890      1.84003727861536      0.48762410363844
  O   -0.39905444662278      1.93107540948071      0.47632165364781
  N   -1.81039502025818     -0.26999878952582     -0.06663090155062
  H   -1.95218345123369      0.70967763406237      0.12387256016326
  H   -2.59020325575201     -0.85507672295297     -0.30718124350200
