11
Coordinates from ORCA-job run
  C   0.47375160861898      0.15252954831617     -0.16697227268011
  C   -0.82647977730713      0.06274169602387      0.18682878745134
  H   -1.34893779913462      1.00308530262000      0.26075542087373
  C   1.39794158958213     -0.90822124575259     -0.10023390893239
  N   1.98827650834138     -1.90022619768601      0.08013404194747
  N   1.00661797791981      1.50215955684016     -0.40727460134135
  O   2.21433452823499      1.59481182959690     -0.64368509112641
  O   0.23145371538905      2.44869665809576     -0.42991917562066
  N   -1.45722995172579     -1.08570236437753      0.52760252433405
  H   -1.20318478098175     -1.90502346393555      0.01044392838851
  H   -2.47554361893706     -0.96385131974117      0.68132034670582
