11
Coordinates from ORCA-job run
  C   0.60856104957341     -0.07608829116568      0.09977778401309
  C   -0.57872688926812     -0.74772637799692     -0.03736653648195
  H   -0.52246699609695     -1.83035515182395      0.03572399591529
  C   1.81855725300269     -0.78457158422966      0.33349667624479
  N   2.78942929763679     -1.42104008719361      0.52046562644420
  N   0.70490123087948      1.36081374384059      0.02526820498088
  O   -0.34264368534134      1.98971572689603     -0.18317405363077
  O   1.81179225003148      1.87162798998838      0.16625741457481
  N   -1.79726475418277     -0.24657863281596     -0.24379151805504
  H   -1.91407981233750      0.74832609392113     -0.35028247366815
  H   -2.57905894389717     -0.86412342942035     -0.36637512033715
