11
Coordinates from ORCA-job run
  C   0.46460803855569      0.23876921974776      0.06427489142169
  C   -0.85469090468292      0.04695408388945     -0.21214244158080
  H   -1.45000687001381      0.91618240005236     -0.47128610168196
  C   1.32305266359919     -0.83218764798886      0.41860214487177
  N   1.91923839420285     -1.80799705501780      0.69816690665627
  N   1.02614365933427      1.57760440178307      0.01236394834694
  O   0.28031522740361      2.50414776547192     -0.29570713597585
  O   2.22020087281930      1.67956053537862      0.28396614386540
  N   -1.47402885046037     -1.14261734381920     -0.21218113083189
  H   -0.98923839741095     -1.98107129606371      0.06753486339548
  H   -2.46559383334685     -1.19834506343362     -0.35359208848704
