11
Coordinates from ORCA-job run
  C   0.61284504035217     -0.07501452243477      0.06911510274014
  C   -0.58555505440314     -0.74073777057484      0.08760015420714
  H   -0.53398290567283     -1.80602791645617      0.29531534169104
  C   1.83096609967311     -0.76691364376680      0.31039879531781
  N   2.80835823358079     -1.38728345390145      0.51644201198295
  N   0.71535335706708      1.34082934695705     -0.19026087253127
  O   1.83296339166407      1.84659283188265     -0.18364117355284
  O   -0.33784073941592      1.95790731196760     -0.40339023624863
  N   -1.80970056401213     -0.24920838760656     -0.11635797421758
  H   -1.92289524515284      0.73276789461784     -0.31396489621625
  H   -2.60951161368037     -0.85391169068456     -0.07225625317252
