11
Coordinates from ORCA-job run
  C   0.58449878401892     -0.05872595274135     -0.20156621091588
  C   -0.66157263099286     -0.62717100624902     -0.26323098632296
  H   -0.74526363242583     -1.52423583944309     -0.87059162479534
  C   1.68057716697451     -0.63348731988373     -0.90073437172442
  N   2.55391646384743     -1.14925080319548     -1.49573769432605
  N   0.86172675644411      1.13297068975122      0.56348274996110
  O   2.00987893141047      1.56495361076666      0.55831160651120
  O   -0.08299578760478      1.64625704814943      1.17960024478412
  N   -1.78738200931806     -0.22055165924205      0.32724235824723
  H   -2.63879498118607     -0.73609719818430      0.19809832842688
  H   -1.77358906116785      0.60533843027171      0.90512560015411
