11
Coordinates from ORCA-job run
  C   0.47055942474288      0.22307950093255      0.06930972241292
  C   -0.81734470766977      0.03741404619377     -0.33137868473995
  H   -1.28843035826661      0.82911801547224     -0.90485684541793
  C   1.17390079915371     -0.75337178467095      0.81807344435233
  N   1.64182291268722     -1.64548979302977      1.42725223807830
  N   1.16557219070387      1.45214552396720     -0.27263572514052
  O   0.54939830113507      2.30549638481347     -0.90611522346040
  O   2.33515691682164      1.53585499180291      0.09291885225545
  N   -1.54672616507798     -1.05948378084044     -0.08257312942591
  H   -1.17802596655358     -1.81905204760232      0.46755088408095
  H   -2.50388334767644     -1.10671105703864     -0.37754553299524
