11
Coordinates from ORCA-job run
  C   0.61506024610909     -0.08108564465281     -0.03237018192002
  C   -0.57193006700299     -0.73633939639112      0.17061608599281
  H   -0.49963430297329     -1.80608842948270      0.34708000151982
  C   1.84772843689463     -0.78893405416591     -0.00905377369873
  N   2.83712607999667     -1.42365413774710      0.02152799820991
  N   0.69044953683241      1.33808701077807     -0.28225838175110
  O   -0.37591968681265      1.96872917383518     -0.30680519816979
  O   1.79960371580188      1.83294204671687     -0.45489983393853
  N   -1.80654976225565     -0.22957729365065      0.18212381781770
  H   -1.93898481732888      0.75674501257592      0.02146015904989
  H   -2.59594937926120     -0.82882428781575      0.34057930688803
