11
Coordinates from ORCA-job run
  C   0.46718498016717      0.24296492075949      0.00081849424190
  C   -0.87835935473344      0.04349715365390      0.06260305784692
  H   -1.51488756273943      0.91365372254229      0.18478310675677
  C   1.38046553198427     -0.82908954274654     -0.16085884392213
  N   2.02208452548270     -1.80660787095648     -0.29736982555404
  N   1.00218592804873      1.58989588450525      0.09850148586699
  O   0.20838350657414      2.51680301445670      0.24172597027426
  O   2.22424278685296      1.69822500173665      0.02887396948609
  N   -1.48018146878050     -1.15290500624369     -0.00094582615940
  H   -2.48099618974799     -1.22008105026175     -0.00641017210617
  H   -0.94812268310861     -1.99535622744580     -0.15372141673120
