11
Coordinates from ORCA-job run
  C   0.47671168058325      0.22350084249645      0.03110294680163
  C   -0.87736905071878      0.08268133165935     -0.00367382551154
  H   -1.48380432905055      0.97616087320678      0.10227681660975
  C   1.35070296278210     -0.88538455244312     -0.09493382144399
  N   1.95346476854897     -1.89007443288977     -0.21015301475374
  N   1.06135874436034      1.54130657404435      0.20689981670560
  O   0.30041795500644      2.49933551251107      0.32027783895698
  O   2.28882676453588      1.59536755782542      0.22908658575838
  N   -1.52323720397955     -1.08042156955929     -0.16780490409251
  H   -2.52553495323549     -1.11400256356413     -0.15647259347477
  H   -1.02053733883261     -1.94946957328710     -0.25660584555579
