11
Coordinates from ORCA-job run
  C   0.60383376421300     -0.06143875545585     -0.13216162303340
  C   -0.60558307506430     -0.70443163918700     -0.19124055985422
  H   -0.59107926245278     -1.70422017429084     -0.61657284102012
  C   1.78587140006485     -0.69253673775742     -0.60651376668250
  N   2.73230699282335     -1.25976558268312     -1.01288488418532
  N   0.75421640160676      1.26989812638031      0.40403216814178
  O   -0.26708369243002      1.83384967290782      0.82157301544303
  O   1.87811880121853      1.76149923951497      0.41418424671270
  N   -1.80014050517857     -0.26111167634058      0.20604330483340
  H   -1.87827319276917      0.65937875542309      0.60947340025385
  H   -2.61218763203165     -0.84212122851138      0.10406753939080
