11
Coordinates from ORCA-job run
  C   0.60136785972131     -0.11223290168735     -0.10759756049308
  C   -0.58908893181116     -0.71232756301572      0.21233047336190
  H   -0.55552995457120     -1.78920712494245      0.35327140851097
  C   1.79015331497501     -0.88057677108203     -0.23769806235544
  N   2.74315243689415     -1.56279667203165     -0.33249687166280
  N   0.72542753973917      1.30907539412135     -0.32438087460553
  O   -0.30133541387481      1.99366073103961     -0.21206089264941
  O   1.83405008763769      1.75256389161778     -0.60588984608555
  N   -1.78724785544942     -0.14516334296774      0.36798258100124
  H   -1.88069253488670      0.85305177598125      0.26330268481825
  H   -2.58025654837404     -0.70504741703304      0.62323696015945
