11
Coordinates from ORCA-job run
  C   0.47545676090414      0.22225549651356      0.02692190233441
  C   -0.87111081844823      0.08115795761904     -0.11281995679448
  H   -1.46623127481966      0.98115158991906     -0.22696902359063
  C   1.33643598348669     -0.89211362232616      0.19078637147403
  N   1.93152005961486     -1.90002730518137      0.31593782999785
  N   1.06664651233253      1.54963907939080      0.02590403226255
  O   2.28604637813622      1.60394200389110      0.16698694305012
  O   0.31850925102679      2.51393087167027     -0.11479820231942
  N   -1.52062439083940     -1.09266398459790     -0.15827061710279
  H   -1.03385693232003     -1.95653027945752      0.02464337030301
  H   -2.52379152907392     -1.11074180744087     -0.13932264961464
