11
Coordinates from ORCA-job run
  C   0.60921575095173     -0.08993583329319     -0.08106438696609
  C   -0.57757844298563     -0.73915019347943      0.14176083518055
  H   -0.52043581038951     -1.82160327613131      0.21668502179532
  C   1.82411827648262     -0.81799811247137     -0.20152818640027
  N   2.79927202432894     -1.46872366756628     -0.29260778713163
  N   0.70239704215392      1.34471310512800     -0.20667220137660
  O   -0.34816710984590      1.99423336242086     -0.10791302372153
  O   1.81043737913181      1.83323372547752     -0.40309256274344
  N   -1.79606585351197     -0.21238850757204      0.28133437798058
  H   -2.58802650122631     -0.80901072017152      0.43633356087854
  H   -1.91416675508968      0.78663011765875      0.21776435250456
