11
Coordinates from ORCA-job run
  C   0.60521135646361     -0.07625773204762      0.11378414729051
  C   -0.61443579204272     -0.69783365933104      0.19025602392470
  H   -0.60811295529381     -1.71423821189210      0.57445742012547
  C   1.78890148399871     -0.74794853909567      0.52515773139030
  N   2.73677989655430     -1.35034101765693      0.87320607839177
  N   0.76691025077158      1.26821049441557     -0.38181267803823
  O   -0.25566409359193      1.86632248344948     -0.74643652241547
  O   1.89967994553589      1.73809134477641     -0.41375968365182
  N   -1.81232866893999     -0.21329662677172     -0.14308109606926
  H   -1.87632582311816      0.71780005389407     -0.52525349182417
  H   -2.63061560033750     -0.78950858974046     -0.06551792912380
