11
Coordinates from ORCA-job run
  C   0.47316054512908      0.22617790772523      0.04178496731744
  C   -0.87851469947097      0.07414662458973     -0.01712765376688
  H   -1.49455824388288      0.95723324827706      0.11652448503493
  C   1.36185299331066     -0.86705818907931     -0.11552331559752
  N   1.98191604496649     -1.85694751917599     -0.26207790908884
  N   1.04188884947207      1.54202236570205      0.27880369482462
  O   0.26955166788700      2.48772493164275      0.41599868302758
  O   2.26808303615397      1.60653800310459      0.32402170904463
  N   -1.51139586152887     -1.08448890817510     -0.25367072805439
  H   -0.99904600925151     -1.94933107757511     -0.32989308627783
  H   -2.51193832278504     -1.13501738703591     -0.19984084646374
