11
Coordinates from ORCA-job run
  C   0.47896337383294      0.21684368322850     -0.00297115657084
  C   -0.87041199354919      0.08179763396819      0.11581942925153
  H   -1.43967222064059      0.94613324229105      0.44151237319540
  C   1.31035545491777     -0.85527488535167     -0.41412711816763
  N   1.88027933707132     -1.82405277802601     -0.76404028952271
  N   1.10730489736727      1.48946994915176      0.30845894289060
  O   2.32983166722421      1.53692966679794      0.19471222379706
  O   0.38442401451995      2.41836586345974      0.66072719772221
  N   -1.55902644536992     -1.03393914984043     -0.16876557228532
  H   -2.53925867180522     -1.08852090135392      0.03822445915722
  H   -1.08178941356854     -1.88875232432515     -0.40955048946751
