11
Coordinates from ORCA-job run
  C   0.44069120286620      0.27549680897880     -0.08534404076293
  C   -0.81024745530472     -0.04734224713523      0.34470455504821
  H   -1.34713266229499      0.68402969656589      0.93959920167524
  C   1.22285760755449     -0.61661586028924     -0.86104294784300
  N   1.75979237638511     -1.45086695087645     -1.49484099248247
  N   1.01384529201509      1.56375998086939      0.26326592427829
  O   0.33670427778291      2.33092798206035      0.94357117282082
  O   2.14698230919947      1.78860931321761     -0.15539133396999
  N   -1.44163334698706     -1.19877401026833      0.07310161661906
  H   -0.98352762397741     -1.93564585631348     -0.44008419567199
  H   -2.34033197723910     -1.39257885680933      0.47446104028877
