11
Coordinates from ORCA-job run
  C   0.48104806228342      0.21314549573920     -0.00550974352801
  C   -0.83471394589807      0.01753210293257      0.28495835915207
  H   -1.33182663859555      0.75326511911905      0.90842094277985
  C   1.21453220273265     -0.68879723490211     -0.81680331174127
  N   1.70012803009428     -1.51534463601926     -1.50008964521228
  N   1.16965459981275      1.38140457829653      0.51531376560024
  O   2.35297539895554      1.50048679588708      0.20644788567486
  O   0.53177587838938      2.16071858616565      1.21906995918329
  N   -1.56173407796829     -1.03462226940986     -0.11985396021402
  H   -1.17452750881585     -1.72032143078903     -0.74936571383131
  H   -2.54831200099028     -1.06746710701981      0.05941146213657
