11
Coordinates from ORCA-job run
  C   0.47447120425567      0.22160484424761      0.06015899085554
  C   -0.87007402153176      0.02000762861812      0.14135090033483
  H   -1.46632449334580      0.77585276490634      0.64233076873497
  C   1.33665855519146     -0.70491172818253     -0.57819185990554
  N   1.92915850487709     -1.55664672901605     -1.13463602755494
  N   1.05714101310492      1.42913526732740      0.62162087009432
  O   2.27451373553881      1.55054143883778      0.50695092900890
  O   0.30617418746474      2.23159321159357      1.17028057025231
  N   -1.51404828827110     -1.05176597213400     -0.34183835363595
  H   -2.51096474662409     -1.13164000490683     -0.26280564225882
  H   -1.01670565065997     -1.78277072129142     -0.82622114592563
