11
Coordinates from ORCA-job run
  C   0.60305809408930     -0.08500083958302      0.11388002460018
  C   -0.62631159428964     -0.68045909602443      0.21412201437507
  H   -0.63908151031748     -1.67434587117119      0.65255540806191
  C   1.77666856844186     -0.77168439495890      0.53320550570686
  N   2.71522018542005     -1.37473030401207      0.90510057589357
  N   0.79012652498869      1.23204538911164     -0.44438182149845
  O   1.93251266738415      1.67535685845608     -0.49985600505596
  O   -0.22387088083761      1.84100680753113     -0.81235024636498
  N   -1.81091420403408     -0.20306393596411     -0.18288252601404
  H   -2.65003598683248     -0.70457377408190      0.04619562693293
  H   -1.86637186401276      0.74344916069679     -0.52558855663710
