11
Coordinates from ORCA-job run
  C   0.60881202323464     -0.11320535355773     -0.05170439743934
  C   -0.61168498768230     -0.71533158641042      0.11433484431732
  H   -0.59990501593510     -1.79887717240044      0.19487571462146
  C   1.79869606603073     -0.88863859683216     -0.11119081973626
  N   2.75094676505792     -1.57714989179132     -0.15380047417695
  N   0.76337757444157      1.31610533263658     -0.17492546381725
  O   -0.26463091711740      2.00618042995991     -0.12520540593842
  O   1.89740794456386      1.76076574308796     -0.32073502111217
  N   -1.81467433881167     -0.14219449875196      0.19056026820642
  H   -1.89143732443114      0.86063152536663      0.12250970832370
  H   -2.63490778935111     -0.70728593130706      0.31428104675149
