11
Coordinates from ORCA-job run
  C   0.60323867631944     -0.07708388671465      0.12700332520955
  C   -0.58521394981285     -0.74646250982860     -0.01099328937544
  H   -0.54686489151306     -1.82085545166383      0.14778183831830
  C   1.79608432890653     -0.77496486849534      0.45969346108225
  N   2.75245159965914     -1.40074209993551      0.73612803509524
  N   0.71929494136838      1.35073316591531     -0.04864328873193
  O   1.82623347383557      1.85887269705627      0.09751466032269
  O   -0.31161415820939      1.97470463946322     -0.33703265065836
  N   -1.78619960260173     -0.24871761632223     -0.31355660269444
  H   -2.58067325841659     -0.85794649776414     -0.38436286930008
  H   -1.88673715953542      0.74146242828950     -0.47353261926778
