11
Coordinates from ORCA-job run
  C   0.60422531902797     -0.14001356143658     -0.03490233401928
  C   -0.61893763670063     -0.63318126222220      0.33938185337555
  H   -0.62236230326233     -1.64495242453938      0.73535210796148
  C   1.77808738292042     -0.92983511646303      0.10196232108962
  N   2.71614393513862     -1.62589969394495      0.23644868058246
  N   0.77770294330229      1.18438072276001     -0.58117342170206
  O   1.91119679467315      1.53213350690979     -0.89587692502147
  O   -0.23518515112036      1.88871455475855     -0.69772965901104
  N   -1.80919601419413     -0.03254823372047      0.27599505968015
  H   -2.63182402478998     -0.51041390358670      0.59591457233546
  H   -1.87085124499502      0.91061541148497     -0.07437225527087
