11
Coordinates from ORCA-job run
  C   0.46941905087900      0.21505477785531     -0.09978685083480
  C   -0.86080104186416      0.09853307132826      0.16579384438167
  H   -1.43342525691720      1.01059049147413      0.29786339135114
  C   1.30348054759997     -0.91665699517886     -0.28205843844205
  N   1.87772545268548     -1.93637373592564     -0.40965736491319
  N   1.07358580903815      1.53295567193452     -0.19530918968572
  O   2.27955095986660      1.56498049428827     -0.42867870972163
  O   0.34847898222010      2.51243113154804     -0.03890813596322
  N   -1.52774983337339     -1.06204898863320      0.25224813481579
  H   -1.04172445491479     -1.94370487385136      0.19902893395815
  H   -2.48954021521975     -1.07376104483947      0.53746438505386
