14

C	0.0	0.0	0.0
C	-0.526407	0.139531	-1.415711
F	1.388566	0.0	0.0
H	0.003197	0.959337	-1.907389
H	-1.599592	0.379743	-1.349667
N	-0.268735	1.355045	0.726087
O	-0.268704	1.311388	1.953195
O	-0.379162	2.363538	0.037839
N	-0.442048	-1.114171	0.704586
H	-0.110139	-1.082995	1.662645
H	-1.463275	-1.172526	0.690869
C	-0.345369	-1.089319	-2.177503
N	-0.153203	-2.05214	-2.819501
Br	-3.69598	0.0	0.0
