14

C	0.0	0.0	0.0
C	-0.495008	-0.045511	-1.429835
F	1.381437	0.0	0.0
H	-0.352727	-1.071623	-1.785951
H	-1.574542	0.166452	-1.420989
N	-0.320676	1.340377	0.66169
O	-0.567998	2.291758	-0.066238
O	-0.217686	1.366377	1.88364
N	-0.524633	-1.000852	0.790994
H	-0.232198	-0.957518	1.752845
H	-0.535947	-1.918232	0.382788
C	0.264254	0.837034	-2.311909
N	0.875744	1.502518	-3.060321
Br	-3.773277	0.0	0.0
