14

C	0.0	0.0	0.0
C	-0.561492	-0.289585	-1.374288
F	1.394191	0.0	0.0
H	-1.631502	-0.032121	-1.334906
H	-0.49116	-1.371044	-1.515533
N	-0.258744	1.495156	0.37747
O	-0.282975	1.748854	1.578629
O	-0.339795	2.31179	-0.530861
N	-0.50777	-0.879817	0.94907
H	-0.287335	-0.53549	1.87706
H	-1.52973	-0.896656	0.843477
C	0.086646	0.383052	-2.492207
N	0.541773	0.869955	-3.457169
Br	-3.712352	0.0	0.0
