14

C	0.0	0.0	0.0
C	-0.491845	0.190893	-1.435352
F	1.350082	0.0	0.0
H	-1.589011	0.249763	-1.393063
H	-0.083548	1.114029	-1.847863
N	-0.362042	1.2894	0.776074
O	-0.790879	1.193468	1.915221
O	-0.101687	2.336523	0.185681
N	-0.490328	-1.102529	0.723084
H	-0.333204	-1.942212	0.176204
H	-1.50164	-0.976743	0.829878
C	-0.073037	-0.945549	-2.246109
N	0.279722	-1.863095	-2.888544
Br	-3.6833	0.0	0.0
