15

C	0.0	0.0	0.0
C	-0.498161	-0.118437	-1.439353
F	1.33985	0.0	0.0
H	0.412273	-0.240242	-2.040571
H	-1.095561	-1.027211	-1.468819
N	-0.336612	1.321367	0.712449
O	-1.063378	1.361653	1.688087
O	0.270706	2.26806	0.219064
N	-0.352394	-1.179425	0.893382
O	-0.745297	-2.213566	0.37249
O	-0.036235	-1.054288	2.073566
N	-1.237258	1.059612	-1.882062
H	-1.481748	0.89858	-2.853365
H	-2.087307	0.939727	-1.301389
F	-2.534834	0.0	0.0
