15

C	0.0	0.0	0.0
C	-0.277751	0.038738	-1.529702
F	1.339857	0.0	0.0
H	-0.28522	-1.027272	-1.79349
H	0.649721	0.467987	-1.921457
N	-0.403581	1.249707	0.758221
O	-0.106434	2.268285	0.139869
O	-0.852281	1.20259	1.889314
N	-0.380394	-1.281769	0.716118
O	-0.786712	-2.225724	0.055676
O	-0.078576	-1.325895	1.906146
N	-1.389813	0.799683	-2.071028
H	-2.169201	0.523841	-1.445432
H	-1.546043	0.448446	-3.010189
F	-2.404837	0.0	0.0
