15

C	0.0	0.0	0.0
C	-0.46985	0.13333	-1.440327
F	1.326692	0.0	0.0
H	-1.562268	0.055427	-1.36973
H	-0.165568	1.137554	-1.740829
N	-0.474018	1.137816	0.881941
O	-0.828567	0.935502	2.029105
O	-0.323316	2.242735	0.36112
N	-0.362249	-1.347988	0.608489
O	0.095534	-1.561126	1.729223
O	-0.938685	-2.168975	-0.088839
N	0.231647	-0.864522	-2.260885
H	0.443698	-0.459263	-3.161834
H	-0.39849	-1.640988	-2.408196
F	-2.540426	0.0	0.0
