15

C	0.0	0.0	0.0
C	-0.43349	0.212062	-1.478203
F	1.339145	0.0	0.0
H	-0.990547	1.140806	-1.480719
H	0.514172	0.348292	-2.01443
N	-0.344081	1.155524	0.928231
O	-0.034677	1.003532	2.107553
O	-0.719033	2.207765	0.431356
N	-0.368825	-1.341537	0.610952
O	-0.001177	-2.278342	-0.1021
O	-0.855111	-1.453574	1.719202
N	-1.237257	-0.782916	-2.147289
H	-2.058739	-0.811365	-1.531658
H	-0.762235	-1.673764	-2.095804
F	-2.382112	0.0	0.0
