15

C	0.0	0.0	0.0
C	-0.449089	-0.162473	-1.476429
F	1.339147	0.0	0.0
H	0.487562	-0.317345	-2.02708
H	-1.039469	-1.070979	-1.488391
N	-0.391573	1.282846	0.70092
O	-0.078252	2.280451	0.047524
O	-0.845223	1.294788	1.829667
N	-0.312963	-1.215436	0.879458
O	0.129109	-1.150842	2.024996
O	-0.801625	-2.212548	0.370785
N	-1.238058	0.868292	-2.108182
H	-0.765973	1.756159	-2.007314
H	-2.063217	0.868889	-1.497377
F	-2.401214	0.0	0.0
