15

C	0.0	0.0	0.0
C	-0.495124	0.000715	-1.416984
F	1.337007	0.0	0.0
H	-0.092403	0.915796	-1.875598
H	-1.596575	0.041286	-1.299597
N	-0.484302	1.110947	0.867566
O	-0.457851	0.917886	2.07917
O	-0.704118	2.177321	0.305259
N	-0.240091	-1.403672	0.744115
O	0.801647	-1.901045	1.170558
O	-1.335415	-1.911231	0.827371
N	-0.01144	-1.229015	-2.042264
H	-0.690312	-1.548959	-2.716644
H	0.874393	-1.091949	-2.508711
F	-2.650477	0.0	0.0
