15

C	0.0	0.0	0.0
C	-0.485363	0.266326	-1.426
F	1.33989	0.0	0.0
H	0.432277	0.440327	-2.003319
H	-1.069468	1.182399	-1.369517
N	-0.353199	1.084214	1.006727
O	-0.029528	0.843994	2.166792
O	-0.760015	2.160873	0.594255
N	-0.338459	-1.385767	0.572061
O	-1.053311	-1.52554	1.546625
O	0.255882	-2.277921	-0.026494
N	-1.230792	-0.850212	-1.998145
H	-2.078432	-0.793987	-1.405392
H	-1.478161	-0.574031	-2.943453
F	-2.511006	0.0	0.0
