15

C	0.0	0.0	0.0
C	-0.494462	-0.120154	-1.44091
F	1.339852	0.0	0.0
H	-1.085727	-1.032497	-1.47064
H	0.417139	-0.241725	-2.038723
N	-0.338302	1.320821	0.711078
O	-1.056187	1.360736	1.69332
O	0.259128	2.269301	0.209356
N	-0.350579	-1.181737	0.892024
O	-0.037525	-1.057676	2.072876
O	-0.737005	-2.216735	0.368209
N	-1.2389	1.051878	-1.891245
H	-2.087188	0.929214	-1.307798
H	-1.486381	0.876907	-2.859961
F	-2.526735	0.0	0.0
