15

C	0.0	0.0	0.0
C	-0.44391	0.109066	-1.454737
F	1.338734	0.0	0.0
H	-0.134858	-0.834243	-1.907771
H	-1.534317	0.179912	-1.402445
N	-0.365064	1.227179	0.817268
O	-0.894686	2.167599	0.243766
O	0.049241	1.242623	1.974127
N	-0.470381	-1.275493	0.667294
O	-0.351284	-2.268433	-0.048944
O	-0.790371	-1.28328	1.842529
N	0.277961	1.216122	-2.098209
H	0.446713	0.973318	-3.064633
H	-0.323871	2.027814	-2.081969
F	-2.496573	0.0	0.0
