15

C	0.0	0.0	0.0
C	-0.468292	0.012699	-1.436924
F	1.339311	0.0	0.0
H	0.138694	0.785988	-1.924866
H	-1.531414	0.264424	-1.386676
N	-0.476003	1.136148	0.835439
O	-0.519475	0.975248	2.048359
O	-0.607283	2.202131	0.242277
N	-0.232098	-1.379155	0.785364
O	-1.294533	-1.668425	1.290028
O	0.783112	-2.070372	0.832191
N	-0.210153	-1.308497	-2.008626
H	0.479103	-1.269352	-2.741817
H	-1.070642	-1.684401	-2.374843
F	-2.550825	0.0	0.0
