16

C	-0.435284	-0.020604	-1.494643
C	0.0	0.0	0.0
Br	0.380302	1.419851	-2.472296
H	1.090422	0.0	0.0
C	-0.050084	-1.295141	-2.083278
N	0.24965	-2.323294	-2.568616
N	-1.979851	0.059277	-1.626845
O	-2.560575	-0.959041	-1.260043
O	-2.49602	1.080084	-2.040025
N	-0.454436	-1.077419	0.801905
H	0.235658	-1.816115	0.81546
H	-1.37531	-1.417313	0.56338
N	-0.52081	1.284691	0.595497
O	-1.744539	1.335074	0.748877
O	0.276758	2.163622	0.897124
Cl	3.243453	0.0	0.0
