16

C	-0.633156	-0.071191	-1.397785
C	0.0	0.0	0.0
Br	-0.031371	-1.688058	-2.284819
H	1.115693	0.0	0.0
C	-2.086322	-0.101773	-1.287246
N	-3.244499	-0.155049	-1.092663
N	-0.225231	1.07123	-2.336043
O	0.948773	1.386905	-2.314406
O	-1.109551	1.515855	-3.058078
N	-0.412196	-1.115451	0.777716
H	-1.292124	-0.959072	1.251797
H	0.307771	-1.336318	1.451968
N	-0.417782	1.318431	0.636523
O	-0.722416	2.252972	-0.106137
O	-0.39338	1.366793	1.861953
Cl	3.19356	0.0	0.0
