16

C	-0.639034	0.098356	-1.386825
C	0.0	0.0	0.0
Br	-0.05254	-1.433846	-2.435682
H	1.115741	0.0	0.0
C	-2.093288	0.084435	-1.310519
N	-3.265161	0.060604	-1.224346
N	-0.187714	1.324944	-2.188756
O	0.973427	1.659887	-2.046833
O	-1.023737	1.82064	-2.934285
N	-0.490137	-1.201712	0.65644
H	0.253315	-1.891087	0.584324
H	-0.571997	-0.984127	1.643635
N	-0.438659	1.191584	0.80273
O	-0.331642	1.114396	2.022743
O	-0.843368	2.178807	0.189204
Cl	3.198904	0.0	0.0
