16

C	-0.534383	0.153717	-1.431528
C	0.0	0.0	0.0
Br	-2.486191	0.361765	-1.393733
H	1.114514	0.0	0.0
C	0.021154	1.216035	-2.252328
N	0.444147	1.999212	-3.023064
N	-0.226425	-1.143926	-2.232406
O	-0.912573	-1.357632	-3.220576
O	0.726388	-1.800975	-1.842137
N	-0.438263	-1.142303	0.691692
H	0.249165	-1.876759	0.645363
H	-1.375687	-1.45231	0.486869
N	-0.387021	1.27288	0.747294
O	-0.204901	2.325611	0.138752
O	-0.805676	1.17725	1.892554
Cl	3.179067	0.0	0.0
