16

C	-0.509011	0.009076	-1.460826
C	0.0	0.0	0.0
Br	-2.447204	0.25149	-1.517219
H	1.09084	0.0	0.0
C	0.088387	0.977029	-2.364495
N	0.495225	1.714102	-3.185613
N	-0.180813	-1.393947	-2.029574
O	0.900219	-1.483423	-2.594019
O	-0.980973	-2.295263	-1.816572
N	-0.429295	-1.082606	0.780778
H	0.284509	-1.787564	0.867482
H	-1.338493	-1.457823	0.569433
N	-0.43039	1.33129	0.608038
O	-0.990972	1.326372	1.695101
O	-0.150558	2.329641	-0.049424
Cl	3.160862	0.0	0.0
