15
Coordinates from ORCA-job run
  C   -0.79085215783112      0.02260094035328      0.34307288939602
  C   0.70325992499865      0.34497350227040      0.22687164699585
  Cl  -1.26029527795628      0.34696232982833      2.04174411754624
  H   1.27577696867437     -0.30524546725522      0.88920926412034
  H   -1.34573943551747      0.73703510217683     -0.26988389496682
  C   -1.14002592900560     -1.40412259838294     -0.03186506460062
  H   -0.54196303822606     -2.11503314106283      0.54181195121048
  H   -0.95809284676308     -1.57054023091928     -1.09582689590985
  H   -2.19458629340873     -1.59818886757028      0.16624843435661
  N   1.10777807873874      1.70482769298557      0.41231354998265
  H   0.47732264609930      2.33922064334358     -0.06159923391830
  H   1.13800397163368      1.93235832144921      1.39610479948402
  N   1.09610007653653     -0.04817189738727     -1.17179730011515
  O   1.79103513245785     -1.04851084706711     -1.31931877490599
  O   0.64327817956921      0.66083451723773     -2.06808548867548
