15
Coordinates from ORCA-job run
  C   -0.82402299947347     -0.03869371223323      0.46763480529052
  C   0.64162030395289      0.37129426992444      0.32775410486911
  Cl  -1.23674270819414      0.01241431876118      2.20426524667533
  H   1.27766245962429     -0.27248964231259      0.93642869306802
  H   -1.44019229026923      0.72174197303716     -0.01952637424580
  C   -1.13215867772517     -1.41446217717272     -0.09414084473977
  H   -0.47284390701703     -2.16885681510766      0.33908305457036
  H   -2.16340761899642     -1.68268379325096      0.13590564522446
  H   -1.01362817850923     -1.42388372330561     -1.17940090343410
  N   0.84958280875671      1.73630487608164      0.64018021111751
  H   1.83147867387129      1.97561918937302      0.66062037530554
  H   0.36585123154701      2.33721016164527     -0.01481274563150
  N   1.02490818573471      0.03189079730939     -1.11481483928528
  O   1.71522190329135     -0.96537057884515     -1.30670915176346
  O   0.57767081340644      0.78096485609580     -1.98246727702094
