15
Coordinates from ORCA-job run
  C   -0.49708108694010     -0.30029398996304      0.79501077598569
  C   0.77550561270955      0.43080448547883      0.34055138955425
  Cl  -0.04350152465063     -1.73603890325202      1.76450422516860
  H   1.43433647387421      0.55826523122120      1.19958873980842
  H   -0.98355112689236      0.38424256539408      1.49605704704883
  C   -1.47185358192064     -0.70361887734765     -0.29469010736513
  H   -1.04389062202435     -1.46016365659395     -0.95030415523307
  H   -1.75710460124669      0.16027916027023     -0.89920342795448
  H   -2.37561018510069     -1.10860334952531      0.16238927458028
  N   0.57924944310555      1.69625809620185     -0.30801425559015
  H   -0.06930802644654      1.62621178905265     -1.07991405654347
  H   0.26908572945282      2.39736553654817      0.35048080525791
  N   1.54462828986102     -0.43451161000762     -0.61768043260244
  O   2.53568250192952     -1.02017062834952     -0.19518989623931
  O   1.10341270428934     -0.48902584912789     -1.76458592587595
