15
Coordinates from ORCA-job run
  C   -0.77912426618850      0.03994672430692      0.36633827068797
  C   0.71717021911883      0.32963534911481      0.20358806087825
  Cl  -1.19030607224506      0.38074950999608      2.07753066078410
  H   1.29563319735290     -0.33272707285863      0.84857592964488
  H   -1.33805522849780      0.76385757148680     -0.23158186372299
  C   -1.16964894511956     -1.38073504477829      0.01001127328501
  H   -0.57221449229856     -2.10065379755854      0.57301355634951
  H   -2.22252891718030     -1.55006227530485      0.23764796836803
  H   -1.01989826696606     -1.55829557684621     -1.05715991454206
  N   1.15779872229934      1.68069683621662      0.37456486554306
  H   1.20939859304739      1.91116496318613      1.35695035174144
  H   0.53203763273329      2.32657875786650     -0.09027186192050
  N   1.05834716154090     -0.07157691859330     -1.20586969727998
  O   1.72749375528800     -1.08614950040324     -1.37418399179001
  O   0.59389690711519      0.64757047416917     -2.08815360802671
