15
Coordinates from ORCA-job run
  C   -0.35990696655179     -0.78038043514729     -0.06394139163594
  C   0.65625128749285      0.33580347373953      0.20789391365409
  Cl  -0.52798621674196     -1.01616245798158     -1.83058585034402
  H   0.77274692118391      0.41196607586304      1.29222469506867
  H   0.04205756581671     -1.71485397648494      0.33020566589389
  C   -1.71043179164747     -0.46595722122931      0.54643307916002
  H   -2.40763022559601     -1.28511093420876      0.36797746244422
  H   -2.13312331214942      0.44009024812199      0.10951170780143
  H   -1.60928206007585     -0.32819453541412      1.62700430738404
  N   0.41925426235228      1.62527603510733     -0.33736001245318
  H   -0.24073351182504      2.15069924155796      0.21579984350900
  H   0.13187431797315      1.58874728370918     -1.30553512839845
  N   2.00322806996785     -0.17795078433849     -0.27121388077174
  O   2.49655539369870      0.32971242499549     -1.26840268951238
  O   2.46812626610208     -1.11268443829006      0.37798827820035
