15
Coordinates from ORCA-job run
  C   -0.54792758340961     -0.37692190313966      0.81829332319426
  C   0.65788683858158      0.47408879735078      0.41806955199503
  Cl  0.01299495276144     -1.85414544747162      1.65604281440184
  H   1.28505658336666      0.64697013060907      1.29277981096084
  H   -1.06924894147054      0.21924876062550      1.56932959449849
  C   -1.49874296704642     -0.74433329039738     -0.30427225472811
  H   -1.88134236617577      0.15810417146837     -0.78625190380655
  H   -2.34896888457573     -1.28799717528837      0.10930246849505
  H   -1.01420815710780     -1.37168598439983     -1.05102432295568
  N   0.22397892208853      1.70840373972745     -0.14757134783543
  H   0.98664793323138      2.37185437238159     -0.19364034335130
  H   -0.13309059503260      1.56101006107666     -1.08348171550878
  N   1.55827527132396     -0.31410573202217     -0.52936427275553
  O   2.58225029783374     -0.80670977725079     -0.06672096499811
  O   1.18743869563118     -0.38478072326958     -1.70149043760601
