15
Coordinates from ORCA-job run
  C   -0.73828197071117     -0.43174392005061     -0.29940660492451
  C   0.71115082442915      0.07470864778286     -0.36550734569534
  F   -1.39880782461303      0.15168297265716     -1.39289959054071
  H   1.15568809866739     -0.22580860705648     -1.31453738925124
  C   -0.73980676223972     -1.88790065003283     -0.52688939407519
  N   -0.76563851727670     -3.04269832042044     -0.73447585984489
  N   -1.34333121147497     -0.14355973196790      0.93926264245890
  H   -1.38953170377971      0.85431430896294      1.10431339768988
  H   -2.25552488345561     -0.57157888420797      1.02283435222997
  N   1.44210032609446     -0.40341607415806      0.73644171103902
  H   1.01124371169967     -0.15246960214840      1.61549616270998
  H   2.41976408411184     -0.15238201860123      0.70905101249121
  N   0.63935489567484      1.60524600560520     -0.47913048447713
  O   0.24407688494124      2.21339977058999      0.51653608116427
  O   1.00754404793232      2.11020610304575     -1.53308869097421
