15
Coordinates from ORCA-job run
  C   -0.72285014888750     -0.56115048186862     -0.20147858427575
  C   0.54620556543235      0.25246545298519     -0.52457013044815
  F   -0.91962907736772     -1.37772501559673     -1.32245154360757
  H   0.40248443937513      0.70636673602493     -1.50652993112739
  C   -0.48861733510008     -1.46456820966162      0.94105448887247
  N   -0.28668167602179     -2.18624920562511      1.84439739163839
  N   -1.81476815490614      0.27904726625021      0.08026755652618
  H   -2.65711151109572     -0.24300672230926      0.28010125746602
  H   -1.97632892194797      0.96242030070505     -0.64823658713659
  N   1.69891417508398     -0.56096176466556     -0.50138571418178
  H   1.93754600893951     -0.83975253749353      0.44283371669998
  H   2.49091799635975     -0.10410028690642     -0.93151345160154
  N   0.58767426163839      1.43022734548498      0.44744660097357
  O   1.09867861729232      1.21694474778165      1.54257278762102
  O   0.10456576120548      2.48904237489484      0.05749214258115
