15
Coordinates from ORCA-job run
  C   -0.75721418942333     -0.43385718431944     -0.24377090905283
  C   0.66050714252043      0.12621980650429     -0.43904842028145
  F   -1.55769865645484      0.20523585343238     -1.20476294385507
  H   0.99659687932239     -0.08816296864466     -1.45378566143600
  C   -0.74831471489828     -1.86854664976434     -0.58106753803086
  N   -0.76948507670772     -3.00533650291399     -0.87197616534761
  N   -1.21822025623509     -0.25874483604673      1.07536489562188
  H   -1.26938267017201      0.72199082945851      1.32177152386731
  H   -2.10292601895358     -0.72276238880084      1.23113074027130
  N   1.52980166258669     -0.40639380807779      0.52977279596216
  H   2.49007963740220     -0.11875422323200      0.40758017905502
  H   1.20071930066469     -0.23460328738384      1.46981056544493
  N   0.53636379475703      1.65731021406304     -0.42431261208927
  O   0.24702148630520      2.17595685448411      0.65493476073370
  O   0.76315167928619      2.25144829124132     -1.47164121086322
