15
Coordinates from ORCA-job run
  C   -0.50148959518685     -0.55731437655221      0.15185497540728
  C   0.46053866392255      0.58052501114571     -0.27186408559618
  F   0.24786678871921     -1.61267423996096      0.61971325839078
  H   -0.11989030898572      1.36525492540524     -0.76032626855700
  C   -1.41944905061507     -0.15210370155771      1.24091955814619
  N   -2.20949284628283      0.16681341534212      2.05048901615281
  N   -1.17058155427181     -1.01484847185613     -1.03514386879243
  H   -1.67776205111062     -1.86866424533721     -0.82766726839519
  H   -1.83470059747652     -0.32106182115664     -1.36034467132467
  N   1.54479679361336      0.15605845353853     -1.09530122047063
  H   1.17136946899190     -0.23175964749859     -1.95300085308656
  H   2.06790533676029     -0.56573005787512     -0.61342823180667
  N   1.01777002387375      1.20660269754999      0.97358100352962
  O   0.44640226921523      2.21037973781854      1.39154816315910
  O   1.97571665883314      0.63952232099445      1.48897049324354
