15
Coordinates from ORCA-job run
  C   -0.77739231189712     -0.29810522665404     -0.38586258253913
  C   0.69418394497513      0.15222525344797     -0.33240198540885
  F   -1.46472640003697      0.45069859322001     -1.30830499183554
  H   1.19793631227495     -0.13892938152601     -1.25437641565952
  C   -0.80216986378511     -1.70762062790993     -0.85624631038834
  N   -0.83331517442618     -2.83460929066839     -1.18627995518985
  N   -1.40228564197504     -0.09051665598510      0.88518331101412
  H   -1.04893914333576     -0.75808800654120      1.55995088266650
  H   -2.40296513557308     -0.22102170944850      0.78977551679346
  N   1.30750826928715     -0.40804120168020      0.81926455142494
  H   2.31189495345818     -0.45594701021489      0.71768613604332
  H   1.08761383279539      0.16814784431453      1.62471105457827
  N   0.70805027236731      1.68014752290983     -0.35119813802775
  O   0.67631509450280      2.21114277878299     -1.45580486499290
  O   0.74929099136837      2.24951711795296      0.73490379152134
