15
Coordinates from ORCA-job run
  C   -0.66982323865080     -0.53825984694298     -0.28363111896861
  C   0.54409723566444      0.39551321861246     -0.38967428657862
  F   -0.55686505191792     -1.39288093889756     -1.37492309406027
  H   0.34945714463398      1.06899977037936     -1.23741177112346
  C   -0.57309731840126     -1.39584298435072      0.92176891516592
  N   -0.55454095420213     -2.10101493928484      1.86080561996230
  N   -1.89940879420496      0.16575691490635     -0.44499240841974
  H   -2.02359393990397      0.81429315898484      0.32225833931412
  H   -2.66948655097369     -0.49365200331598     -0.45002519751977
  N   1.74725725864840     -0.38098255257232     -0.43436342049886
  H   2.54977976890802      0.22437708924007     -0.54657983555045
  H   1.70170272247539     -1.02891560194279     -1.20957424283580
  N   0.65437896318247      1.31423255131670      0.80518540960905
  O   -0.33046150845354      1.46978174796599      1.52384250227078
  O   1.73160426319556      1.88059441590144      0.93631458923339
