15
Coordinates from ORCA-job run
  C   -0.76876482163918     -0.43737303031758     -0.19830746333061
  C   0.67048523197659      0.04453170110583     -0.43890699459617
  F   -1.53173038745107      0.09402936760025     -1.25128948416249
  H   1.01336245490827     -0.31468382327620     -1.40948104841695
  C   -0.80535657213085     -1.90363380671009     -0.34239240736286
  N   -0.85844420081705     -3.06807748150672     -0.47878582906854
  N   -1.24307272951355     -0.07300150017080      1.07650951337293
  H   -2.14647109851675     -0.48133117961979      1.27482388705437
  H   -1.26139556097658      0.93293781763953      1.18989688377721
  N   1.50610081620429     -0.38168846340603      0.60874877087794
  H   2.47742517090425     -0.14330320428370      0.46970030175347
  H   1.16759576757415     -0.07888317125065      1.51156516590231
  N   0.60103509017459      1.56730426825680     -0.63129527443269
  O   0.30945447490176      2.23545133532051      0.36165548454928
  O   0.87077636440111      2.00772117061861     -1.74244150591718
