15
Coordinates from ORCA-job run
  C   -0.69006908538944     -0.46257624057751      0.19738752698855
  C   0.37425074808094      0.55234178589353     -0.25046788506322
  F   0.03477836432203     -1.60205258873514      0.61752364916163
  H   -0.11140425610417      1.49524030152696     -0.50065222775395
  C   -1.47557233424005     -0.02538625161940      1.36409277016516
  N   -2.14810463233256      0.27421562034901      2.27821276849955
  N   -1.54641701216797     -0.70946271807059     -0.88561128936651
  H   -2.25239999647976     -1.40043856708478     -0.67038933557836
  H   -1.01048888133922     -0.95162089722900     -1.70962657254771
  N   1.08574754418397      0.00925860560327     -1.35009296225436
  H   1.69258727130551     -0.73646488070800     -1.03077355807382
  H   1.64466795154300      0.71417249458655     -1.81100501760804
  N   1.25917229582762      0.86925615717393      0.95779906219494
  O   0.80250157549051      1.67755796306923      1.76061524517922
  O   2.33975044729957      0.29395921582196      1.03098782605695
