15
Coordinates from ORCA-job run
  C   -0.61058889589059     -0.56464526667812      0.18991621523194
  C   0.28500918502617      0.61796596061198     -0.21360232376261
  F   0.27803493033670     -1.63442641939722      0.44736339162454
  H   -0.33062615804673      1.50866751077173     -0.33668137455365
  C   -1.35926060089286     -0.34561817773863      1.43938948140961
  N   -2.00484470075838     -0.22917225109004      2.41272360892014
  N   -1.50531479184895     -0.81776133900206     -0.86013409420369
  H   -1.00442269253497     -0.90748452950872     -1.73524298648285
  H   -2.10285108698788     -1.61226336746659     -0.67628274658240
  N   0.97756895545905      0.27876440811889     -1.40332158204766
  H   1.69381289615723     -0.40804379795994     -1.19926704098659
  H   1.40977863711670      1.09101761954850     -1.82190034983007
  N   1.20790910683400      0.93183888367384      0.96661586822673
  O   2.35472199069269      0.50053696626812      0.91537594100236
  O   0.71207322533790      1.59162379984824      1.87504799203417
