15
Coordinates from ORCA-job run
  C   -0.65739621899768     -0.29705527232699     -0.47897159308115
  C   0.73785530302722      0.28936475411746     -0.18307539307605
  F   -1.23517058183375      0.53107094113695     -1.45289696709002
  H   1.33038744795284      0.26753120794067     -1.09719749077306
  C   -0.46055035540606     -1.62086114903958     -1.10123223536705
  N   -0.27449969856736     -2.66727160296346     -1.59990445271817
  N   -1.43546250959655     -0.43665817433869      0.68608870888632
  H   -1.58175708617304      0.45950902880110      1.13464180493354
  H   -2.31084056840252     -0.90929493337167      0.50542301303312
  N   1.40546610864646     -0.31828504813235      0.90734685772522
  H   0.76512550864980     -0.77596894372491      1.54075830318171
  H   2.15451492950777     -0.92830251938528      0.62256599474276
  N   0.55699489331988      1.77411557921614      0.09438889242953
  O   1.17234335653620      2.55554913131013     -0.62013741257384
  O   -0.16701052866320      2.07555700076046      1.04120196974716
