15
Coordinates from ORCA-job run
  C   -0.71388129267698     -0.44821783095587     -0.19356543341727
  C   0.65099899851463      0.22859482481663     -0.43060607955304
  F   -1.56309286461262      0.00785154049182     -1.21262558626835
  H   1.03017610711956     -0.07610702386009     -1.40556888924371
  C   -0.53424216509649     -1.89854136862797     -0.40125502857896
  N   -0.37006618664419     -3.04515745448942     -0.59174670274961
  N   -1.20536654605057     -0.21743230207246      1.10520583931153
  H   -1.33213964925896      0.77261046323577      1.27647723365370
  H   -2.05177686930298     -0.73851019226241      1.29076222955868
  N   1.59165985361278      0.01810651579825      0.60553438450008
  H   1.15087273364710     -0.22694265948879      1.48079857985563
  H   2.31954864769840     -0.63098914194537      0.35447163384203
  N   0.39517676077156      1.71989923143769     -0.59320307448988
  O   0.75404984161757      2.23796318723475     -1.64320523760205
  O   -0.12291736933878      2.29887221068749      0.35952613118125
