15
Coordinates from ORCA-job run
  C   -0.85906399202903     -0.22146389400680     -0.23422184317964
  C   0.62721696492280      0.11525980431170     -0.45677630151107
  F   -1.64745743898922      0.61920425523619     -0.97960940331981
  H   0.91758149784414     -0.17132473541777     -1.46776405031082
  C   -1.09031228725165     -1.60138446723870     -0.73486065458390
  N   -1.27690719351058     -2.70595063174499     -1.08858699853715
  N   -1.20760320991509     -0.02821408983059      1.14079226944820
  H   -2.21507410062640     -0.08126208101204      1.23972505593501
  H   -0.78577460953675     -0.75096771907622      1.71137961360308
  N   1.40376339203192     -0.53993313023768      0.53504121224395
  H   1.38805837930736      0.01261264918163      1.38569964840031
  H   2.36338880395850     -0.65364429466984      0.23894156501528
  N   0.76176153553363      1.63726955851866     -0.43350987609257
  O   1.05595403719138      2.15338339891533      0.64003332966924
  O   0.56346822106904      2.21741537707110     -1.49528356678012
