15
Coordinates from ORCA-job run
  C   -0.54065546737497     -0.52809380635217      0.11097497680834
  C   0.50134309334892      0.56643473253425     -0.22726529309894
  F   0.13031841956190     -1.67496437806339      0.47089675308182
  H   -0.02244690829140      1.43312865449624     -0.63440145533932
  C   -1.41442558157157     -0.15499423520840      1.24678065793868
  N   -2.17041823190142      0.14697805618448      2.09459855816739
  N   -1.25505672496952     -0.82648958755958     -1.10045671558354
  H   -1.81855468531415     -1.65862254768601     -0.96191222768843
  H   -1.87285787760210     -0.06159497455925     -1.34815055711290
  N   1.54145101172928      0.13640194379715     -1.10286554973431
  H   2.00731381141163     -0.66781754721687     -0.69886532146797
  H   1.13184794763352     -0.13705385294650     -1.98771224743585
  N   1.11781233150608      1.03538533539798      1.05924393631787
  O   2.03562889956977      0.35464629563822      1.50537197601121
  O   0.62769996226401      2.03665591154385      1.57476250913595
