15
Coordinates from ORCA-job run
  C   -0.80117191094436     -0.28156429413548     -0.16346168534609
  C   0.62666267755410      0.21137164794121     -0.47215777166592
  F   -1.66697193144880      0.50723945250424     -0.93523734863625
  H   0.82710848875754      0.06694279986709     -1.53336466635291
  C   -0.91490993369368     -1.66352441477928     -0.66947183875484
  N   -0.98979769178321     -2.74925994380883     -1.10942749616292
  N   -1.08593692789089     -0.26075076794429      1.21504935150290
  H   -1.00844907128496      0.67719854095380      1.58897999996821
  H   -1.98556708316432     -0.67186399188878      1.42484436437273
  N   1.62757901368113     -0.35802081771486      0.35009764646602
  H   1.25501799137385     -0.71564710414261      1.21820913156713
  H   2.19450952639143     -1.03927531097059     -0.12792756267592
  N   0.62917130107490      1.72454016079369     -0.30757296212466
  O   0.33953794098119      2.15989101522391      0.80502316086225
  O   0.95221761039605      2.39272302810083     -1.28158232301973
