15
Coordinates from ORCA-job run
  C   -0.64856885162809     -0.55787661158923     -0.29934273253937
  C   0.54179983547899      0.40837851462522     -0.38032209284861
  F   -0.49087869342631     -1.40648678164127     -1.39014884995329
  H   0.34257986107762      1.08087080265978     -1.22788667634102
  C   -0.55221159751695     -1.41260442895458      0.90826495620163
  N   -0.56098966707474     -2.07802613864843      1.87604630469687
  N   -1.89421715024887      0.11082977366785     -0.48238210337388
  H   -2.64524296441693     -0.56986847614687     -0.50059392435418
  H   -2.04897864518322      0.75773003723087      0.28060028557855
  N   1.76431922384486     -0.33779287187400     -0.41071941614936
  H   1.75269701810180     -0.97428908188967     -1.19642465127412
  H   2.55398992135604      0.28870790125754     -0.49361689258977
  N   0.60889558060568      1.32278631779011      0.82139683582742
  O   -0.40274578376826      1.47530031025238      1.50237593753627
  O   1.67855191279834      1.89234073326029      0.99375301958286
