15
Coordinates from ORCA-job run
  C   -0.89361947323928     -0.38525738759087     -0.32663865236285
  C   0.55152335311011      0.16294358136873     -0.42623058209634
  F   -1.57450478188486      0.01021686218929     -1.45285509986104
  H   0.91550613437050      0.01363732241836     -1.45356959989034
  C   -0.75907256611076     -1.86206674076093     -0.37421222190639
  N   -0.59122991985919     -3.02271010311231     -0.42691797814374
  N   -1.65374715663250     -0.02490819268661      0.82314864295062
  H   -1.17104539140106     -0.32404803030561      1.66200303262539
  H   -1.78464524244035      0.97914904824285      0.83707429260358
  N   1.34463915933896     -0.41580193888034      0.62874502154192
  H   1.60681673964289     -1.36361129038446      0.38568276829392
  H   2.19166774030458      0.12769477858400      0.74461832831029
  N   0.58515273699638      1.66379436326502     -0.23784466556351
  O   1.67796366458565      2.14329396420617      0.04790040707126
  O   -0.44540499678121      2.29967376344672     -0.43090369357278
