15
Coordinates from ORCA-job run
  C   -0.71194245858339     -0.44199053613321      0.16529853023314
  C   0.40086480594194      0.54712621646261     -0.21838649431450
  F   -0.04134878469080     -1.62835140930840      0.54528331018915
  H   -0.04169415137130      1.51968566224603     -0.43233317349448
  C   -1.50005132030280     -0.02556082078344      1.33788175681472
  N   -2.17520519093916      0.26056060245413      2.25439349377279
  N   -1.55731256603437     -0.60453056219992     -0.94152506165276
  H   -2.29539882730711     -1.27388329508139     -0.77076587362343
  H   -1.01728410952416     -0.82900268591771     -1.76772725003042
  N   1.10847630726116      0.02554200485845     -1.33084845475586
  H   1.67851970389726     -0.75874100290440     -1.03695671471524
  H   1.70412144008418      0.72670798674242     -1.74965283296770
  N   1.27684315454360      0.77146807091310      1.01670263674768
  O   0.83952716600033      1.56043044302011      1.84901927629674
  O   2.33188483102457      0.14953932563167      1.07961685150013
