15
Coordinates from ORCA-job run
  C   -0.83567187729908     -0.30450223841692     -0.22591143639991
  C   0.62245447520866      0.13239550883313     -0.45867246831864
  F   -1.67664810550435      0.41618237339288     -1.03662226248215
  H   0.94844902004924     -0.19971745122053     -1.44458688870223
  C   -0.95098913680420     -1.73034271115472     -0.62805890505549
  N   -1.04571573258036     -2.86827748088742     -0.90394689287741
  N   -1.21830770172750     -0.04259453656412      1.12881145297959
  H   -2.21970396212812     -0.17006007794697      1.22204458596465
  H   -0.74908705893191     -0.68777952338577      1.75299317272105
  N   1.43393239942780     -0.38945047773377      0.58323381526530
  H   2.40345299601597     -0.44734638893347      0.30354482661457
  H   1.36405208495726      0.21829309824994      1.39254582591179
  N   0.63752902968746      1.65818234701687     -0.54080123367596
  O   0.87688744824755      2.26865909323783      0.49628354847908
  O   0.40836612138155      2.14635846551305     -1.64185714042425
