15
Coordinates from ORCA-job run
  C   -0.73743253560422     -0.60795953944105     -0.29931576623272
  C   0.54718223910790      0.21140332312698     -0.56068284728746
  F   -0.81180857181612     -1.47826422789874     -1.38546303655899
  H   0.43726175360419      0.67472455294765     -1.54271088869881
  C   -0.56651511225194     -1.45157774230744      0.89995567488907
  N   -0.41588255561720     -2.10568884910678      1.86326965125224
  N   -1.89097949195453      0.18617785709842     -0.20747034281031
  H   -1.78303841316494      1.16408556403224     -0.42281481958122
  H   -2.50100980144365      0.01097160411279      0.57202196835511
  N   1.70620217669330     -0.58522855406502     -0.49231061078645
  H   1.90276648753743     -0.88942517215281      0.45320530421816
  H   2.51361498369760     -0.11999716094077     -0.88209352458017
  N   0.53918332992851      1.38144494457090      0.42711880637371
  O   1.01056063300902      1.16783764695109      1.53995340437195
  O   0.05089487827468      2.44149575307252      0.03633702707584
