15
Coordinates from ORCA-job run
  C   -0.65673374567799     -0.54482274844219      0.06599026767463
  C   0.33785478207005      0.62540302452125     -0.00919536481154
  F   0.09373395341843     -1.69514120971469     -0.27170524803625
  H   -0.15390876623577      1.53621482016481      0.33148201037619
  C   -1.18795928960638     -0.78628270585707      1.41830049254785
  N   -1.65076103291760     -1.00815973929276      2.47388376165429
  N   -1.71208742920145     -0.28282560400892     -0.81975798552148
  H   -2.38800624673094     -1.03405376494625     -0.84928999462813
  H   -1.35214202173885     -0.05336563026627     -1.73765588247217
  N   0.80661449413002      0.73761794039645     -1.34273687315597
  H   1.43680522332921     -0.02821472290083     -1.54962327506174
  H   1.29160178244919      1.61224211270013     -1.48986712807052
  N   1.44787521984807      0.36625982538109      1.01213477101582
  O   2.50018169469281     -0.10369419468623      0.59282342733008
  O   1.18693138217117      0.65882259695146      2.17521702115894
