15
Coordinates from ORCA-job run
  C   -0.72298990447127     -0.44618640764914      0.08630852901878
  C   0.41520832863409      0.57201314112356     -0.09123881095388
  F   -0.09266756134793     -1.71239142012264      0.09649765572981
  H   0.00940056035393      1.58043363314815     -0.01435052550307
  C   -1.42832279682159     -0.33129138484646      1.37423638251160
  N   -2.04021994151536     -0.27982693507413      2.37454754288606
  N   -1.63153615137383     -0.27938019720228     -0.96901813381066
  H   -2.39068217147562     -0.94621216610256     -0.93503258951467
  H   -1.14589554589375     -0.29479154968764     -1.85709545089076
  N   1.04027017641888      0.34129285401605     -1.34281821586629
  H   1.64719773041276      1.10830527293172     -1.59804455419078
  H   1.58575038489277     -0.51143719563491     -1.30123009744981
  N   1.36173708743121      0.43174515368902      1.10339776630892
  O   1.00601149077431      0.98720441102970      2.13845649876346
  O   2.38673831398138     -0.22047720961848      0.93638400296126
