15
Coordinates from ORCA-job run
  C   -0.73344269313974     -0.41306809639384     -0.20407765773920
  C   0.63298815626540      0.26122563464269     -0.43887653060993
  F   -1.62142626693164      0.16324107759351     -1.12461304515544
  H   0.95695158915729      0.05454430901176     -1.45845947548079
  C   -0.59694476746065     -1.83634731592958     -0.57047284537675
  N   -0.45903164593604     -2.96405490530595     -0.86577820035799
  N   -1.15459979775537     -0.31220765313892      1.13539498923256
  H   -1.24777404924707      0.65659684372652      1.41541893555474
  H   -2.00334656999463     -0.83360638128622      1.30893968204838
  N   1.61787927888641     -0.07326983279712      0.52019574129822
  H   2.32237595326534     -0.69923580694608      0.16551495666589
  H   1.21607706750468     -0.40460618622605      1.38565980068016
  N   0.40319612176198      1.76603354822194     -0.43200912250039
  O   -0.05793249523651      2.24995873254820      0.59970789685078
  O   0.72603011886052      2.38579603227918     -1.43754512511024
