15
Coordinates from ORCA-job run
  C   -0.63581240029420     -0.50914313066577     -0.22634429540138
  C   0.61457157982048      0.37059321569909     -0.36250261510128
  F   -0.60220943678383     -1.34024395023188     -1.36909113591354
  H   0.51058485328582      0.94121823170887     -1.28977534225675
  C   -0.55166035904408     -1.42328261315883      0.92822602548295
  N   -0.50247579928048     -2.20887043278417      1.79910529031643
  N   -1.79446567708456      0.27292858487254     -0.13067639140998
  H   -1.88128500839194      0.94228813935974     -0.88382230081277
  H   -2.63522655525748     -0.27798160731455     -0.02690104511468
  N   1.82186788982170     -0.35344569737442     -0.25783719447515
  H   2.49102319689827     -0.11958281689923     -0.97287746462812
  H   1.71092319507055     -1.35196225674106     -0.17770043957298
  N   0.51621973581432      1.42994428329364      0.73162089658304
  O   0.75134602832733      1.07218915945074      1.87659246795173
  O   0.18659875709812      2.55535089078531      0.36198354435249
