15
Coordinates from ORCA-job run
  C   -0.80123119176032     -0.30289868246201     -0.32559637102740
  C   0.68319280496262      0.10422535761593     -0.37232828310177
  F   -1.51003294201629      0.39890416515479     -1.26847318927901
  H   1.13683739995497     -0.27562265263988     -1.28802826015989
  C   -0.88942701443562     -1.74110665455338     -0.68788055307745
  N   -0.96990262556543     -2.88753640615072     -0.93123591321118
  N   -1.35969134496271      0.01570834180284      0.95414024011278
  H   -2.36738187186792     -0.08658782710828      0.91158704738791
  H   -0.99826831424799     -0.61644188400919      1.65821106636981
  N   1.33251774627131     -0.38075821163587      0.79345954820036
  H   2.33131102588638     -0.45522630567688      0.65683655232156
  H   1.15561807000366      0.25937653640970      1.56043743188126
  N   0.73825463096489      1.62457026134900     -0.51724758961543
  O   0.83952974477200      2.27848673220461      0.51596020836363
  O   0.67667388204044      2.06490722969937     -1.65984193516519
