13

C	0.0	0.0	0.0
C	-0.494489	0.120238	-1.409104
F	1.394875	0.0	0.0
H	-1.574816	0.272673	-1.400964
H	0.005933	0.950025	-1.902953
H	-0.259338	-0.814693	-1.919765
N	-0.232005	1.352269	0.765267
O	-0.307894	1.278208	1.98932
O	-0.219794	2.392978	0.118714
N	-0.512504	-1.087159	0.696843
H	-1.526656	-1.098025	0.550077
H	-0.332891	-0.973296	1.687346
Br	-3.799285	0.0	0.0
