14
Coordinates from ORCA-job run
  C   0.74654796360481     -0.87165874278125     -0.06803957002785
  C   -0.35852619471667      0.13967437749055     -0.39125427237627
  F   0.69552129527240     -1.90867699727919     -0.99076336836414
  H   -0.13963935109824      0.52835543991636     -1.39231118857741
  H   0.57838744545032     -1.30918332664437      0.92234290379166
  C   2.08447862600948     -0.26642591527351     -0.11414212507443
  N   3.13416413331011      0.25751962369669     -0.15104647133049
  C   -0.35617422716963      1.28150331926287      0.61197340129188
  H   -1.16763362149341      1.96761346020084      0.36851500626544
  H   -0.52366859025137      0.90564949646118      1.62686110103661
  H   0.58551056651780      1.83251530230954      0.60297487222993
  N   -1.67263424939592     -0.47788816476945     -0.44152824769038
  H   -1.94608262295728     -0.80099315336764      0.47976700303858
  H   -1.66125117308240     -1.27700471922262     -1.06334904421313
