14
Coordinates from ORCA-job run
  C   1.14476095402101     -0.33387863161572     -0.03678825550142
  C   -0.28872595474401      0.09753205387233     -0.31929243606185
  F   1.31995389811214     -0.43559033384199      1.33951162661074
  H   -0.39991221383521      0.10899587716680     -1.40997303816929
  H   1.85773250555610      0.41383044261241     -0.39764428728853
  C   1.45376089689010     -1.63165429755399     -0.65219040002027
  N   1.70264511383647     -2.64510976140695     -1.18767909645467
  C   -0.53579845784847      1.50279418747708      0.23084777529483
  H   -1.56488937776110      1.80638052276293      0.02640815750882
  H   0.13083203435061      2.24230546736521     -0.22278835083014
  H   -0.38267123872661      1.51790913467683      1.31204031880292
  N   -1.16788671704579     -0.93956134738210      0.19974350248166
  H   -2.12145237602339     -0.77458926885460     -0.09563195968117
  H   -1.14734906678186     -0.92936404527824      1.21243644330836
