14
Coordinates from ORCA-job run
  C   1.07458345168078     -0.34432633421070     -0.07025780344455
  C   -0.33773241203781      0.20897325964857     -0.30397625209703
  F   1.28753161040763     -0.48332803587671      1.29541982936789
  H   -0.46555767965999      0.29049067203387     -1.38996342351097
  H   1.84213322101042      0.33482899637699     -0.45496282054517
  C   1.23215794250757     -1.66186124141742     -0.70339446892961
  N   1.35341796575340     -2.69627515531663     -1.24424289921675
  C   -0.46163491329324      1.59128802466942      0.32302319355535
  H   -0.32979824324269      1.53175955276595      1.40542903282924
  H   -1.45545983712306      1.98899595899492      0.11882722489732
  H   0.28656084102012      2.28110412521497     -0.07530156270686
  N   -1.38892933570341     -0.65644765529394      0.20220567301686
  H   -1.40293962633426     -1.54310707268206     -0.28801997154276
  H   -1.23533298498545     -0.84309509490724      1.18621424832704
