15
Coordinates from ORCA-job run
  C   -0.77649260907416      0.59136657898534      0.39679154336829
  C   0.32318529701294     -0.07437998649248     -0.42082976750294
  F   -0.68325419805749      1.97932255581454      0.11808828700060
  H   0.24785839393119      0.36699664476251     -1.42306545367122
  H   -0.57848549237291      0.51866361814054      1.47166867723177
  N   -2.05451861939789      0.06093441234559      0.12370261727933
  H   -2.78270795944485      0.61401809519819      0.55461808983334
  H   -2.22020558892683     -0.03131333051920     -0.86909562523937
  N   0.05867759920565     -1.50658746069272     -0.54572365963969
  H   -0.24362708140617     -1.88880609211762      0.34211674800291
  H   0.90604757854342     -1.98736298414582     -0.82340454155734
  C   1.69055732578319      0.27740466877363      0.15985585860214
  H   1.80488337932622     -0.16757359245573      1.15314077854803
  H   2.48850274021367     -0.11160113727000     -0.47852945252889
  H   1.81757923466401      1.35891800967322      0.24166590027305
