15
Coordinates from ORCA-job run
  C   -1.08213513734797      0.11100167299843      0.03945622881157
  C   0.37058232418499     -0.06765186584701     -0.38598966128520
  F   -1.44164910537605     -0.87663463731453      0.93850995706230
  H   0.66764889115761      0.87029839150773     -0.88879713825136
  H   -1.74466073800793     -0.03937997702694     -0.82713799859583
  N   -1.25984438154021      1.37091921877608      0.71486127999175
  H   -2.23600998327165      1.49822748972705      0.95139177030958
  H   -0.97403800919005      2.13464583863128      0.11585498522104
  N   0.45720016654033     -1.22882572724279     -1.26830933849902
  H   1.42724009698146     -1.49197233467814     -1.39164279426068
  H   0.08493321233071     -1.00851996398076     -2.18474701032416
  C   1.26683342675471     -0.27568400127742      0.82308290967599
  H   1.11283966821110      0.51578016304448      1.55591651001795
  H   2.31833423338281     -0.27798792566047      0.52232779241740
  H   1.03172533519014     -1.23521634165700      1.28422250770870
