15
Coordinates from ORCA-job run
  C   -1.10172281043279      0.15017487233181     -0.03687239848325
  C   0.34492309560948      0.03194286146584     -0.48815371905730
  F   -1.46311421295744     -1.05240627505786      0.58055662399399
  H   0.59813213201494      0.97425011991917     -0.99206557794341
  H   -1.74965667465262      0.21145706654238     -0.91950229811933
  N   -1.27758973155868      1.19744536105680      0.92530653896579
  H   -0.79478764796434      2.03631850153122      0.63236455993852
  H   -2.25869606700026      1.41287657306195      1.04481769002823
  N   0.38815083383442     -1.01834415929708     -1.50400915875065
  H   0.11786861149602     -1.89358501539479     -1.06880925959946
  H   1.33806555429532     -1.13044598669865     -1.83813420892022
  C   1.28663824178185     -0.18231780249467      0.69470395641661
  H   1.02050419473869     -1.10406554357031      1.21554480077943
  H   2.31741491443959     -0.26908768537081      0.34026765279900
  H   1.23286956635580      0.63578711197501      1.41498479795204
