15

C	-0.421456	0.13478	-1.440577
C	0.0	0.0	0.0
Cl	-2.00926	0.84727	-1.724835
H	1.094211	0.0	0.0
N	0.605823	1.057918	-2.15568
O	1.149222	0.621548	-3.159637
O	0.778735	2.137564	-1.618881
N	-0.30275	-1.203591	-2.156557
O	-1.064105	-1.437562	-3.085552
O	0.623702	-1.902356	-1.761894
C	-0.499107	-1.211515	0.612669
N	-0.858134	-2.192368	1.15667
C	-0.393981	1.14665	0.797888
N	-0.638397	2.052656	1.507432
H	2.37111	0.0	0.0
