15

C	-0.33444	-0.01231	-1.466622
C	0.0	0.0	0.0
Cl	0.007996	1.519158	-2.210483
H	1.099722	0.0	0.0
N	0.467395	-1.13862	-2.148929
O	0.162683	-2.252315	-1.738027
O	1.310232	-0.854732	-2.978553
N	-1.799238	-0.370444	-1.805484
O	-2.007322	-0.734392	-2.956192
O	-2.625197	-0.21782	-0.918018
C	-0.432792	-1.171838	0.733545
N	-0.719705	-2.091526	1.409416
C	-0.449478	1.200912	0.667365
N	-0.747118	2.166985	1.270129
H	2.392516	0.0	0.0
