13

C	-0.27894	-0.17008	-1.472655
C	0.0	0.0	0.0
Br	0.09104	-1.964473	-2.072667
H	1.096325	0.0	0.0
H	0.370308	0.49693	-2.041107
N	-1.693725	0.1548	-1.886888
O	-2.597429	-0.126496	-1.107974
O	-1.826701	0.673506	-2.993257
C	-0.51779	-1.03591	0.86724
N	-0.820391	-1.89139	1.616667
C	-0.398245	1.325924	0.436464
N	-0.606294	2.420515	0.815396
H	2.446817	0.0	0.0
