13

C	-0.480137	0.063892	-1.435042
C	0.0	0.0	0.0
Br	0.503886	1.425458	-2.450307
H	1.095265	0.0	0.0
H	-1.530449	0.318429	-1.564276
N	-0.296334	-1.252373	-2.139965
O	-1.054643	-1.457422	-3.08696
O	0.593977	-1.995739	-1.747493
C	-0.49537	-1.177985	0.684684
N	-0.871922	-2.12719	1.271321
C	-0.435195	1.198543	0.696605
N	-0.734077	2.18503	1.264176
H	2.423074	0.0	0.0
