13

C	-0.262621	-0.038941	-1.488254
C	0.0	0.0	0.0
Br	0.138651	-1.766052	-2.245576
H	1.097583	0.0	0.0
H	0.382687	0.690733	-1.979056
N	-1.67579	0.319244	-1.861771
O	-1.80641	1.245356	-2.663149
O	-2.58405	-0.314218	-1.3372
C	-0.528103	-1.105592	0.768107
N	-0.870699	-2.008947	1.439593
C	-0.417028	1.281446	0.536721
N	-0.704318	2.344525	0.952295
H	2.439956	0.0	0.0
