13

C	-0.485808	0.054556	-1.43302
C	0.0	0.0	0.0
Br	0.510978	1.389134	-2.472986
H	1.095412	0.0	0.0
H	-1.532047	0.323941	-1.5586
N	-0.328635	-1.272919	-2.120834
O	0.577032	-2.009229	-1.749663
O	-1.122435	-1.494572	-3.035633
C	-0.489811	-1.174038	0.694269
N	-0.863222	-2.117621	1.291783
C	-0.431178	1.202646	0.691216
N	-0.725111	2.193499	1.253739
H	2.414374	0.0	0.0
