13

C	-0.265019	-0.073525	-1.486312
C	0.0	0.0	0.0
Br	0.110631	-1.823868	-2.202502
H	1.097888	0.0	0.0
H	0.388813	0.634295	-1.998202
N	-1.674984	0.290066	-1.87503
O	-1.79155	1.11903	-2.777237
O	-2.592608	-0.251355	-1.27004
C	-0.525221	-1.087769	0.795536
N	-0.854943	-1.985456	1.481335
C	-0.414043	1.294777	0.50658
N	-0.683867	2.371852	0.89692
H	2.441609	0.0	0.0
