13

C	-0.391812	0.058851	-1.475641
C	0.0	0.0	0.0
Br	0.072717	1.760184	-2.252751
H	1.092881	0.0	0.0
H	-1.458191	-0.085874	-1.658992
N	0.278451	-1.07279	-2.258692
O	0.392178	-0.934364	-3.469767
O	0.547599	-2.081247	-1.619134
C	-0.527398	-1.175832	0.672098
N	-0.942374	-2.102652	1.267344
C	-0.461458	1.177226	0.713636
N	-0.803444	2.110732	1.343883
H	2.465114	0.0	0.0
