13

C	-0.480004	0.051497	-1.434886
C	0.0	0.0	0.0
Br	0.486368	1.419361	-2.455718
H	1.095514	0.0	0.0
H	-1.534351	0.290368	-1.565778
N	-0.27898	-1.271198	-2.12875
O	-1.017362	-1.481751	-3.089216
O	0.601959	-2.015467	-1.71127
C	-0.499631	-1.170939	0.694068
N	-0.888295	-2.110682	1.288551
C	-0.435655	1.203611	0.687894
N	-0.736596	2.192402	1.251081
H	2.416008	0.0	0.0
