13

C	-0.382548	-0.016535	-1.48637
C	0.0	0.0	0.0
Br	-0.219081	1.710914	-2.309011
H	1.097442	0.0	0.0
H	-1.399391	-0.366428	-1.665686
N	0.496912	-1.047677	-2.204299
O	1.206823	-0.722707	-3.14002
O	0.33831	-2.183319	-1.767566
C	-0.484415	-1.174932	0.703485
N	-0.859333	-2.097859	1.330733
C	-0.466937	1.184539	0.688348
N	-0.781708	2.141926	1.297325
H	2.448155	0.0	0.0
