13

C	-0.383031	-0.021688	-1.455537
C	0.0	0.0	0.0
Br	-2.294357	-0.222589	-1.80819
H	1.095323	0.0	0.0
H	0.116715	-0.853647	-1.95407
N	0.0879	1.218099	-2.183489
O	0.539045	2.137427	-1.513825
O	-0.002242	1.184758	-3.40643
C	-0.38133	-1.262454	0.611718
N	-0.644302	-2.305813	1.086481
C	-0.549319	1.10629	0.760852
N	-0.97223	1.974463	1.432176
H	2.45944	0.0	0.0
