13

C	-0.262354	-0.158914	-1.479387
C	0.0	0.0	0.0
Br	0.125107	-1.945826	-2.093781
H	1.094501	0.0	0.0
H	0.39191	0.5184	-2.030687
N	-1.672126	0.167755	-1.902365
O	-2.587749	-0.219418	-1.185277
O	-1.791057	0.799356	-2.951288
C	-0.523947	-1.04273	0.85495
N	-0.861148	-1.895008	1.592758
C	-0.419521	1.319828	0.431727
N	-0.701634	2.414213	0.759892
H	2.452362	0.0	0.0
