16

C	-0.439948	-0.077246	-1.464783
C	0.0	0.0	0.0
F	-1.786971	-0.297352	-1.50256
H	1.093039	0.0	0.0
N	-0.197147	1.26548	-2.142229
O	-1.150443	2.032391	-2.227264
O	0.94883	1.477701	-2.521259
N	0.22663	-1.071528	-2.218527
H	1.205681	-0.797961	-2.285235
H	0.191223	-1.912646	-1.649172
N	-0.39045	-1.267438	0.613845
H	-1.324795	-1.214665	0.998827
H	0.267811	-1.48009	1.353179
C	-0.533339	1.175996	0.69319
N	-0.982342	2.073976	1.304354
Cl	3.277507	0.0	0.0
