16

C	-0.314513	-0.006435	-1.489147
C	0.0	0.0	0.0
F	-1.625617	-0.278794	-1.757647
H	1.097258	0.0	0.0
N	-0.107954	1.389169	-2.130976
O	0.415562	2.278919	-1.473598
O	-0.443157	1.461429	-3.310259
N	0.509561	-0.960281	-2.116481
H	0.433126	-0.894899	-3.123773
H	1.476058	-0.84341	-1.808083
N	-0.51248	-1.266278	0.567526
H	-0.241015	-1.997572	-0.083187
H	0.0311	-1.429406	1.408859
C	-0.60065	1.110609	0.733726
N	-1.111146	1.935967	1.395693
Cl	3.278872	0.0	0.0
