16

C	-0.414085	-0.117314	-1.47179
C	0.0	0.0	0.0
F	-1.718513	-0.505986	-1.540372
H	1.10235	0.0	0.0
N	-0.33075	1.249874	-2.137271
O	-1.381129	1.819166	-2.413455
O	0.803722	1.672204	-2.327489
N	0.388142	-1.009555	-2.228096
H	0.367037	-1.889957	-1.719255
H	1.347901	-0.669447	-2.174657
N	-0.368634	-1.265902	0.628503
H	-1.324146	-1.242812	0.963002
H	0.258871	-1.430899	1.406117
C	-0.560037	1.180947	0.66232
N	-1.054307	2.085809	1.227316
Cl	3.264869	0.0	0.0
