16

C	-0.533199	0.309335	-1.401688
C	0.0	0.0	0.0
F	0.053091	1.470347	-1.872185
H	1.099171	0.0	0.0
N	-0.103237	-0.745198	-2.418991
O	-0.691628	-0.700522	-3.499899
O	0.799184	-1.516522	-2.120482
N	-1.940466	0.347426	-1.442775
H	-2.283519	1.062093	-0.813839
H	-2.25818	0.521825	-2.389461
N	-0.45647	-1.270662	0.537827
H	0.206572	-1.979977	0.25604
H	-1.374921	-1.496623	0.176768
C	-0.485875	1.100567	0.848335
N	-0.976748	1.978017	1.457433
Cl	3.294021	0.0	0.0
