16

C	-0.563767	0.095206	-1.408465
C	0.0	0.0	0.0
F	-1.966871	0.243769	-1.311102
H	1.101472	0.0	0.0
N	-0.169096	1.3725	-2.130689
O	-0.487099	1.421409	-3.317908
O	0.384274	2.257046	-1.491284
N	-0.178834	-0.981335	-2.184809
H	-0.24401	-1.82988	-1.639136
H	-0.666169	-1.011494	-3.067577
N	-0.372837	-1.3253	0.523676
H	0.391981	-1.639324	1.110217
H	-1.21156	-1.266025	1.090107
C	-0.498835	1.078584	0.857411
N	-0.935603	1.85298	1.626701
Cl	3.249077	0.0	0.0
