18

C	-0.39435	0.027896	-1.443773
C	-0.012328	0.082103	0.026525
F	-0.075002	1.281273	-2.005136
H	1.087131	0.176082	0.02607
C	0.381361	-1.031414	-2.201395
H	0.29007	-0.839928	-3.273749
H	-0.015694	-2.025611	-1.986154
H	1.428789	-0.985077	-1.866121
C	-1.85622	-0.127726	-1.625232
N	-2.999627	-0.322523	-1.810162
C	-0.347069	-1.211437	0.745016
H	-1.397526	-1.492877	0.619059
H	-0.153143	-1.084681	1.814882
H	0.315368	-2.006014	0.399047
N	-0.733317	1.20729	0.640942
H	-0.408938	2.056697	0.190722
H	-0.43048	1.267403	1.60792
H	2.971411	-0.695378	-0.311677
