18

C	-0.380735	0.063025	-1.457023
C	-0.027712	0.114787	0.035612
F	0.008977	1.296126	-2.016656
H	1.065398	0.212006	0.05102
C	0.328436	-1.045134	-2.204729
H	-0.14365	-2.008354	-1.997983
H	0.273713	-0.846332	-3.278768
H	1.371737	-1.081918	-1.842632
C	-1.85127	0.004263	-1.631727
N	-3.020672	-0.062809	-1.726692
C	-0.359561	-1.190535	0.734117
H	-0.228107	-1.040943	1.807803
H	-1.39169	-1.515285	0.552332
H	0.345364	-1.95862	0.411619
N	-0.643518	1.247728	0.723802
H	-1.655452	1.157719	0.691235
H	-0.400491	2.096972	0.226834
H	2.878186	-1.037318	-0.451947
