15
Coordinates from ORCA-job run
  C   -0.91433276313185     -0.04716628855453     -0.25300259680344
  C   0.43569504382121      0.69879603222626     -0.13263081451889
  Cl  -2.21696777471912      1.23890893894086     -0.45307187572867
  H   0.48029422597075      1.42346801672333     -0.95120758349327
  C   -0.93204522336913     -0.82870463288291     -1.49325570912543
  N   -0.92268570206631     -1.45507079636753     -2.48682406039217
  N   -1.11988527046263     -0.90325792824468      0.85476754814789
  H   -1.15453471071645     -0.37932365907422      1.72242629353989
  H   -1.96186776245983     -1.45633969132839      0.75717362053615
  C   1.63086630672541     -0.25630611592897     -0.20168555846507
  H   2.55805276353273      0.30825043401562     -0.08899084282276
  H   1.65151474089732     -0.76487738767373     -1.16701390157734
  H   1.56826104584545     -1.00104012933439      0.59096608943277
  C   0.44050261391023      1.43780181114564      1.13130956979092
  N   0.45713246622224      1.98186139633766      2.17203982147941
