15
Coordinates from ORCA-job run
  C   -0.82677876798648     -0.22726767824251     -0.29997326970062
  C   0.38026888328977      0.61301707629745      0.17427998497603
  Cl  -1.13437554812405      0.24322340865845     -2.05805307486258
  H   0.08734006905964      1.66282242409087      0.04519175570260
  C   -0.49287085709790     -1.65403884916705     -0.31390664128863
  N   -0.21050763420712     -2.79418547813060     -0.32111939501760
  N   -1.94437061973206     -0.00479477503048      0.53578832473113
  H   -2.20983266401039      0.97249560938648      0.55164560120811
  H   -2.74020360914233     -0.57379428534156      0.27607762284974
  C   1.67455874092021      0.34569948534035     -0.59711349202864
  H   2.47059445551433      0.97423468193340     -0.19537224507185
  H   1.97588438335701     -0.69793009357154     -0.48883579550238
  H   1.54884854478210      0.57438309991634     -1.65445299878671
  C   0.59153945684385      0.37265089827781      1.60487096195566
  N   0.82990516653342      0.19548447558259      2.74097266083575
