15
Coordinates from ORCA-job run
  C   -0.81278457948212     -0.24547140936875     -0.32089023733400
  C   0.36137120193120      0.61998978886665      0.18962431261781
  Cl  -1.09416801636889      0.23594640730127     -2.07999114235400
  H   0.04320011459806      1.66353559334986      0.06992266742878
  C   -0.44225455002895     -1.66305977150013     -0.34092292864363
  N   -0.14186062173701     -2.79872859193363     -0.34636968068922
  N   -1.95389634939024     -0.06119080362681      0.49257123123478
  H   -2.24501007587138      0.90881919383367      0.51224301431548
  H   -2.72871780221745     -0.64725303457130      0.20830487283265
  C   1.67742655107464      0.39821841969084     -0.55886767368663
  H   2.00316779381068     -0.63902619551835     -0.46102275098874
  H   1.56742285280017      0.64090560755523     -1.61475071414843
  H   2.44886123333300      1.03997235302492     -0.13087717893756
  C   0.54939085154036      0.36406060186021      1.62068295493286
  N   0.76585139600791      0.18228184103633      2.76034325341985
