15
Coordinates from ORCA-job run
  C   -0.96236165797197      0.09489839847296     -0.37547499262256
  C   0.43570781570582      0.69617451754095     -0.03913371697130
  Cl  -2.09957470071150      1.47826643608632     -0.54392510057753
  H   0.65451108141746      1.46995304436576     -0.78236468801215
  C   -0.87110158431962     -0.57795604092097     -1.67729113617838
  N   -0.74694436705743     -1.12839459881766     -2.70744752017084
  N   -1.51221053714384     -0.82024239923893      0.58110681341613
  H   -1.52701980450348     -0.41310741985995      1.50950080864202
  H   -1.01628829482918     -1.70254526181048      0.58345484971428
  C   1.54166355346903     -0.36287637442225     -0.04577715156095
  H   1.34804678121740     -1.13644330686671      0.69954868180216
  H   2.49798951953334      0.10214092096853      0.19809803222916
  H   1.62536954930260     -0.82498906837422     -1.03072251084316
  C   0.35205310619130      1.32924173516593      1.27713047747414
  N   0.28115953970008      1.79387941771067      2.35329715365901
