15
Coordinates from ORCA-job run
  C   -0.73500665579082     -0.50360137235041     -0.05945058680591
  C   0.53076734374943      0.21704792302785      0.45995597080703
  Cl  -0.22747166411334     -1.72580283919137     -1.33069725388249
  H   0.18017177764000      0.82667374298394      1.30135551172966
  C   -1.34043138504765     -1.27556972858664      1.03016479469714
  N   -1.83498049403159     -1.86841261244998      1.91558330952435
  N   -1.67696480722246      0.44976865982144     -0.53533529449569
  H   -2.57066730112355      0.01462627424693     -0.73052556471539
  H   -1.34193887021887      0.89631902792205     -1.38013066373229
  C   1.18043613838113      1.13033515218666     -0.58143558781641
  H   2.09088304865541      1.56391663809044     -0.16564831203834
  H   1.44650623052563      0.57234902757401     -1.47978084689976
  H   0.51069485315731      1.95225276333060     -0.83858756286547
  C   1.49432658156346     -0.75219516586545      0.98249957016861
  N   2.29467520387592     -1.49670749074010      1.41103251632491
