15
Coordinates from ORCA-job run
  C   -0.92192941972989      0.01852814542827     -0.33916458130591
  C   0.40587687400817      0.74993092657580     -0.04969573565374
  Cl  -2.21565004782735      1.23240234285826     -0.55859556850070
  H   0.58829073068782      1.42652995571640     -0.89193451797604
  C   -0.79012268343719     -0.70526169648373     -1.61957664249184
  N   -0.65009316521464     -1.33194862852092     -2.60484867300744
  N   -1.28467228298451     -0.82061817775889      0.77522760189540
  H   -0.65238822797462     -1.61104596890246      0.83900762311412
  H   -2.22730545756764     -1.17421853483939      0.65766544325846
  C   1.58600041038158     -0.21785360152042      0.09477672536422
  H   2.51039581296242      0.35162980182435      0.20101619294530
  H   1.47812147760575     -0.83683488468655      0.98696339383645
  H   1.67709332667175     -0.85473085423296     -0.78741222976449
  C   0.26676985276762      1.56120520100516      1.16087322717746
  N   0.22961279965073      2.21228597353710      2.13669774110876
