15
Coordinates from ORCA-job run
  C   -0.86578153633887     -0.01864676998044     -0.38700011944978
  C   0.50105157215669      0.65628924151432     -0.12529389566225
  Cl  -2.02958472133348      1.31559485385647     -0.89552027123763
  H   0.71997402989149      1.29137116945289     -0.98884229992444
  C   -0.75759658774628     -0.91337435114077     -1.54346978601987
  N   -0.65195497216115     -1.63316230829298     -2.46566062547343
  N   -1.29468962732181     -0.75086825539599      0.74588666306287
  H   -2.15271624538972     -1.25733887169470      0.56677657900552
  H   -1.41881629711299     -0.14341192992679      1.54868100246495
  C   1.62074484597917     -0.36860052468734      0.07944154869668
  H   2.56019650102333      0.14991570991533      0.27734265554257
  H   1.38955318983695     -1.02053931665427      0.92078878762747
  H   1.74425790313545     -0.97653019969161     -0.81804833721324
  C   0.36933632594310      1.51483021658876      1.05330168355923
  N   0.26502561943813      2.15447133613711      2.03261641502135
