15
Coordinates from ORCA-job run
  C   -0.85480193355864     -0.26744220246044     -0.39503281907587
  C   0.32885731355904      0.62578934603746      0.07890686109916
  Cl  -1.17973376026514      0.16486356588182     -2.10891751944336
  H   0.00898155227572      1.66031413986538     -0.09714462518903
  C   -0.45098580521515     -1.67761605107659     -0.33746838256877
  N   -0.09243883551103     -2.79338057913320     -0.25708941765691
  N   -2.08405719383206     -0.10833963308080      0.33247846791822
  H   -1.98244548410783     -0.44171470641572      1.28501404941299
  H   -2.37011397249311      0.86426036686357      0.33845501126423
  C   1.65744856219767      0.36345675402600     -0.63176377185532
  H   2.41981469977384      1.04517245060361     -0.25122682582921
  H   1.55166096361169      0.52440774444194     -1.70421194090251
  H   1.99288340436660     -0.66007732855730     -0.45567406646490
  C   0.46948293299564      0.43743568152723      1.52488092718510
  N   0.58644755620280      0.26387045147702      2.68079405210615
