15
Coordinates from ORCA-job run
  C   -0.92836121171723     -0.00282470045811     -0.31823886479324
  C   0.38952595137708      0.75842094302116     -0.06177308549548
  Cl  -2.25334165423873      1.18125745880833     -0.51160430676611
  H   0.53908244051673      1.43350703747118     -0.91172771098240
  C   -0.81046877949889     -0.72952454227612     -1.59842944009761
  N   -0.68161073757088     -1.36377410879073     -2.58026321359531
  N   -1.24656645267131     -0.84602457934129      0.80683839123590
  H   -2.18568951228057     -1.21615612303010      0.71444686465675
  H   -0.59958222190632     -1.62573551333809      0.85361071169671
  C   1.59237032600077     -0.18366702157590      0.06221786984519
  H   1.67801697457428     -0.82266201299590     -0.81910755930513
  H   2.50678921675252      0.40539057796088      0.14629294794408
  H   1.51611079230858     -0.80058559078981      0.95917579626341
  C   0.25867990666510      1.57475874779795      1.14622695994293
  N   0.22404496168887      2.23761942753654      2.11433463945031
