15
Coordinates from ORCA-job run
  C   -0.68436205457617     -0.51645365278579     -0.15881463972079
  C   0.53817562068964      0.24539822929828      0.40431876138370
  Cl  -0.16924007537801     -1.63766248877461     -1.45081851788818
  H   0.13736452784659      0.90913293135342      1.18309305082920
  C   -1.28878965391065     -1.33249587000916      0.91080871079339
  N   -1.82360957052116     -1.91299027273170      1.78266772992278
  N   -1.60474888383046      0.43680762424408     -0.73690756429490
  H   -2.36165274166820     -0.05222627425830     -1.20212649282499
  H   -2.00454794601004      1.00986284889059      0.00033556087728
  C   1.26198142434302      1.08630509973423     -0.64882833257969
  H   0.55085027487994      1.74018412451955     -1.15100352468194
  H   2.03097381971424      1.68912698247425     -0.16285803927698
  H   1.74113363748479      0.44623546445138     -1.38892159375864
  C   1.45592541872251     -0.68732452206761      1.05921641942802
  N   2.21954620221392     -1.42490022433862      1.56083847179174
