15
Coordinates from ORCA-job run
  C   -0.65243158269061     -0.55381112408867     -0.17020656023030
  C   0.49669595944209      0.29471230045949      0.42270407769078
  Cl  -0.00113320537406     -1.74690424212206     -1.32979402061130
  H   0.01481409454548      0.99766536122952      1.11648665634543
  C   -1.31031332625195     -1.31171454118222      0.91059605245210
  N   -1.88831310976962     -1.85002624374867      1.78182428891517
  N   -1.55631167969590      0.31708249041682     -0.88749515136746
  H   -2.25929365586180     -0.23435067884243     -1.36731060023327
  H   -2.02941574243969      0.92874415255533     -0.22884981742011
  C   1.27088801081292      1.08365041444349     -0.63483134826015
  H   1.82697352064984      0.41016760651922     -1.28615213418437
  H   1.97939812338050      1.75033282620234     -0.14039503121883
  H   0.57912888224351      1.67032247598563     -1.23705296565160
  C   1.39185105078782     -0.54980491283293      1.21435721149845
  N   2.13846266022153     -1.20806588499484      1.83711934227547
