15
Coordinates from ORCA-job run
  C   -0.70246239666064     -0.64187590126223     -0.13412569006723
  C   0.44516718810678      0.24517958186629      0.43547839741878
  Cl  0.00879435335177     -1.85132182206036     -1.24863075500848
  H   -0.04049791285801      0.90997931899165      1.16258547452070
  C   -1.33123670838015     -1.35631355026257      0.98552743326283
  N   -1.83767605124485     -1.87413743151397      1.91049013147333
  N   -1.73224162937604      0.06273961390452     -0.85153379193585
  H   -1.35634744567766      0.52620439594534     -1.66878046537651
  H   -2.20233684792065      0.73069521846911     -0.25116547913174
  C   1.14774669377351      1.09556397705767     -0.62344648539342
  H   1.61923758084471      0.46736683000582     -1.37910715594207
  H   1.92086495181659      1.70126765808311     -0.14860750290910
  H   0.44170048870948      1.77404379268527     -1.10471104105666
  C   1.41075859295917     -0.57202981231601      1.17058874633417
  N   2.20752914255597     -1.21636186959365      1.74443818381127
