15
Coordinates from ORCA-job run
  C   -0.70715898650907     -0.62779270614171     -0.17316572614855
  C   0.46635605220019      0.19653361701644      0.43681559832318
  Cl  -0.05052509887643     -1.69505148301556     -1.45446846603282
  H   0.01649100624776      0.76956142846342      1.25876123730240
  C   -1.27548584921585     -1.47209903667136      0.88669749802884
  N   -1.73026827283415     -2.09489648751693      1.77298581458144
  N   -1.77354988806656      0.14636481086164     -0.75124081003108
  H   -2.21987807306736      0.73023395468141     -0.05324428371973
  H   -1.43987100479076      0.70951932908885     -1.52286821427836
  C   1.11284632176292      1.16861342723151     -0.55084710177495
  H   1.54160090914028      0.63556241628591     -1.39939790956686
  H   0.38343079528337      1.89629952010824     -0.91009668706171
  H   1.91187445156175      1.71735561531708     -0.05020929006463
  C   1.46918893486730     -0.69272242222548      1.02338424477828
  N   2.29494870229659     -1.38848198348344      1.48489409566455
