15
Coordinates from ORCA-job run
  C   -0.71035191254605     -0.53450224568437     -0.09224885366573
  C   0.49520187958102      0.24294307703327      0.48516503626765
  Cl  -0.08563883875338     -1.74631118464354     -1.32082842881678
  H   0.07562536155578      0.84500713813610      1.30002864611405
  C   -1.34057333866412     -1.32111239306488      0.97248245960553
  N   -1.85313651779560     -1.92788202414906      1.83800111217693
  N   -1.66393331435157      0.37417416838899     -0.62845038810815
  H   -2.52689558056737     -0.09985074502051     -0.86664779279971
  H   -1.30246987801314      0.82712768964768     -1.45880071449239
  C   1.16114815281022      1.17322166965488     -0.53067313942812
  H   1.49711848935194      0.61869571991307     -1.40749455452834
  H   2.02980141169693      1.64772297973018     -0.07234512135863
  H   0.47290000312589      1.96433611913755     -0.83175708497025
  C   1.46917851426044     -0.68021780385428      1.06826300148311
  N   2.28002556830902     -1.38335216522509      1.54430582252084
