15
Coordinates from ORCA-job run
  C   -0.73366225316100     -0.60877457026679     -0.12327551943004
  C   0.48676115127960      0.19736682371189      0.41432121457591
  Cl  -0.15605603291657     -1.75164103504686     -1.37708415623009
  H   0.08463975063074      0.81973523867322      1.22511112618622
  C   -1.29773914639144     -1.38671034378420      0.98841107530477
  N   -1.74991214744977     -1.95451597221304      1.91204718224325
  N   -1.79069653564013      0.17848498200818     -0.70141721574857
  H   -2.19053464133000      0.81005484699166     -0.01671201231248
  H   -1.46300435843271      0.69394849776217     -1.50820594051950
  C   1.13417542222992      1.10355630370042     -0.63351085952406
  H   1.96372715446389      1.64790249560247     -0.18005637014054
  H   1.52167683714727      0.52009266651729     -1.46860063423876
  H   0.41771899324706      1.83766596214174     -1.00532928942615
  C   1.47734075430758     -0.70202457275342      1.00633090473180
  N   2.29556505201553     -1.40614132304472      1.46897049452823
