15
Coordinates from ORCA-job run
  C   -0.84670657214252     -0.27317665606395     -0.40335874416190
  C   0.33033552213992      0.62667751281491      0.07488328740923
  Cl  -1.14390414054188      0.13248168282890     -2.12873426969745
  H   0.01412708798228      1.65868251040310     -0.12142899684769
  C   -0.44516171449573     -1.68269324797942     -0.31763483182514
  N   -0.09395490968127     -2.79932052783709     -0.21862498749011
  N   -2.08722470044612     -0.10225339466101      0.30171684216851
  H   -2.37375327285313      0.87009231267084      0.28644754122823
  H   -2.00068512738803     -0.41918087831863      1.26131175520762
  C   1.66911854822580      0.35279595553566     -0.61190025392158
  H   1.99974123748495     -0.66908289636657     -0.41785505974552
  H   1.58033510090957      0.50026446466327     -1.68780606443445
  H   2.42714722989092      1.03772071722613     -0.22844616768430
  C   0.44737047946658      0.46037529460107      1.52565870947080
  N   0.52421523144867      0.30661715048282      2.68777124032376
