15
Coordinates from ORCA-job run
  C   -0.81082557040262     -0.16617726483287     -0.40472102273783
  C   0.37556958421562      0.68089849842644      0.10760714024847
  Cl  -1.08392610032062      0.22929819583432     -2.13044328343391
  H   0.08405722218561      1.72039302750606     -0.07789978279638
  C   -0.47334880230873     -1.60031743033332     -0.33484880513713
  N   -0.22753689577394     -2.74417718925170     -0.21706937814067
  N   -2.00642359252409      0.19584080527440      0.31417628906996
  H   -1.90989376172613     -0.04948472815038      1.29505157997217
  H   -2.80647321542686     -0.29842721285557     -0.06507703480151
  C   1.71043124833476      0.36328240562415     -0.56733047382327
  H   2.00351018850919     -0.67183356730351     -0.38316054141663
  H   1.64074394209586      0.52883287086678     -1.64216360580650
  H   2.48650958300384      1.01666622787075     -0.16594985769482
  C   0.47488620738507      0.48827575410677      1.55660794899922
  N   0.54171996275310      0.30692960721767      2.71522082749881
