15
Coordinates from ORCA-job run
  C   -1.00621428272603     -0.09453689947376     -0.23787584971805
  C   0.29886789092085      0.75285804799692     -0.14725196424774
  Cl  -2.37744731041439      1.06642364291229     -0.32692642986606
  H   0.28031834205196      1.48258023357035     -0.96342550169730
  C   -0.97308817539536     -0.85424722471982     -1.49371507808291
  N   -0.89122875863744     -1.46233051439250     -2.49536816493637
  N   -1.25796200070247     -0.99970918295450      0.84473731459909
  H   -0.62267060278015     -1.78748249653540      0.82961095318620
  H   -1.21705550858834     -0.52153115660004      1.73781778091917
  C   1.56060802264349     -0.10927434952487     -0.24511045659892
  H   1.59255728314748     -0.63659151493359     -1.19988291733561
  H   2.44583723883773      0.52422623978031     -0.17230106379880
  H   1.60300915545307     -0.83518543937619      0.56891905248665
  C   0.28197131865736      1.47639311445936      1.12411601889687
  N   0.28249738753221      1.99940749979141      2.17565630619380
