15
Coordinates from ORCA-job run
  C   -0.81943342985116     -0.23550468937590     -0.30769704203993
  C   0.37032579258139      0.61811608377901      0.18632077842062
  Cl  -1.12471050135976      0.25322117722501     -2.06074453179324
  H   0.05858781697334      1.66466190593880      0.07654579740571
  C   -0.46214167168106     -1.65633147325741     -0.33776073535381
  N   -0.17420922352357     -2.79510225313560     -0.35168352946980
  N   -1.94582094435892     -0.04329845374524      0.52433659320748
  H   -2.72944862902311     -0.62341291135240      0.25232289459338
  H   -2.22918427999083      0.92886831129398      0.54915056825839
  C   1.67172718543721      0.38937411900631     -0.58555579904679
  H   2.45601090495835      1.02149420547793     -0.16667460490378
  H   1.98968827235638     -0.65132463019303     -0.49931288647094
  H   1.54637328402574      0.63952471631738     -1.63796651235663
  C   0.58107289171661      0.35126773321348      1.61218203641949
  N   0.81116253173942      0.13744615880764      2.74353697312982
