15
Coordinates from ORCA-job run
  C   -0.83394918841710     -0.28844136914178     -0.42067899889221
  C   0.31011979717205      0.63435182324503      0.09174247884403
  Cl  -1.12227267706371      0.14630003244489     -2.14034300361604
  H   -0.03365568864521      1.66072705606711     -0.08707914997680
  C   -0.39235250419468     -1.68743029875309     -0.35965937275794
  N   -0.00358680787209     -2.79255011872659     -0.27384510480621
  N   -2.08750889618889     -0.16955220864839      0.27213311359058
  H   -2.00356843421056     -0.50532922719435      1.22550012092609
  H   -2.40253126974192      0.79404846642710      0.27437387755713
  C   1.66479221675662      0.41433643179884     -0.58298577856455
  H   2.39735684498630      1.11323763970322     -0.17597755279504
  H   1.58486275121192      0.58138114416704     -1.65671815074662
  H   2.02328094042493     -0.60109718851898     -0.40534704165380
  C   0.41405466610061      0.44079311414337      1.54033620820469
  N   0.48495824968172      0.25822470298661      2.69854835468669
