15
Coordinates from ORCA-job run
  C   -0.72045794808241     -0.61877326231655     -0.14665163983680
  C   0.47416196688817      0.20065671200374      0.42749008538631
  Cl  -0.09618327396557     -1.74058664109492     -1.39675002750068
  H   0.04305575430764      0.80906410658910      1.23396735430421
  C   -1.29909659695317     -1.41554443080345      0.94415006630488
  N   -1.76741005107087     -1.99704992391408      1.85105927340677
  N   -1.77542424485493      0.15820865722950     -0.74227426556464
  H   -1.43723811217498      0.68469234328981     -1.53752740237380
  H   -2.19954381266503      0.77845861207252     -0.06185297592638
  C   1.13221838386308      1.12667492753475     -0.59602746914036
  H   0.41365073387317      1.85395981960914     -0.97706141715433
  H   1.54741150817677      0.55750384149061     -1.42764714900640
  H   1.94295941388542      1.67847073788242     -0.11823273013995
  C   1.46369757974664     -0.68926235123612      1.03546474569803
  N   2.27919869902602     -1.38647314833649      1.51289355154315
