15
Coordinates from ORCA-job run
  C   -0.72247887485339     -0.52148272565222     -0.07012490178597
  C   0.50350195346096      0.24736673145389      0.47468180281042
  Cl  -0.13353102535171     -1.77912319890370     -1.27057231643515
  H   0.10245844785242      0.88227219648029      1.27373120021163
  C   -1.35718067456344     -1.26666322529351      1.02148814049620
  N   -1.87315085297408     -1.84066000191513      1.90713105385096
  N   -1.66316323561129      0.39043060665636     -0.62258682329510
  H   -1.30007995546765      0.81581176244643     -1.46660632654788
  H   -2.53674034684560     -0.07302277901805     -0.84195993009929
  C   1.18138726561761      1.13275438824195     -0.57307594165239
  H   1.50213879006709      0.54485483575489     -1.43360787720637
  H   0.50716525852237      1.92736292064579     -0.89600331372880
  H   2.06101881788713      1.60471544500911     -0.13351902557906
  C   1.46362711573711     -0.67858860545821      1.07587435164059
  N   2.26602731652246     -1.38902835044788      1.55514990732019
