15
Coordinates from ORCA-job run
  C   -0.73412250144320     -0.50683222830979     -0.04428512390778
  C   0.50925742619020      0.26111542794925      0.46087492898837
  Cl  -0.17372353128016     -1.84535244083737     -1.16756131041052
  H   0.12246415507979      0.94996767445661      1.22144229607057
  C   -1.39150671572771     -1.17101042110712      1.08549664967942
  N   -1.92627257006389     -1.67724724180832      2.00073244149417
  N   -1.64976176963890      0.39580376975462     -0.65222236270932
  H   -1.27453812618962      0.75985665444785     -1.51937078927241
  H   -2.53500236427300     -0.05682452534198     -0.84619125518660
  C   1.21111858643870      1.06862095683301     -0.63269026813765
  H   2.10254028021843      1.54130636618874     -0.21832447227834
  H   0.55764113019817      1.86109251380023     -1.00036132319870
  H   1.51710805152224      0.42583977274265     -1.45872335107531
  C   1.44320346976217     -0.65217825096899      1.12017354965511
  N   2.22259447920680     -1.35215802779944      1.65001039028900
