15
Coordinates from ORCA-job run
  C   -0.95789253188748     -0.04860837394197     -0.39590848538145
  C   0.37531220424001      0.71808841742537     -0.14361571802866
  Cl  -2.20484252260753      1.18665554099672     -0.78956687302741
  H   0.54506388583140      1.38287701330945     -0.99698863525398
  C   -0.77884140861480     -0.90409277770762     -1.57571490360102
  N   -0.58518373796386     -1.59715993549496     -2.50404637743749
  N   -1.45018349356176     -0.84973892504367      0.68604873970330
  H   -0.88145482426279     -1.67440119670140      0.83056336683642
  H   -1.52091691236876     -0.30712089920468      1.53955873122548
  C   1.56726436777998     -0.22780358601335      0.02742199689556
  H   2.47447861173115      0.35159616978899      0.20496839889429
  H   1.71336880071957     -0.82843049511745     -0.87179327333508
  H   1.42244935727146     -0.88986935678843      0.88304895319423
  C   0.20685239279085      1.53779730365902      1.05645667887626
  N   0.07352581090257      2.15021110083398      2.04956740043955
