15
Coordinates from ORCA-job run
  C   -0.83727478121790     -0.28679907416492     -0.41499796244691
  C   0.31900842404675      0.63167314166558      0.07809432374223
  Cl  -1.11624511338678      0.11162028092143     -2.14516686010587
  H   -0.01063923590108      1.65836966983574     -0.12400415785984
  C   -0.41516079346701     -1.68980320452196     -0.32095269980405
  N   -0.04371613787737     -2.79881476225018     -0.21115707321410
  N   -2.09001502847627     -0.13386130580717      0.27213886194519
  H   -2.39179562120129      0.83371677898126      0.25044501333087
  H   -2.01241433936580     -0.44758166378685      1.23353376855602
  C   1.67141069952887      0.37830836415729     -0.58940373993872
  H   2.01447074069169     -0.63866213889870     -0.39118642316844
  H   1.59590167434694      0.52529903328958     -1.66638394393046
  H   2.41346169639729      1.07419254957188     -0.19460839271242
  C   0.41824976963154      0.46875892476863      1.53066818813043
  N   0.48375804625045      0.31158340623837      2.69298109747604
