14

C	0.0	0.0	0.0
C	-0.463042	-0.036124	-1.458242
F	1.411382	0.0	0.0
H	-1.55829	0.036455	-1.446997
H	-0.142493	-0.946116	-1.961537
N	-0.463628	1.050232	0.835986
H	-0.314127	1.925862	0.351135
H	-1.47275	0.913527	0.945008
C	-0.372743	-1.308815	0.593063
N	-0.517903	-2.385676	1.036369
N	0.059005	1.083423	-2.288646
O	0.169369	0.860965	-3.493006
O	0.297089	2.165884	-1.754383
Cl	-3.454371	0.0	0.0
