14

C	0.0	0.0	0.0
C	-0.561358	-0.109092	-1.406973
F	1.409044	0.0	0.0
H	-1.656163	0.020932	-1.315275
H	-0.306928	-1.066087	-1.854732
N	-0.496871	1.102509	0.699855
H	-0.079203	1.207499	1.611037
H	-0.500337	1.948787	0.153964
C	-0.332234	-1.254372	0.723926
N	-0.462999	-2.268158	1.30049
N	-0.001075	0.925837	-2.313526
O	-0.018553	2.099517	-1.940885
O	0.423111	0.549107	-3.404733
Cl	-3.67081	0.0	0.0
