14

C	0.0	0.0	0.0
C	-0.295125	-0.175269	-1.514623
F	1.411628	0.0	0.0
H	0.545423	0.329485	-1.981448
H	-0.300304	-1.215773	-1.779107
N	-0.43698	1.188435	0.583499
H	-1.312482	1.565802	0.286325
H	0.173019	1.652014	1.22583
C	-0.324148	-1.244807	0.753513
N	-0.498731	-2.20949	1.402155
N	-1.480239	0.447005	-2.185843
O	-2.101488	-0.28743	-2.945126
O	-1.637254	1.657759	-2.053766
Cl	-3.479256	0.0	0.0
