14

C	0.0	0.0	0.0
C	-0.526935	0.186838	-1.406654
F	1.403279	0.0	0.0
H	-0.32585	1.200872	-1.74789
H	-1.615306	0.008816	-1.360245
N	-0.47923	1.089675	0.769203
H	-0.59634	0.878279	1.747533
H	0.092184	1.90884	0.618718
C	-0.394213	-1.275522	0.630072
N	-0.581752	-2.267969	1.227411
N	0.108095	-0.723097	-2.391125
O	0.303211	-1.889082	-2.053631
O	0.37835	-0.252566	-3.49763
Cl	-3.610412	0.0	0.0
