14

C	0.0	0.0	0.0
C	-0.564139	0.066498	-1.40706
F	1.410938	0.0	0.0
H	-1.657634	0.19717	-1.296373
H	-0.329898	-0.834357	-1.967175
N	-0.493563	1.009296	0.831716
H	-0.445814	1.920405	0.404646
H	-0.094526	0.978737	1.757281
C	-0.339282	-1.32929	0.568694
N	-0.545005	-2.380153	1.049083
N	0.006137	1.191974	-2.193212
O	0.316114	0.95859	-3.359128
O	0.106205	2.293772	-1.654049
Cl	-3.674758	0.0	0.0
