14

C	0.0	0.0	0.0
C	-0.477178	0.041889	-1.444427
F	1.376097	0.0	0.0
H	-1.540436	-0.209079	-1.476768
H	-0.277102	1.033892	-1.839979
N	-0.496613	1.158271	0.664589
H	-1.519128	1.120175	0.564729
H	-0.291186	1.077786	1.65515
C	-0.339028	-1.277372	0.69651
N	-0.480104	-2.22097	1.381267
N	0.290693	-0.915701	-2.276004
O	0.183211	-2.109072	-2.006276
O	0.98105	-0.456663	-3.187088
Cl	-3.472642	0.0	0.0
