16

C	0.18259	-0.049355	-0.077943
C	-0.382719	0.267707	-1.460828
F	1.381447	-0.809447	-0.392144
H	0.436528	0.710285	-2.039923
H	0.601257	0.855189	0.373758
N	-0.686441	-0.768886	0.729019
H	-1.70521	-0.727845	0.389332
H	-0.609274	-0.487674	1.69451
N	-1.387161	1.387199	-1.388586
O	-1.374078	2.117792	-0.401009
O	-2.070585	1.584043	-2.387918
C	-0.963693	-0.932626	-2.182653
H	-0.247588	-1.752716	-2.107539
H	-1.137764	-0.694293	-3.233032
H	-1.906754	-1.174557	-1.683882
F	-3.009257	-0.521857	-0.275158
