15
Coordinates from ORCA-job run
  C   -0.48597788641608      0.11421420214268      0.35464316356727
  C   0.91594236645803      0.13643154413031      0.98913410881208
  H   -1.18876912473796      0.34288968346674      1.16570626477888
  H   1.11901610040007      1.11744693245770      1.43057941865446
  H   0.98106172770294     -0.60113262309349      1.79552018894199
  C   -0.81309410630896     -1.26985583344556     -0.19779726770437
  H   -0.13366868915720     -1.53280092588644     -1.01349870569425
  H   -1.83322512820667     -1.29674652121862     -0.58900370842575
  H   -0.72920806818330     -2.03908181682641      0.57512170821231
  C   -0.61568285838893      1.18935505131812     -0.72010851392647
  H   -1.63187683073864      1.21130260910353     -1.12172410254105
  H   -0.39035094252627      2.18257902028687     -0.32151007946334
  H   0.06913722393986      0.99329261522180     -1.54999181280988
  C   1.96222233293488     -0.15579029459441      0.00843234039832
  N   2.77547388322822     -0.39410364306283     -0.80350300280020
