14

C	0.0	0.0	0.0
C	-0.490569	0.233241	-1.417806
F	1.38972	0.0	0.0
H	-1.58329	0.196032	-1.423518
H	-0.347028	-0.992403	0.300131
H	-0.035163	-0.487712	-2.096946
C	-0.458858	1.05366	0.981157
H	-0.131577	0.777533	1.986074
H	-1.546528	1.132762	0.956941
H	-0.008807	2.015358	0.724662
N	-0.059839	1.575441	-1.895595
O	1.066813	1.666962	-2.389817
O	-0.834811	2.518378	-1.737248
Br	-3.851278	0.0	0.0
