17

C	-0.544676	0.006137	-1.398458
C	0.0	0.0	0.0
F	0.05668	-0.87726	-2.195342
H	1.098576	0.0	0.0
N	-2.046085	-0.313126	-1.458246
O	-2.709123	-0.097269	-0.449503
O	-2.474152	-0.747136	-2.520984
N	-0.444915	1.368974	-2.068411
O	0.593398	1.591055	-2.672607
O	-1.40093	2.124173	-1.937018
N	-0.353546	-1.299176	0.563468
H	-1.132924	-1.2145	1.201324
H	0.465144	-1.63076	1.064241
N	-0.35593	1.209784	0.700248
H	0.38181	1.406191	1.367498
H	-1.251989	1.141482	1.163773
H	2.707425	0.0	0.0
