17

C	-0.551533	-0.014291	-1.395
C	0.0	0.0	0.0
F	0.029012	-0.92455	-2.176127
H	1.098581	0.0	0.0
N	-2.058931	-0.308501	-1.442343
O	-2.713295	-0.064875	-0.435908
O	-2.496579	-0.759762	-2.494593
N	-0.421759	1.333458	-2.091065
O	0.643324	1.536413	-2.654722
O	-1.375404	2.09827	-2.014336
N	-0.344672	-1.293355	0.583107
H	-1.086097	-1.199704	1.261529
H	0.492942	-1.654213	1.033482
N	-0.355641	1.218156	0.681702
H	-1.250675	1.155474	1.148119
H	0.384575	1.432537	1.34147
H	2.705268	0.0	0.0
