17

C	-0.551622	-0.009987	-1.393966
C	0.0	0.0	0.0
F	0.064539	-0.87659	-2.198088
H	1.094493	0.0	0.0
N	-2.043715	-0.366796	-1.43743
O	-2.706748	-0.120589	-0.435839
O	-2.464205	-0.861895	-2.475971
N	-0.477696	1.359731	-2.054542
O	-1.489596	2.051756	-2.040364
O	0.606661	1.649669	-2.534079
N	-0.339312	-1.292228	0.584121
H	0.483217	-1.613519	1.086423
H	-1.118824	-1.209002	1.22431
N	-0.363203	1.221154	0.678379
H	0.38306	1.444875	1.327794
H	-1.248485	1.146086	1.160818
H	2.706667	0.0	0.0
