17

C	-0.658659	0.05806	-1.342445
C	0.0	0.0	0.0
F	-1.996628	0.264999	-1.266841
H	1.104516	0.0	0.0
N	-0.122417	1.135817	-2.2643
O	0.807858	1.827457	-1.88021
O	-0.693204	1.202904	-3.354408
N	-0.452838	-1.229434	-2.116872
O	0.689057	-1.413715	-2.515006
O	-1.417587	-1.965688	-2.260968
N	-0.342773	-1.278885	0.596101
H	-1.194606	-1.236911	1.1421
H	0.43489	-1.551646	1.189275
N	-0.370296	1.221439	0.705626
H	-1.118488	1.047955	1.365761
H	0.456529	1.52582	1.212292
H	2.684002	0.0	0.0
