17

C	-0.497247	0.105165	-1.411696
C	0.0	0.0	0.0
F	-0.367542	-1.056101	-2.089344
H	1.106754	0.0	0.0
N	-1.967102	0.489814	-1.605622
O	-2.709499	0.476987	-0.632608
O	-2.299247	0.711315	-2.76771
N	0.267253	1.165859	-2.185938
O	1.119886	0.7638	-2.962664
O	-0.031616	2.326896	-1.939491
N	-0.461326	-1.268203	0.600237
H	-0.272197	-2.013209	-0.065156
H	0.216056	-1.432281	1.344997
N	-0.380702	1.156968	0.764182
H	-1.218299	0.956327	1.296017
H	0.391155	1.387639	1.381535
H	2.727807	0.0	0.0
