17

C	-0.546004	-0.072315	-1.395116
C	0.0	0.0	0.0
F	0.053169	0.771476	-2.235098
H	1.099343	0.0	0.0
N	-0.432076	-1.46753	-1.991403
O	-1.414457	-2.19806	-1.912837
O	0.651912	-1.739586	-2.485223
N	-2.046774	0.243037	-1.466471
O	-2.711766	0.039423	-0.456047
O	-2.474357	0.667022	-2.535411
N	-0.352296	-1.184443	0.746201
H	0.388771	-1.356468	1.416311
H	-1.24631	-1.097463	1.210369
N	-0.355591	1.319472	0.509455
H	-1.129552	1.256556	1.158802
H	0.462616	1.677339	0.994402
H	2.705157	0.0	0.0
