17

C	-0.465495	0.17674	-1.422594
C	0.0	0.0	0.0
F	-0.06224	-0.826823	-2.21907
H	1.092234	0.0	0.0
N	-1.981484	0.229596	-1.515384
O	-2.524245	1.327289	-1.500468
O	-2.547485	-0.864575	-1.508134
N	0.000724	1.46281	-2.082549
O	0.61357	2.279935	-1.410419
O	-0.268947	1.54691	-3.279309
N	-0.353616	-1.319708	0.505956
H	-1.068625	-1.77815	-0.046769
H	0.495162	-1.879864	0.481605
N	-0.557452	1.06688	0.816752
H	-0.959086	0.615359	1.629883
H	0.219774	1.641998	1.128046
H	2.710375	0.0	0.0
