17

C	-0.454425	-0.26019	-1.42265
C	0.0	0.0	0.0
F	-0.251222	0.793365	-2.227247
H	1.093165	0.0	0.0
N	0.218475	-1.458565	-2.07306
O	0.274386	-1.437223	-3.298668
O	0.620265	-2.34653	-1.335246
N	-1.942297	-0.574104	-1.479863
O	-2.67651	0.393007	-1.292602
O	-2.297358	-1.733527	-1.644484
N	-0.590929	-1.020615	0.866194
H	0.090371	-1.768124	0.958928
H	-0.662137	-0.568346	1.769452
N	-0.384786	1.317638	0.456332
H	0.372393	1.955992	0.237825
H	-1.246406	1.642125	0.034672
H	2.767144	0.0	0.0
