17

C	-0.591933	-0.089692	-1.375921
C	0.0	0.0	0.0
F	-1.932704	0.089002	-1.385104
H	1.104875	0.0	0.0
N	-0.011385	0.968509	-2.300991
O	-0.608182	2.040433	-2.337706
O	1.024367	0.681802	-2.885425
N	-0.323802	-1.400261	-2.08548
O	-1.055144	-1.632541	-3.045659
O	0.597419	-2.091528	-1.680411
N	-0.506623	-1.157538	0.745365
H	0.315752	-1.682025	1.034867
H	-0.924688	-0.772805	1.583601
N	-0.367288	1.263478	0.620335
H	-1.118636	1.74338	0.142636
H	0.459925	1.851199	0.630955
H	2.734236	0.0	0.0
