14

C	0.0	0.0	0.0
C	-0.536097	-0.221715	-1.439395
Br	1.925572	0.0	0.0
H	-0.312728	-1.278536	-1.640096
H	-0.36248	-0.759831	0.691116
N	-0.432621	1.323336	0.56948
O	-0.544898	2.258843	-0.215827
O	-0.60612	1.360571	1.782275
C	0.235066	0.558184	-2.428521
N	0.790822	1.160385	-3.268934
N	-1.929394	0.003324	-1.669265
H	-2.571271	-0.535204	-1.085473
H	-2.186688	0.969959	-1.516708
Cl	-4.543573	0.0	0.0
