12

C	-0.331253	0.01215	-1.469102
C	0.0	0.0	0.0
F	-1.701688	0.122911	-1.740646
H	1.093532	0.0	0.0
H	-0.337256	0.940002	0.445299
C	0.325544	1.170094	-2.111891
N	0.815331	2.089678	-2.65264
C	0.135139	-1.22372	-2.127046
N	0.468885	-2.205269	-2.679463
C	-0.59061	-1.131284	0.677736
N	-1.059904	-2.049148	1.243359
F	2.478054	0.0	0.0
