12

C	-0.335981	-0.024662	-1.479557
C	0.0	0.0	0.0
F	0.099314	1.144218	-2.077527
H	1.093622	0.0	0.0
H	-0.326722	-0.937309	0.460582
C	0.347081	-1.162154	-2.131488
N	0.838597	-2.064909	-2.697731
C	-1.785761	-0.136008	-1.762054
N	-2.941196	-0.233325	-1.951332
C	-0.609845	1.133801	0.657455
N	-1.088532	2.057073	1.206195
F	2.490893	0.0	0.0
