12

C	-0.335217	0.003804	-1.483698
C	0.0	0.0	0.0
F	0.143805	-1.169586	-2.038594
H	1.093481	0.0	0.0
H	-0.382954	-0.931063	0.427444
C	-1.789064	0.04164	-1.764505
N	-2.949967	0.040554	-1.948975
C	0.302096	1.144599	-2.173559
N	0.742683	2.060245	-2.761233
C	-0.564189	1.150307	0.668677
N	-1.004804	2.091162	1.219839
F	2.490821	0.0	0.0
