12

C	-0.308545	-0.012371	-1.474279
C	0.0	0.0	0.0
F	-1.677539	0.073053	-1.766687
H	1.093565	0.0	0.0
H	-0.344991	0.944636	0.428289
C	0.334344	1.149943	-2.120375
N	0.759384	2.101312	-2.660502
C	0.185638	-1.2483	-2.110599
N	0.528791	-2.232787	-2.649902
C	-0.59211	-1.124259	0.689098
N	-1.059618	-2.028977	1.276757
F	2.480641	0.0	0.0
