12

C	-0.3316	-0.025525	-1.481422
C	0.0	0.0	0.0
F	0.093955	1.146611	-2.076861
H	1.093548	0.0	0.0
H	-0.326831	-0.937601	0.460093
C	0.360992	-1.159357	-2.130373
N	0.87107	-2.046818	-2.705253
C	-1.780303	-0.153392	-1.766884
N	-2.934799	-0.263355	-1.956191
C	-0.613357	1.133411	0.65485
N	-1.095264	2.056483	1.201148
F	2.49131	0.0	0.0
