12

C	-0.330932	-0.011515	-1.481894
C	0.0	0.0	0.0
F	0.095016	1.166066	-2.066215
H	1.093679	0.0	0.0
H	-0.325898	-0.942587	0.450223
C	0.362082	-1.13979	-2.140035
N	0.858517	-2.030126	-2.722151
C	-1.778962	-0.136835	-1.769774
N	-2.933409	-0.249114	-1.958848
C	-0.614531	1.126129	0.665505
N	-1.095777	2.044816	1.219698
F	2.490356	0.0	0.0
