12

C	-0.301984	0.02086	-1.475519
C	0.0	0.0	0.0
F	-1.666952	0.131583	-1.774598
H	1.093588	0.0	0.0
H	-0.343353	0.936894	0.44674
C	0.362149	1.1861	-2.095432
N	0.803426	2.143678	-2.610675
C	0.179262	-1.209616	-2.134023
N	0.511072	-2.187834	-2.691727
C	-0.596774	-1.137177	0.662589
N	-1.06784	-2.056469	1.224488
F	2.47977	0.0	0.0
