19
Coordinates from ORCA-job run
  C   -0.66295551245558      0.25042813241824      0.10358526112504
  C   0.78000440729374     -0.24245351581536     -0.12028267560097
  Cl  -0.70711812588287      2.04866382673915      0.18649317710532
  H   0.70915133579543     -1.32016831660642     -0.28916189218443
  C   -1.52444041961574     -0.17387755580454     -1.08016986671885
  H   -1.16898003673340      0.25596995296504     -2.01665032470340
  H   -2.54978399941972      0.16526716646047     -0.92413604334600
  H   -1.52947964089380     -1.26465861367372     -1.16606466141575
  C   -1.24424279911194     -0.28554176058355      1.40457298409095
  H   -1.18001530603858     -1.37674888600660      1.42506431415955
  H   -2.29143058215518      0.01101816579542      1.48320604171695
  H   -0.71502515733363      0.10698308860856      2.27315408446568
  N   1.55220660272740     -0.14256520897254      1.16353164471722
  O   1.60077706501209     -1.15587379694555      1.86142060665570
  O   2.05595275994957      0.94207384380097      1.44368389084657
  C   1.56723670961053      0.42712531091003     -1.22868533318618
  H   1.05905868384808      0.30249103158824     -2.18538908972387
  H   1.69540567688660      1.48790769772249     -1.02559635981958
  H   2.55367833851701     -0.03504056260034     -1.30757575818397
