14
Coordinates from ORCA-job run
  C   0.83910757270648      0.34399859528319     -0.02739331830972
  C   -0.55602858137348      0.23538705800793     -0.64383759033213
  H   1.52123042355148      0.64791576761684     -0.82679970749739
  H   -0.59624030133542     -0.53856960723799     -1.41286813559830
  H   0.81957430727213      1.14973402582437      0.71064992635627
  C   1.29156788506861     -0.96749649509735      0.60415643454216
  H   2.32422323852569     -0.88029523637938      0.94612079303585
  H   1.23945473993873     -1.79408332910554     -0.10855655196238
  H   0.67890989240900     -1.22756647677003      1.46951409443974
  C   -1.02092787995125      1.50954210572434     -1.18363444463717
  N   -1.35468270979197      2.53923150314109     -1.63811287421287
  N   -1.51301625526963     -0.22130547051470      0.43266178349509
  O   -1.94528188451922     -1.36504232131251      0.33261088924615
  O   -1.72789044723116      0.56854988081975      1.34448870143471
