14
Coordinates from ORCA-job run
  C   0.35003804488913     -0.68082099211626      0.29086330657630
  C   -0.60544743275784      0.28569543563265     -0.41139526613789
  H   0.08877581091077     -0.70240456198403      1.35223267159581
  H   -0.44304780806395      0.28457858186509     -1.49130526805328
  H   0.16399234093990     -1.67701753103291     -0.12223118012756
  C   1.80592447691905     -0.27539452749377      0.09451398916370
  H   2.46610632202984     -1.00486542973604      0.56679249323964
  H   2.06464867838244     -0.22785721158576     -0.96585810209256
  H   2.00952286779302      0.69931627459734      0.54170167861420
  C   -0.49794414456744      1.64434464889673      0.11131704922290
  N   -0.35565369441644      2.73444124572976      0.52317709396047
  N   -2.01624992857172     -0.21760336383363     -0.21573761541890
  O   -2.48609799358643     -0.87090683164600     -1.14171630661087
  O   -2.54356753990034      0.00949426270683      0.86664545606803
