14
Coordinates from ORCA-job run
  C   0.51135320226387     -0.71946078875652     -0.48642172476871
  C   -0.75109672642027      0.13367733514053     -0.64337303820852
  H   0.18629214549056     -1.75633497432292     -0.36875209254842
  H   -1.39422071872573     -0.27034333737289     -1.42904969618509
  H   1.06361974065659     -0.65279137802540     -1.42840230753991
  C   1.38385371778281     -0.28108503165954      0.68346255441345
  H   0.87059948026786     -0.41104258012905      1.63819025984728
  H   2.29415090143101     -0.88246650126485      0.71332055219125
  H   1.67507180194372      0.76756529159404      0.59343673410836
  C   -0.44953528604995      1.53525615602275     -0.91539368442406
  N   -0.16235712322496      2.64020076100393     -1.18894235051863
  N   -1.55919176838077      0.01353918651937      0.63049875427047
  O   -2.09784079044418     -1.07570996573111      0.79512849990600
  O   -1.56969857659057      0.96099582698164      1.40729753945653
