16

C	-0.337824	0.03222	-1.501822
C	0.0	0.0	0.0
Cl	-2.132738	0.141383	-1.729563
H	1.098213	0.0	0.0
N	0.246179	1.249829	-2.005594
H	1.245413	1.23035	-1.797681
H	0.120258	1.297141	-3.0106
C	0.14177	-1.245576	-2.174055
H	-0.367634	-2.127956	-1.782582
H	1.218029	-1.336305	-1.997991
H	-0.049257	-1.180292	-3.248214
C	-0.48131	-1.210125	0.658469
N	-0.86189	-2.191591	1.179387
C	-0.479092	1.18883	0.70181
N	-0.856859	2.122161	1.30577
Br	3.351576	0.0	0.0
