16

C	-0.386918	-0.034842	-1.497507
C	0.0	0.0	0.0
Cl	0.125539	1.608749	-2.176861
H	1.097339	0.0	0.0
N	0.329992	-1.11539	-2.067163
H	1.329724	-1.025296	-1.877761
H	0.17434	-1.171977	-3.066774
C	-1.879659	-0.143131	-1.739703
H	-2.40149	0.695085	-1.273969
H	-2.245208	-1.084982	-1.324056
H	-2.084397	-0.121379	-2.812794
C	-0.470907	-1.218973	0.659473
N	-0.880024	-2.18035	1.196128
C	-0.525884	1.167743	0.699619
N	-0.977262	2.089276	1.271126
Br	3.382921	0.0	0.0
