16

C	-0.44899	0.005841	-1.483003
C	0.0	0.0	0.0
Cl	0.001804	-1.580494	-2.186964
H	1.096289	0.0	0.0
N	-1.895489	0.099903	-1.549299
H	-2.188019	0.018832	-2.517351
H	-2.175931	1.01696	-1.213689
C	0.324506	1.082567	-2.23206
H	1.399267	0.943571	-2.09221
H	0.041486	2.067381	-1.847374
H	0.077344	1.036903	-3.295607
C	-0.522183	-1.143902	0.743382
N	-0.924567	-2.061907	1.354707
C	-0.454694	1.242993	0.626704
N	-0.838037	2.263029	1.066642
Br	3.383329	0.0	0.0
