16

C	-0.263446	0.113534	-1.516487
C	0.0	0.0	0.0
Cl	-2.037222	0.29182	-1.837442
H	1.097682	0.0	0.0
N	0.391765	1.330596	-1.925576
H	0.358752	1.412587	-2.935879
H	1.369669	1.275688	-1.63486
C	0.217177	-1.146133	-2.222587
H	0.094692	-1.02124	-3.301336
H	-0.339927	-2.030991	-1.9083
H	1.278345	-1.277686	-1.990593
C	-0.506222	-1.239966	0.574779
N	-0.908594	-2.244912	1.030635
C	-0.491962	1.156958	0.741738
N	-0.894433	2.059457	1.375912
Br	3.36031	0.0	0.0
