16

C	-0.258587	0.010777	-1.537068
C	0.0	0.0	0.0
Cl	-2.037677	0.129643	-1.832481
H	1.098502	0.0	0.0
N	0.377634	1.140412	-2.163418
H	0.051408	2.004512	-1.741962
H	1.380981	1.065679	-1.983991
C	0.273239	-1.272467	-2.143666
H	0.13241	-1.228686	-3.224493
H	1.341075	-1.346227	-1.910821
H	-0.244179	-2.14523	-1.741191
C	-0.521967	-1.177137	0.678947
N	-0.931231	-2.137386	1.218051
C	-0.471741	1.228717	0.626414
N	-0.833057	2.240064	1.102431
Br	3.360415	0.0	0.0
