16

C	-0.351957	-0.036623	-1.510298
C	0.0	0.0	0.0
Cl	0.068224	1.648063	-2.163652
H	1.09735	0.0	0.0
N	0.451099	-1.055219	-2.070024
H	0.354148	-1.091396	-3.076041
H	1.431969	-0.923992	-1.819912
C	-1.824548	-0.24382	-1.798958
H	-2.13153	-1.218453	-1.413659
H	-1.997623	-0.216329	-2.877659
H	-2.421843	0.543228	-1.335676
C	-0.46092	-1.23289	0.640357
N	-0.86167	-2.207392	1.159551
C	-0.549078	1.151796	0.704424
N	-1.024438	2.052521	1.289281
Br	3.365217	0.0	0.0
