16

C	-0.390856	-0.033934	-1.492018
C	0.0	0.0	0.0
Cl	-2.242958	-0.35216	-1.581576
H	1.097381	0.0	0.0
N	-0.045863	1.193499	-2.086045
H	-0.519918	1.983405	-1.66697
H	-0.201217	1.181929	-3.084633
C	0.297685	-1.191388	-2.182865
H	-0.014396	-2.141578	-1.749323
H	1.375986	-1.06258	-2.051747
H	0.041537	-1.19566	-3.24542
C	-0.448036	-1.191835	0.71614
N	-0.787165	-2.161089	1.285669
C	-0.492524	1.209441	0.651941
N	-0.868575	2.209878	1.139489
Br	3.370267	0.0	0.0
