16

C	-0.389356	-0.039847	-1.49252
C	0.0	0.0	0.0
Cl	-2.240687	-0.361115	-1.583401
H	1.097363	0.0	0.0
N	-0.045253	1.186167	-2.090683
H	-0.521634	1.976695	-1.675529
H	-0.198472	1.170532	-3.089447
C	0.302245	-1.198755	-2.178195
H	1.380224	-1.067145	-2.045555
H	0.048227	-1.207593	-3.24135
H	-0.008847	-2.148007	-1.741651
C	-0.447999	-1.189079	0.720801
N	-0.786383	-2.155747	1.295106
C	-0.493457	1.211751	0.64708
N	-0.871683	2.214068	1.128982
Br	3.37147	0.0	0.0
