15
Coordinates from ORCA-job run
  C   -0.18888475641818     -0.13302584769156      0.12402263172824
  C   0.94765247200561     -0.63179541003039     -0.77857117846979
  Cl  0.17009276135316     -0.68784309694633      1.80051207160407
  H   0.69359077043559     -0.40295524240210     -1.81962206753194
  H   1.03610007247842     -1.71801382623200     -0.68980851121653
  C   -0.27640682803332      1.38335862245483      0.13312046580173
  H   0.64942756847030      1.83010402313859      0.49810322017416
  H   -1.09462139199457      1.70881081691366      0.77779439847117
  H   -0.46609985946208      1.74818767288204     -0.88126288545076
  C   -1.49818603573635     -0.77204433013562     -0.31202082001319
  H   -1.42618617151889     -1.86150035513143     -0.29752574104520
  H   -2.30665452240826     -0.47359038666700      0.35733242332429
  H   -1.75024202681303     -0.44782502387435     -1.32625054855038
  C   2.23970953452751     -0.02307553723011     -0.47220268283534
  N   3.27170841311410      0.48220792095178     -0.23462077599053
