15
Coordinates from ORCA-job run
  C   -0.19860237819410     -0.12275533152119      0.12178440460916
  C   0.96081353624482     -0.65134637383688     -0.73344515710700
  Cl  0.11131905255099     -0.62916736102485      1.82314305875959
  H   0.73873445745245     -0.45022420837769     -1.78744578618735
  H   1.04085601064976     -1.73496665586048     -0.61225470919012
  C   -0.28059101918822      1.39355480657358      0.08392802160354
  H   0.63762217714957      1.84839100077342      0.45841405305900
  H   -0.44411264344621      1.72880725602400     -0.94526944854236
  H   -1.11346969070822      1.74002710050357      0.69824150384458
  C   -1.49782028675465     -0.77015684587323     -0.33172238962019
  H   -1.71921944382525     -0.47709678890953     -1.36242869299703
  H   -2.32361708253568     -0.44767517048725      0.30444218731715
  H   -1.43171090596329     -1.85891347116906     -0.28100184691505
  C   2.24609857207464     -0.03877909287401     -0.40629330368365
  N   3.27269964449340      0.46930113605960     -0.15209189495026
