15
Coordinates from ORCA-job run
  C   -0.09623472909662      0.14009958622050      0.15853297734579
  C   1.19176456007255     -0.03475812474772     -0.65728113129689
  Cl  0.32736408954641     -0.09922119769932      1.89358725329670
  H   0.98046005040849      0.21422020620220     -1.70325172982546
  H   1.95126289915662      0.66422193443052     -0.29684218111704
  C   -0.61115617693641      1.56138312746318     -0.00752682828815
  H   -1.49539997964100      1.71843149101604      0.61222326193034
  H   -0.88409733861838      1.73819756698160     -1.05227307730121
  H   0.14705817023072      2.28982228304797      0.28712599355902
  C   -1.14731633659869     -0.88871647253951     -0.22109113395907
  H   -2.05080484269658     -0.73915084135500      0.37258229305633
  H   -1.40446718343313     -0.78041404251729     -1.27963885002304
  H   -0.78609735618262     -1.90397883217362     -0.05082178774572
  C   1.72946110454776     -1.39207299559320     -0.60422037673753
  N   2.14720306924087     -2.48806368873636     -0.57310468289405
