15
Coordinates from ORCA-job run
  C   -0.19257446884093     -0.12192746543496      0.12573577887938
  C   0.96298970245291     -0.64267305741737     -0.73957903890923
  Cl  0.14734926085711     -0.60465268356564      1.82816719405477
  H   0.72382467786164     -0.45483474021661     -1.79233335329673
  H   1.06006546975844     -1.72395656273738     -0.60901705821607
  C   -0.29712897176289      1.39251692163400      0.07211003929308
  H   -0.47531624587568      1.71377580680771     -0.95897359117648
  H   -1.12864927274227      1.73425713499104      0.69082279317422
  H   0.61805036956124      1.86437706286713      0.43235955000016
  C   -1.48799017029566     -0.79328721428041     -0.30291642962020
  H   -2.30961065488566     -0.47706531046019      0.34179060701935
  H   -1.72834758782540     -0.51372538510745     -1.33312916526815
  H   -1.40435801827195     -1.88032561951828     -0.24256911768909
  C   2.24405318871814     -0.00970415457482     -0.43497256044974
  N   3.26664272129096      0.51522526701323     -0.19949564779527
