14
Coordinates from ORCA-job run
  C   0.74875201169741     -0.14829386241983      0.07567982903032
  C   -0.45466368594017     -0.05242010518722      0.99993092245852
  Cl  2.18130806289439     -0.65817748159329      0.93221832620613
  H   -0.24801974454797      0.74523681855648      1.72297876362384
  H   -0.48404458893628     -1.00088553078787      1.53908431304679
  N   1.04693665701461      1.17183273273639     -0.62583157727102
  O   0.23278576328625      2.07440677922478     -0.45349780504597
  O   2.05963372369305      1.21698351414907     -1.30530179732473
  N   0.40196452001663     -1.15096944787183     -1.02719599488291
  O   0.28046533196686     -2.30303862784028     -0.64416281369988
  O   0.21244679988305     -0.70852739322926     -2.14814814242641
  N   -1.66160667113644      0.09550541949111      0.21940065341025
  H   -2.44671844675247     -0.34876508277275      0.67119501252542
  H   -1.87023973313892      1.06711226754450      0.04465031034966
