15
Coordinates from ORCA-job run
  C   0.85409488557412      0.05335588830656      0.11654068773971
  C   -0.67260881537175      0.21661209257198     -0.01045647972358
  Br  1.30030591211612     -1.16623315415148      1.53676950409946
  H   -0.86449612828539      0.75033675103823     -0.94426537806828
  N   1.44377804584750     -0.42656647913336     -1.24692998275952
  O   2.13284430559595     -1.42480615783222     -1.27375482643126
  O   1.14976421278809      0.31862163107662     -2.16969661341382
  C   1.46027358856733      1.35002365131057      0.37311272010616
  N   1.97952159093859      2.38824361487425      0.56165583435634
  N   -1.19958165252137      0.90908710519645      1.09328986452053
  H   -1.19799705199141      0.34260660493921      1.93192224383761
  H   -2.13749834292711      1.23928995856522      0.91471585607300
  N   -1.27294507326430     -1.18632223535943     -0.23449572376816
  O   -0.82301217170022     -1.81579388641076     -1.18590381554891
  O   -2.15144330536614     -1.54945538499184      0.53649610898075
