15
Coordinates from ORCA-job run
  C   0.85434543822954      0.12707764964269      0.00538979837220
  C   -0.68190123853697      0.13961863889874      0.12258745556097
  Br  1.61719403440721     -1.25684514560066      1.10363180082269
  H   -1.06024651320972      0.79839211929566     -0.66255425642754
  N   1.26322738986184     -0.04964146598842     -1.49151600080674
  O   2.02918574803412     -0.94112224606853     -1.79253409495536
  O   0.76146657721754      0.79729938320149     -2.21519493570340
  C   1.38065229444092      1.42149030115416      0.40751907883526
  N   1.82973711693493      2.46618320352707      0.70785482956036
  N   -1.08710757546333      0.57476484333268      1.39603734162402
  H   -2.06605289041126      0.82348980284817      1.41289223931564
  H   -0.90532330288526     -0.11928548452453      2.10965699980707
  N   -1.18939680885696     -1.26323812735054     -0.26841138772041
  O   -1.90245414193237     -1.84576802144982      0.53806497285669
  O   -0.84332612783023     -1.66941545091815     -1.37242384114145
