15
Coordinates from ORCA-job run
  C   0.75307235787989      0.48219048448890      0.10476739744076
  C   -0.76588497190429      0.21152366192528      0.31935714572317
  Br  1.46470335956245      1.21531270177553      1.75342206194216
  H   -1.22731716963027      1.18400956416907      0.49881560498344
  N   1.56622578315164     -0.78604293995181     -0.20075058502241
  O   1.37128072858096     -1.73584611725675      0.54336714209635
  O   2.35631980571389     -0.72253304535641     -1.12632888230073
  C   0.94465001265791      1.44094976883767     -0.96866561396237
  N   1.01359928761479      2.25842674644904     -1.81189824752617
  N   -1.17678379336116     -0.71320311227890      1.30346362692820
  H   -0.54045409956097     -1.48983478082586      1.40861769076100
  H   -1.37561663478188     -0.27314533096231      2.18788366319761
  N   -1.32326729801155     -0.23542334874342     -1.02308132797593
  O   -2.43749109929945      0.17309598529840     -1.31540469287065
  O   -0.62303626861198     -1.00848023756842     -1.67456498341443
