15
Coordinates from ORCA-job run
  C   0.62209575672615      0.58654576372334      0.03633259034922
  C   -0.69173495381581     -0.14823155636157      0.39950437160880
  Br  0.62659671802798      2.42503382182221      0.63823718502123
  H   -0.82867176297505     -0.08112840403110      1.47627777993480
  N   1.75882594210587     -0.12727216554277      0.80745279099913
  O   2.85343829263184     -0.15385101845419      0.26797811956217
  O   1.46256028114915     -0.57068973639922      1.90829691409452
  C   0.93204702277738      0.51659190730112     -1.37980266361496
  N   1.16729189366289      0.42391348069304     -2.52877354125093
  N   -0.76528854852211     -1.49387805228128     -0.03999179207054
  H   -0.53153390203315     -1.61981879064328     -1.01579197343715
  H   -0.26570662779238     -2.13015825979009      0.56237413226486
  N   -1.83471723176034      0.61247495358000     -0.22239742559887
  O   -2.55401305601059      1.26006271133609      0.52975590772195
  O   -1.95018982417182      0.49840534504770     -1.43945239558424
