15
Coordinates from ORCA-job run
  C   0.77646741561448      0.47657057356481     -0.03342592209214
  C   -0.51735592077789     -0.15280505804264      0.50805513714994
  Br  1.20009842834614      2.15679322581874      0.81667158952670
  H   -0.40412948274031     -0.29891041451819      1.58113262383604
  N   1.89549941777493     -0.52941502435013      0.33755842199382
  O   1.92533526370130     -0.86493878694966      1.50949912483172
  O   2.63917874990151     -0.88195676007437     -0.56255573574696
  C   0.74787504398450      0.64007315170909     -1.47540603406096
  N   0.68828097712134      0.76662805666096     -2.64334231371705
  N   -0.73054232449873     -1.37442181898860     -0.17350498665120
  H   -1.36678172529720     -1.98135586524094      0.32560978601147
  H   -1.06484582816237     -1.22169024527651     -1.11860787570293
  N   -1.65263312663010      0.85320598107745      0.34981678285052
  O   -2.01595049259408      1.44995218017949      1.35827227443946
  O   -2.12249639574354      0.96127080443050     -0.78077287266844
