15
Coordinates from ORCA-job run
  C   0.85347024260262      0.12429532765608     -0.06029647796082
  C   -0.67198552130438      0.15187430988520      0.15392726412180
  Br  1.68885688583147     -1.16276913144299      1.10090166635887
  H   -1.10243373787770      0.74233167793215     -0.65834604785549
  N   1.16513312533721     -0.18123131109708     -1.55970201172677
  O   1.89926329228555     -1.10758409040183     -1.83365247786237
  O   0.62437767771391      0.60947332128411     -2.31833604562541
  C   1.40121476682821      1.44704446204022      0.19461171199745
  N   1.86386716404248      2.51289219706708      0.37588903795530
  N   -0.99524435719146      0.69562757304703      1.40912494728633
  H   -1.97251749158588      0.94510061246022      1.46786720965492
  H   -0.76504541255722      0.06467671060670      2.16612611752451
  N   -1.20086582312100     -1.27734168546376     -0.08244717982497
  O   -0.92833524470410     -1.77638201801445     -1.16900134819222
  O   -1.85875556629972     -1.78700795555869      0.81533363414888
