15
Coordinates from ORCA-job run
  C   0.62897357481229      0.56688074854107      0.13451099485895
  C   -0.70872386862561     -0.18287539424293      0.35026586617287
  Br  0.63609037215999      2.31236692291319      0.96823878245091
  H   -0.88879618590102     -0.24862721348789      1.42078726895672
  N   1.71919550921252     -0.26566439307917      0.85083541609243
  O   1.37900765247038     -0.80249930712853      1.89589983279596
  O   2.82403426298804     -0.28740189265514      0.33211429820356
  C   0.99427283661635      0.67422875277738     -1.26587817019298
  N   1.27489467717971      0.72760894897241     -2.40714160164431
  N   -0.78063251184869     -1.46149649841955     -0.25749467540664
  H   -0.31882546234794     -2.17862298487678      0.28092427682346
  H   -0.50614739632209     -1.46942103194463     -1.23072810791012
  N   -1.81485739921041      0.67021301831860     -0.21531652534676
  O   -1.88184188662931      0.71119462413861     -1.44061080046951
  O   -2.55564417455421      1.23211570017336      0.58359314461545
