15
Coordinates from ORCA-job run
  C   0.84914753382233      0.05839616601168      0.14530263694815
  C   -0.67427229771045      0.21242188586627     -0.02708622672182
  Br  1.26059649092193     -1.18526943522446      1.55507298055577
  H   -0.84020621793427      0.76333737998990     -0.95591035938545
  N   1.48517433445324     -0.39107329755091     -1.20796078026827
  O   2.17658774535420     -1.38767809259806     -1.23362763669813
  O   1.21925457070379      0.37293436589810     -2.12376889736994
  C   1.43606017343346      1.35459991671581      0.44549104656536
  N   1.94075688035746      2.39313035327189      0.66904313323842
  N   -1.24202454395729      0.87733707210219      1.07273828626883
  H   -2.17777877926003      1.20116673824628      0.87311207611746
  H   -1.25645629282248      0.29682717079672      1.90144265569898
  N   -1.25458031231109     -1.19089082650332     -0.29913798487857
  O   -2.14956288861864     -1.58019810603192      0.43942604497032
  O   -0.77369639643216     -1.79304129099017     -1.25313697504111
