15
Coordinates from ORCA-job run
  C   0.82418493911568      0.55066424211462      0.13954331057601
  C   -0.65832923271094      0.22221531394546      0.45693266314014
  Br  1.61331175595429      1.36681171481503      1.69559806115291
  H   -1.08899500696459      1.11325382410223      0.91432047103921
  N   1.51459555965069     -0.80025261298645     -0.17459819767196
  O   0.96193052692787     -1.39117344269382     -1.09636502795437
  O   2.47961370568658     -1.15567882018201      0.47045594830976
  C   1.06486316908575      1.40533981260665     -1.01151544808914
  N   1.34268475151677      2.08939294703724     -1.92747916306267
  N   -0.73682829009925     -0.89555982656344      1.31395838808590
  H   -1.58032676628146     -0.87744342299298      1.86918918379898
  H   -0.71292959011664     -1.75968929387483      0.78449442423276
  N   -1.47036608518010      0.06814403727563     -0.84500591952551
  O   -1.94248971393839     -1.03359653919128     -1.09191714913167
  O   -1.61191972264627      1.09557206658795     -1.49861154490034
