15
Coordinates from ORCA-job run
  C   0.78415420497152      0.47131545762099      0.08034547979185
  C   -0.73974695536583      0.26891402728544      0.37992366540123
  Br  1.64221835499877      1.11199560191974      1.68946766084169
  H   -1.14793686977314      1.26064601864958      0.57766745500785
  N   1.42990226609129     -0.86852694023106     -0.31793486905541
  O   1.82573791190570     -0.96210317479341     -1.46986753967768
  O   1.45507904289014     -1.72720775814968      0.55065293486204
  C   0.98218409974311      1.43374034432414     -0.98783967164363
  N   1.08929330204056      2.25602917332759     -1.82275781871280
  N   -1.12686345694467     -0.64203701354192      1.38708268783155
  H   -0.60667739360040     -1.50811358631148      1.35414567717713
  H   -1.07497833294233     -0.22813961341815      2.30613768543014
  N   -1.35810738104393     -0.17551220578721     -0.92859200700723
  O   -1.13556819615476     -1.34045797412626     -1.24593830187823
  O   -2.01769059681601      0.64945764323170     -1.55049303836850
