15
Coordinates from ORCA-job run
  C   0.84016706851653      0.50041335048179      0.11899553392368
  C   -0.65682147989361      0.29985296723016      0.45524827606963
  Br  1.80545074899748      1.07979055729003      1.68219760551142
  H   -1.09086151385504      1.28747712089769      0.62159337093846
  N   1.42141597458426     -0.85228246319134     -0.36002729723064
  O   1.68611133982833     -0.93467702208162     -1.55041610367887
  O   1.51665361471335     -1.72583441696826      0.48725368143679
  C   1.02026486986675      1.48234146254437     -0.93769611239501
  N   1.15608040850821      2.31989237838108     -1.75227838484452
  N   -0.88406564422178     -0.55198699334498      1.54610129564629
  H   -0.57140432008020     -1.49871190790273      1.38006690392037
  H   -1.85251000860336     -0.53840151355691      1.83324848780919
  N   -1.30797170961429     -0.17416947935939     -0.86622987644037
  O   -1.78019937521712      0.69313095512435     -1.59373843554017
  O   -1.30330997352951     -1.38583499554424     -1.06531894512624
