15
Coordinates from ORCA-job run
  C   0.68387405331756      0.51465140675306      0.02321858970776
  C   -0.68375657669456     -0.08791871215641      0.42976346110898
  Br  0.91920059182152      2.31619184819267      0.68665953801683
  H   -0.75954201115809     -0.04933418383563      1.51394181887802
  N   1.77087809628665     -0.34846515682221      0.70890103591176
  O   1.48234119548175     -0.79822985776032      1.80921338282215
  O   2.82746729207006     -0.47458971768729      0.11109314744429
  C   0.91548780376733      0.46720355036222     -1.40870112610640
  N   1.08414835731063      0.39367046557732     -2.57069993467074
  N   -0.92587174346330     -1.39898548467099     -0.05113295727235
  H   -0.75723195000806     -1.51047264750499     -1.04187796426536
  H   -0.47103228147244     -2.10940486545627      0.50176362428963
  N   -1.76502525705082      0.81606570095802     -0.10421423986304
  O   -2.37262188022920      1.50550886809385      0.70704605876990
  O   -1.95031568997905      0.76510878595698     -1.31697443477143
