15
Coordinates from ORCA-job run
  C   0.78423357911618      0.46759994275001      0.09891950825228
  C   -0.73925927701675      0.25261064225187      0.39254323016720
  Br  1.64560592491225      1.03947344707221      1.73191567675868
  H   -1.14659044566081      1.23505057990045      0.63401155710911
  N   1.42957047333809     -0.85386374258084     -0.35704859750122
  O   1.82476930754239     -0.89820874244162     -1.51209124883127
  O   1.45519160929149     -1.74875669285405      0.47424370534290
  C   0.97959697182336      1.47462366666752     -0.92783937737479
  N   1.08620664826499      2.33091487606118     -1.72789897534387
  N   -1.12523610657029     -0.70147652657736      1.35983959825791
  H   -0.60435867466207     -1.56499926615153      1.28732098648287
  H   -1.06763747865478     -0.32842650702980      2.29599947730223
  N   -1.36071182042200     -0.13458706069742     -0.93252402330132
  O   -1.13396534925098     -1.28297753871555     -1.30293233150413
  O   -2.02741536205107      0.71402292234494     -1.51345918581659
