15
Coordinates from ORCA-job run
  C   0.85910545404644      0.07051687207257      0.04655550279816
  C   -0.67626655015548      0.19133671272469      0.07663048614858
  Br  1.46571687711238     -1.29777454475892      1.25632954102503
  H   -0.96718354116081      0.82879384400975     -0.76168397147070
  N   1.33253877126146     -0.21611056749257     -1.41355999312132
  O   0.93614208102279      0.62565546865968     -2.20560506480819
  O   2.04121967645463     -1.17759888844267     -1.62648874348842
  C   1.45334398296736      1.34715348210348      0.40932102872248
  N   1.96236120973320      2.37236553132904      0.67949497034835
  N   -1.11678563903228      0.72256213793381      1.30103869459244
  H   -2.07640826979986      1.03422309902547      1.25026361945527
  H   -1.01985304069664      0.05912292013890      2.05906933188591
  N   -1.25835691931724     -1.19450169729464     -0.26883778422670
  O   -2.05030484230288     -1.68363981063500      0.52603513640002
  O   -0.88426925013308     -1.68310455937359     -1.32956275426090
