15
Coordinates from ORCA-job run
  C   0.85639752017542      0.45135312740065      0.06372738472019
  C   -0.64116529593565      0.31190892948053      0.40922811941586
  Br  1.85437291489855      0.99073445402672      1.63461387117106
  H   -1.04654563804737      1.32640959856551      0.47170490785275
  N   1.45214801873250     -0.88738480710008     -0.39186816988760
  O   2.41484617127807     -0.83459334509417     -1.13627568292960
  O   0.92908293267751     -1.88895322706644      0.07918232212826
  C   1.07666650609587      1.44824807272715     -0.97192485172426
  N   1.22217568218652      2.31642000619061     -1.75139364560946
  N   -0.93204933214378     -0.38150576596266      1.59715256005504
  H   -1.90056593372248     -0.26337400062393      1.85721016809495
  H   -0.69352377765711     -1.36086671875692      1.53229172241549
  N   -1.35110507905725     -0.27666224902171     -0.84044577488723
  O   -0.71611959152527     -0.38247217725793     -1.88536266322288
  O   -2.52661509795554     -0.57026189750734     -0.66784026759256
