15
Coordinates from ORCA-job run
  C   0.80277970042828      0.54168372081527      0.06369667438834
  C   -0.65891975739576      0.21936856936843      0.44026126173763
  Br  1.78332460451150      1.11511500455320      1.63404715122210
  H   -1.17283069969577      1.17791209000069      0.56029670279880
  N   1.52735751498400     -0.69924114961629     -0.47337281452740
  O   2.45050917386411     -0.50572797846189     -1.24404602287839
  O   1.13504845988665     -1.77301523625623     -0.03544663061529
  C   0.87935141830691      1.60503666691416     -0.92555850628279
  N   0.90687546203111      2.51774785721668     -1.66632534373275
  N   -0.83475996736160     -0.55347796154851      1.60123565062801
  H   -1.80267976263074     -0.55898885686809      1.88886360285293
  H   -0.48911042356386     -1.49542740632180      1.48547758907135
  N   -1.33599867559643     -0.39084056519600     -0.81758306697981
  O   -0.72767386252875     -0.37196148533892     -1.88337460314214
  O   -2.46327318523967     -0.82818326926070     -0.62817164454060
