15
Coordinates from ORCA-job run
  C   0.74466931023693      0.52875206324404      0.10139076701718
  C   -0.73531325775458      0.15027316197889      0.44617185803462
  Br  1.63472703802136      1.05206255734894      1.73605854952911
  H   -1.21384076822409      1.06733466178405      0.79151179335156
  N   1.48600740206240     -0.68366923734152     -0.48981412610312
  O   1.62793329386041     -1.63793966424364      0.25967279002188
  O   1.83619337372384     -0.59445474359484     -1.65654037859796
  C   0.79062727741182      1.62707588470630     -0.84608345026937
  N   0.76018966068614      2.53689528981756     -1.59173263167075
  N   -0.98214814694809     -0.91257597682866      1.34346801631594
  H   -0.91245244416733     -0.61380154393762      2.30506294746104
  H   -0.38771505954505     -1.71280483534981      1.17469728730115
  N   -1.39386077989915     -0.18204176081776     -0.87539160360073
  O   -1.06635726166925     -1.25714542205077     -1.36967794303829
  O   -2.18865963779536      0.63203956528484     -1.33079387575226
