15
Coordinates from ORCA-job run
  C   0.81419141606765     -0.01331318794585      0.07853954423392
  C   -0.73913540696099      0.16390635631732      0.02082459406760
  Br  1.32302355847621     -1.45435001168245      1.24163096564394
  H   -0.93391860801442      0.85516922414399     -0.80210676481908
  N   1.35874838860721     -0.22296198793642     -1.36304276852276
  O   1.12383078382370      0.73067820643370     -2.09212057652301
  O   1.93199695152246     -1.25788360130902     -1.63595973694114
  C   1.38455642135062      1.23259150733223      0.56362523063565
  N   1.79526868148134      2.25507156805078      0.97561065104292
  N   -1.37717741063939      0.59799427718982      1.19931410360733
  H   -1.22427775935794      1.57888995047997      1.38451479274247
  H   -1.16941658032646      0.02648700743529      2.00634099505568
  N   -1.30740752458176     -1.17249511477209     -0.41431110601224
  O   -1.95699758962367     -1.81241623673416      0.39950085792678
  O   -1.02228532182456     -1.50736795700311     -1.56136078213807
