15
Coordinates from ORCA-job run
  C   0.81849621020847      0.56153942969653      0.12569585802441
  C   -0.66365017424247      0.23183253211395      0.44458326347506
  Br  1.59027417718073      1.43446866416087      1.65925415124593
  H   -1.10465050175156      1.13491533377548      0.86724479076688
  N   1.52185328791186     -0.79322372408896     -0.13919302046852
  O   2.48981068579468     -1.11587765028452      0.51857969024362
  O   0.97715130572331     -1.42120393302109     -1.04105015917816
  C   1.06057484780206      1.37999786640274     -1.05116100626469
  N   1.33987648558088      2.04301144170195     -1.98204294792162
  N   -0.73843979818261     -0.85614969338642      1.33942984036820
  H   -1.58302804603383     -0.82464429751925      1.89238221546037
  H   -0.70692944721354     -1.73753238056798      0.83999263109300
  N   -1.46504666668639      0.02428433195649     -0.85704224679665
  O   -1.60785025078461      1.02555305826132     -1.54960200261413
  O   -1.92844211530697     -1.08897097920110     -1.06607105743374
