15
Coordinates from ORCA-job run
  C   0.64120099555202      0.56836343435813     -0.02579942471357
  C   -0.72814306878455     -0.04670700485015      0.35469623023416
  Br  0.67034604368722      2.49051075883214      0.19285113827742
  H   -0.95376534322221      0.24199536965170      1.37867018066626
  N   1.67356724461046     -0.00215436021150      0.97605155924703
  O   2.79931116117644     -0.20448122198467      0.54949998736917
  O   1.27185843409548     -0.16833931233621      2.11936439911165
  C   1.06791944971845      0.20581383707351     -1.36463466365264
  N   1.39638817675149     -0.12295346278766     -2.44546265780092
  N   -0.81693221820785     -1.45164720108639      0.19045636447067
  H   -0.40339842617693     -1.96407461225664      0.95442411201728
  H   -0.50429687669461     -1.78042529339220     -0.71320091612824
  N   -1.78146490284808      0.59658823420772     -0.50983905418191
  O   -2.53508154311341      1.40056697023933      0.02726603855866
  O   -1.79750912654392      0.23894386454290     -1.68434329347503
