15
Coordinates from ORCA-job run
  C   0.85382547199871      0.11965223223853     -0.03607620733339
  C   -0.67764421873530      0.15615689810905      0.12667116593340
  Br  1.64464455004712     -1.14305154475245      1.18253574208879
  H   -1.07936990802356      0.72615246117573     -0.71440684317729
  N   1.21603856697573     -0.21978069700770     -1.51584869052619
  O   1.97338936418756     -1.14008396104483     -1.74201180823812
  O   0.69276319325467      0.54606598184280     -2.31122421356085
  C   1.39933217811141      1.44521941740063      0.20875917125614
  N   1.86417082262279      2.51099749042055      0.38595823224790
  N   -1.04134217372164      0.73249268317198      1.35569966505653
  H   -0.83973501764174      0.12167399065870      2.13698823276801
  H   -2.01796032977929      0.99031418225206      1.37452381844896
  N   -1.20202890845769     -1.27762258417794     -0.09150270872983
  O   -1.89876743802155     -1.76011535627962      0.79162832213370
  O   -0.88431615281721     -1.80807119400749     -1.15069387836775
