15
Coordinates from ORCA-job run
  C   0.75154214714496      0.51090083775172      0.13492474784685
  C   -0.77189420068414      0.21625945708074      0.35128989015841
  Br  1.49632885927984      1.13478588269898      1.80508736142549
  H   -1.24396311011106      1.17717253259764      0.55937696288950
  N   1.48143256640528     -0.78000678198756     -0.27860504220095
  O   1.52436239875936     -1.66249577293095      0.56490628827169
  O   1.91487400229112     -0.81775027227065     -1.42031186916468
  C   0.95065442274087      1.52112239259294     -0.88805083510406
  N   1.07413313146908      2.38408567576750     -1.67844179738248
  N   -1.15532869720785     -0.74886402209804      1.30865279458260
  H   -1.15618470857199     -0.36700442624474      2.24314540914896
  H   -0.59197742177819     -1.58743136165653      1.26738147989066
  N   -1.30057393890979     -0.21677601571829     -0.99996193822289
  O   -1.94865378021270      0.60299382742981     -1.64055104730987
  O   -1.02275167061479     -1.36599195301257     -1.32984240482923
