15
Coordinates from ORCA-job run
  C   0.76760500614413      0.48301193911543     -0.06166113786034
  C   -0.58022766205116     -0.03859140139584      0.46183744346236
  Br  1.05659693914263      2.34623487634903      0.35061053367658
  H   -0.60937095470548      0.10800429172824      1.54037630689241
  N   1.83729230127943     -0.33573285834288      0.70315556102795
  O   2.69802746002377     -0.88011083812976      0.03199790064986
  O   1.71537295433078     -0.34553953520137      1.91653674005145
  C   0.93069245048755      0.25820287075494     -1.48665660100578
  N   1.04303675723746      0.09081998374321     -2.64556399757864
  N   -0.68964001936983     -1.40393893544879      0.10855445270141
  H   -1.37815011646578     -1.88851194979044      0.66812340576984
  H   -0.89441666526963     -1.52241164214772     -0.87728745838725
  N   -1.69363670269066      0.83987723686216     -0.09994268642132
  O   -2.00537160408168      0.63087814792387     -1.27020694730485
  O   -2.19681014401152      1.65980781397992      0.66112648432633
