13

C	-0.374331	0.042831	-1.459669
C	0.0	0.0	0.0
Cl	-2.164892	0.299317	-1.659695
H	1.094339	0.0	0.0
H	-0.203901	-0.937313	-1.908063
H	-0.389457	0.854293	0.547497
N	0.337858	1.139386	-2.055474
H	1.309576	1.095778	-1.750101
H	0.313129	1.062927	-3.064106
N	-0.487207	-1.221156	0.674598
O	-0.89704	-1.102219	1.828803
O	-0.427303	-2.2837	0.057973
Br	3.458083	0.0	0.0
