13

C	-0.457696	-0.08343	-1.442852
C	0.0	0.0	0.0
Cl	-0.200935	1.565292	-2.243145
H	1.088696	0.0	0.0
H	-1.532508	-0.233132	-1.5311
H	-0.367813	-0.886997	0.520406
N	0.27167	-1.134052	-2.044371
H	0.081672	-1.208244	-3.034577
H	1.270577	-1.007531	-1.891955
N	-0.597622	1.159747	0.69987
O	-1.829764	1.230009	0.664303
O	0.136816	1.950086	1.280923
Br	3.544628	0.0	0.0
