13

C	-0.557979	0.050458	-1.423984
C	0.0	0.0	0.0
Cl	-0.278751	-1.53442	-2.214389
H	1.087843	0.0	0.0
H	0.063879	0.764109	-1.966504
H	-0.359071	0.887559	0.528351
N	-1.943291	0.416234	-1.584995
H	-2.039532	1.404386	-1.381045
H	-2.492165	-0.100609	-0.90816
N	-0.55556	-1.15368	0.7502
O	-1.780615	-1.141109	0.94189
O	0.19534	-2.048282	1.116578
Br	3.562684	0.0	0.0
