18
Coordinates from ORCA-job run
  C   0.68689155094272     -0.15307805161873     -0.37122605468076
  C   -0.70222289102662      0.28897617593465      0.10599531583528
  Br  0.56603412199592     -1.78520873445912     -1.41941918650783
  H   -0.51181363524998      1.22757965604422      0.63711481005214
  N   1.19681634439328      0.98336119490121     -1.26541351419924
  O   1.45208106461044      0.78735149126785     -2.44071001619665
  O   1.32076569558287      2.04795370218094     -0.66492502964679
  C   1.70656754552996     -0.34477109555708      0.73647545790238
  H   1.73423323924971      0.54871200282259      1.36281691732830
  H   2.69765505684171     -0.51166533259628      0.31053853262562
  H   1.44654758018439     -1.21111336201362      1.34315379008574
  C   -1.35164710148891     -0.69774585809424      1.07251148038629
  H   -0.74394746884839     -0.87592352315766      1.96269918545065
  H   -1.54451549050216     -1.65511184276653      0.58418193026355
  H   -2.30868374816918     -0.28546752460054      1.40204450233224
  N   -1.49761175464148      0.62846387053766     -1.06483717087381
  H   -1.87188821030971     -0.21040157261232     -1.49335287720184
  H   -2.27526189909456      1.21808880378700     -0.79664807295526
