18
Coordinates from ORCA-job run
  C   0.79109893747407     -0.33648340492290      0.05363067375082
  C   -0.71281670475300     -0.49763570943316      0.40341102193712
  Br  1.85523598928890     -1.42750229600452      1.27812278022576
  H   -0.90399269500284     -1.57415997796064      0.39592913757790
  N   0.97678995551605     -0.94757205839173     -1.32708334730930
  O   1.38228969739043     -0.20892658158350     -2.22168454410033
  O   0.63617898497602     -2.11717245966115     -1.46356418105451
  C   1.31706646661364      1.07848571816833      0.08196904961857
  H   0.76386934657892      1.70821685221008     -0.61517597408148
  H   1.21975724892389      1.47589179470417      1.09236726496696
  H   2.36890579957225      1.10283500321424     -0.19900194599226
  C   -1.59456072073423      0.15925677731095     -0.65416814886165
  H   -2.63433357769820     -0.04353758056835     -0.39538325174292
  H   -1.45984331058417      1.24399936559037     -0.67261304628956
  H   -1.40797269250864     -0.22990692722187     -1.65596995631025
  N   -1.08417267311211      0.00976247716485      1.70689924019318
  H   -0.52731370375037     -0.40985867581964      2.44066626027657
  H   -0.98518634819060      1.01630768320447      1.75264896719537
