18
Coordinates from ORCA-job run
  C   0.74336742847062     -0.38109639091210     -0.02020122296299
  C   -0.72141555450340     -0.23240881701401      0.50915533816107
  Br  1.27008763237876     -2.24956250274053      0.06823394605073
  H   -0.73392887639063     -0.82096785978380      1.43269470353002
  N   0.73328641858360      0.07318515517612     -1.47183490027883
  O   0.59834284289695      1.29184188738693     -1.60620550291737
  O   0.76742545799998     -0.73989055585677     -2.38355429660402
  C   1.76215158826374      0.44312114290018      0.74176577228330
  H   1.53469673319611      1.50330635978175      0.64748508393698
  H   1.74061990277713      0.15356547410586      1.79428093585868
  H   2.76625561474296      0.26202512128224      0.35527008349421
  C   -1.73672986781089     -0.81266965495732     -0.46688571209725
  H   -1.81779687679975     -0.18021224075686     -1.35587418011402
  H   -2.71268285962843     -0.82831130092039      0.01818969998784
  H   -1.47569082226523     -1.82198599184319     -0.78485116574653
  N   -1.11944615124286      1.11662197113061      0.85404194257713
  H   -0.56486736537425      1.48996815907552      1.61301165023348
  H   -1.03167524529440      1.73347004394579      0.05527782460752
