18
Coordinates from ORCA-job run
  C   0.80731276692677     -0.37078486733572      0.03744746908087
  C   -0.68984595095209     -0.39940450779237      0.39306764114627
  Br  1.77704736188616     -1.54838332498235      1.26605504975953
  H   -0.99227177466572     -1.45346215377540      0.35856604363638
  N   0.93900778847005     -1.01455947518240     -1.33707859215996
  O   0.44400598815454     -2.12722842833848     -1.47845510253659
  O   1.48374154997667     -0.35615807466672     -2.21931370296955
  C   1.44370745038190      0.99584915205795      0.05892725885563
  H   0.97734306053488      1.64010379849852     -0.68678008524586
  H   1.29316241768319      1.42253249173084      1.04889537910365
  H   2.50745308442990      0.92966736342690     -0.16422832552957
  C   -1.51053209771948      0.37806050434315     -0.63075178480314
  H   -2.57327460969109      0.23479488387176     -0.41747738754052
  H   -1.33736942528795      0.03137868221409     -1.65075146046545
  H   -1.29440499568238      1.44585106859187     -0.57045133514852
  N   -0.86503091291358      0.21394541186143      1.70455002422703
  H   -1.84868156494728      0.40354367245726      1.85421102870450
  H   -0.56237013658451     -0.42474619698031      2.43056788188532
