18
Coordinates from ORCA-job run
  C   0.79171231813513     -0.34575205899307     -0.08866324484275
  C   -0.64970808096476     -0.17648804480862      0.44303215203612
  Br  1.27583056509154     -2.23433902191700     -0.14911159170295
  H   -0.61314793384760     -0.61923762428998      1.44959098160396
  N   0.86190152460207      0.18395076118015     -1.51491436859549
  O   1.54320568839445      1.18549050924803     -1.70753293460475
  O   0.20456334153998     -0.40679587512663     -2.36470637992680
  C   1.80058731581441      0.37899852873287      0.77571848834019
  H   1.58495249320690      1.44614986677479      0.77318315334840
  H   2.81206555631637      0.23041798668310      0.39997824734765
  H   1.74169493333028     -0.01661836107004      1.79191975774388
  C   -1.75149455757821     -0.87503091278278     -0.34167325282638
  H   -1.51276029109499     -1.91519544248203     -0.55391335832518
  H   -2.66812067397473     -0.84447397347352      0.25395980815085
  H   -1.93106329058042     -0.36585116679412     -1.28867450594739
  N   -0.91159592589882      1.26047736513124      0.47475183522284
  H   -1.88250190096782      1.45129566909396      0.26769723480772
  H   -0.69512108152379      1.66300179489370      1.37635797817004
