18
Coordinates from ORCA-job run
  C   0.82987149615901     -0.31803079350494      0.02467556189135
  C   -0.65128769845743     -0.42810020262947      0.42779366972328
  Br  1.90875867856025     -1.39009888728199      1.25868427135818
  H   -0.88638043620078     -1.49979113899498      0.43706299640379
  N   0.96087398775146     -0.99844952023147     -1.33244389606622
  O   0.53722995306792     -2.14561934391527     -1.42132739797180
  O   1.43092242966003     -0.33601603072126     -2.25370413755986
  C   1.37878069721705      1.08547479098303     -0.01875453265220
  H   1.23042667446978      1.53630772788772      0.96084428505257
  H   2.43769882724960      1.07813435859937     -0.27251641649932
  H   0.85109049139465      1.67353478582886     -0.76994636760499
  C   -1.54945370971898      0.26038977861328     -0.59460621089278
  H   -1.38587595707761     -0.11017489023482     -1.60772982081139
  H   -1.39950067700058      1.34097575178906     -0.57597936927061
  H   -2.59420649521463      0.05914868752802     -0.34261033569252
  N   -0.82685698851543      0.21857032409870      1.72288075731183
  H   -0.45602432467266     -0.37056814225980      2.45913789659310
  H   -1.81606694867167      0.34431274444596      1.90053904668760
