18
Coordinates from ORCA-job run
  C   0.70338439251282     -0.13827936762470     -0.21596475943535
  C   -0.79004668227171      0.22481613020760      0.00766739775810
  Br  0.88009157955149     -1.87737621420704     -1.05893228336576
  H   -0.74994218960636      1.22054744882610      0.46540094664846
  N   1.22606466004302      0.93260856644976     -1.17129741571298
  O   1.33128516738309      2.04350401116380     -0.65282049409064
  O   1.43087770878012      0.67377443917071     -2.34897762896312
  C   1.55392585195364     -0.09788477963990      1.04049939569118
  H   1.38402372730374      0.84042191447949      1.57028390025722
  H   2.61276399778305     -0.17342174992059      0.78623781376784
  H   1.29873185064404     -0.93472630399513      1.68857889819799
  C   -1.47753752428823     -0.72770810807652      0.97513831574318
  H   -0.96379671224304     -0.78661654495164      1.93573603522927
  H   -2.49006427753671     -0.35972771672607      1.14425494129469
  H   -1.54598471077073     -1.73295701952829      0.55458466635123
  N   -1.58249216662349      0.34213426807137     -1.19790548388502
  H   -1.24519614422188      1.07751992310504     -1.80636366345689
  H   -1.57608852839286     -0.52862889680401     -1.71612058202936
