18
Coordinates from ORCA-job run
  C   0.79151281405602     -0.39073874575044     -0.03422112934293
  C   -0.63117262110113     -0.19244516854251      0.54081821822263
  Br  1.25312473023067     -2.27805490660799      0.04648560626662
  H   -0.63120516843005     -0.77017659280040      1.47058631767770
  N   0.74470444493338      0.04971913848510     -1.49649519128617
  O   0.54978264494935      1.25808188279406     -1.63609400476183
  O   0.83771262884641     -0.76268523814079     -2.40397167698556
  C   1.86565685933671      0.40944164068057      0.67401257197686
  H   1.88031060189385      0.12462883807015      1.72663181283030
  H   2.84271433058510      0.19931961485888      0.23485762197704
  H   1.63694310966364      1.46975674181655      0.60629761014216
  C   -1.71282719059749     -0.74663994947607     -0.38794317530812
  H   -1.79271791778691     -0.13421909266900     -1.29056858428388
  H   -2.67760104025137     -0.70909304202028      0.12346211499747
  H   -1.52293827697437     -1.77993248106672     -0.68369922670260
  N   -0.82079562436348      1.20353399403337      0.92312835629516
  H   -0.95751467383751      1.77211173699774      0.09514892543034
  H   -1.65568965115281      1.27539162933777      1.49256383285480
