18
Coordinates from ORCA-job run
  C   0.79999548850529     -0.31763859382479      0.02722965836683
  C   -0.68436614559882     -0.50588944180245      0.44098467496466
  Br  1.93777392788858     -1.36062851201363      1.22725030889710
  H   -0.85052791756068     -1.58637746426712      0.46089949617679
  N   0.94419055676308     -0.95133986344967     -1.34842644961801
  O   1.29867881620971     -0.22201315409172     -2.27182438039277
  O   0.62362998155893     -2.13014092765555     -1.44956561193128
  C   1.29373015709826      1.10896834614930      0.00782640833280
  H   1.22567975829186      1.52420556668971      1.01346245076812
  H   2.33334126263805      1.15133595788825     -0.31359469931478
  H   0.70011104569903      1.71202543768288     -0.67955267321921
  C   -1.62293362882570      0.11095375950962     -0.59149225189897
  H   -2.64645433520177     -0.10844595104050     -0.28575103360245
  H   -1.46921552923658     -0.29423655123634     -1.59253084897690
  H   -1.51264441930844      1.19768205991514     -0.63632055361854
  N   -1.01475578457294      0.01754733887278      1.74921977700836
  H   -0.41920827729780     -0.37573125969770      2.46704701643348
  H   -0.93702495705007      1.02672325237179      1.77313871162478
