14

C	0.0	0.0	0.0
C	-0.635258	0.186533	-1.344895
F	1.32994	0.0	0.0
H	-0.508804	-0.737599	-1.910137
H	-1.720096	0.329822	-1.153323
N	-0.337982	1.171101	0.943669
O	0.272722	1.169782	2.00584
O	-1.088955	2.038305	0.520753
N	-0.439834	-1.32251	0.630297
O	-0.370457	-2.277067	-0.137425
O	-0.716542	-1.348575	1.818354
C	-0.030333	1.298092	-2.063112
N	0.474514	2.169223	-2.665141
Cl	-3.563293	0.0	0.0
