14

C	0.0	0.0	0.0
C	-0.675534	-0.537136	-1.226882
F	1.325428	0.0	0.0
H	-1.768819	-0.550677	-1.006828
H	-0.490661	0.156826	-2.048571
N	-0.421233	1.453532	0.212808
O	-1.184591	1.718342	1.12615
O	0.083089	2.221429	-0.601462
N	-0.373594	-0.779465	1.261658
O	-1.149706	-1.71519	1.143871
O	0.212442	-0.414354	2.274817
C	-0.16322	-1.854434	-1.577131
N	0.268022	-2.898367	-1.894999
Cl	-3.727125	0.0	0.0
