14

C	0.0	0.0	0.0
C	-0.639529	0.555615	-1.237778
F	1.325374	0.0	0.0
H	-0.468125	-0.159635	-2.045593
H	-1.731955	0.603731	-1.032272
N	-0.356939	0.802157	1.254075
O	-1.055746	1.795125	1.110536
O	0.186361	0.416453	2.282971
N	-0.426324	-1.457992	0.198789
O	-0.975798	-1.794534	1.232532
O	-0.092214	-2.176444	-0.739411
C	-0.069487	1.845782	-1.597668
N	0.403812	2.867223	-1.930844
Cl	-3.588088	0.0	0.0
