14

C	0.0	0.0	0.0
C	-0.644059	-0.2317	-1.334287
F	1.33003	0.0	0.0
H	-0.489563	0.665125	-1.937824
H	-1.73408	-0.342138	-1.138365
N	-0.427415	1.360207	0.558385
O	-0.95945	1.424037	1.652071
O	-0.115327	2.291875	-0.177539
N	-0.349978	-1.097177	1.012311
O	-1.057659	-2.016869	0.628364
O	0.203955	-0.986812	2.099886
C	-0.067935	-1.3854	-2.008969
N	0.406214	-2.292662	-2.583304
Cl	-3.596992	0.0	0.0
