14

C	0.0	0.0	0.0
C	-0.636947	0.405105	-1.297281
F	1.32533	0.0	0.0
H	-0.464001	-0.400977	-2.014168
H	-1.728933	0.481375	-1.102236
N	-0.359885	0.947639	1.146563
O	0.177412	0.687697	2.217892
O	-1.059183	1.914575	0.880603
N	-0.429658	-1.423316	0.364811
O	-0.985569	-1.634198	1.427671
O	-0.093084	-2.247531	-0.481038
C	-0.064075	1.642512	-1.80794
N	0.411896	2.617538	-2.255767
Cl	-3.60127	0.0	0.0
