16
Coordinates from ORCA-job run
  C   0.79883097270702     -0.06998373310489     -0.06877683623937
  C   -0.66495075618021     -0.51749693701477      0.05688086773100
  Br  1.79524778454083     -1.27634343070212     -1.22677087497632
  H   -0.66148443381934     -1.53925636382480      0.44283204245834
  N   1.46410200146739     -0.28150651181860      1.33831956323039
  O   2.23448869100123      0.59700262725375      1.70426031558929
  O   1.17125771952632     -1.30087791948672      1.94804505591910
  N   0.92032773626749      1.24494478461844     -0.53854020846796
  H   0.40549936173505      1.88913612295295      0.05355043274903
  H   1.88819705347339      1.53662454637898     -0.58629744518732
  C   -1.43048693851252     -0.43834199181965     -1.26549790224142
  H   -0.98440902302356     -1.11258030709365     -1.99592060743574
  H   -1.40793986456230      0.57551912508906     -1.66303063897889
  H   -2.46763176589304     -0.73671100685133     -1.10386866438977
  C   -1.29166742175578      0.34479830632975      1.06451024799685
  N   -1.77038111697197      1.08607268909361      1.84030465224277
