16
Coordinates from ORCA-job run
  C   0.82038979819536     -0.23980978336533      0.15208645732587
  C   -0.58487322681767      0.07419436522052     -0.41875398594706
  Br  0.85104415255947     -1.97233959198244      0.99333515087144
  H   -0.48157486632147      1.06898765058661     -0.87071326861962
  N   1.06746813006236      0.87018136755694      1.19006829784729
  O   1.20080259848286      1.97708211634361      0.67275964897939
  O   1.07543710376005      0.61986265024812      2.38344450949366
  N   1.91096525261557     -0.15862674584517     -0.76468740216732
  H   1.91704393710014     -0.95267344212101     -1.39162605064095
  H   1.86932672620159      0.70797681422337     -1.28881459599712
  C   -1.71183827168217      0.11319813428032      0.61385729960785
  H   -1.83966330004871     -0.85841088185279      1.08985473750117
  H   -1.49978765249211      0.85850542464200      1.38230875712508
  H   -2.64703185125139      0.38855267864965      0.12385770779083
  C   -0.86359144042692     -0.87113852584768     -1.49768552572188
  N   -1.08511708993694     -1.62654223073672     -2.36929173744864
