16
Coordinates from ORCA-job run
  C   0.75476750177566     -0.08967395484608      0.14859824778314
  C   -0.65260629434834      0.11689915201807     -0.43708029696326
  Br  0.74048098388835     -1.64832424026430      1.40600912896733
  H   -0.61917333389431      1.11267316134868     -0.89301283663012
  N   1.16458822769954      1.10540036311669      1.01829946026957
  O   2.31516163017652      1.08650419207763      1.43145652580688
  O   0.34117831629317      1.99442288004806      1.19899311260352
  N   1.73520305890841     -0.15655665322730     -0.85032755483818
  H   1.56924841880612     -0.91089715563017     -1.50498913787622
  H   2.66424720893434     -0.22631192883572     -0.45246953265035
  C   -1.83315424873870      0.03994117069927      0.53561123234364
  H   -2.73306110741190      0.37545885798571      0.01632426018534
  H   -1.66583235381723      0.68952163944042      1.39169462043548
  H   -1.99175322304791     -0.98096902929232      0.87804574806523
  C   -0.82906549562451     -0.85727395136736     -1.51577182898156
  N   -0.96122928959920     -1.64981450327130     -2.37238114852044
