16
Coordinates from ORCA-job run
  C   0.79086052978401     -0.28801442910568      0.04701287089610
  C   -0.63389617807578      0.00437924649678     -0.45825477893464
  Br  0.90371111112289     -1.96347359390998      0.99094405286306
  H   -0.54815558995001      0.93674229076148     -1.03200865344534
  N   1.07342250410428      0.87959090401916      1.05608912506432
  O   1.06136863986008      0.69035517669704      2.26143011995029
  O   1.23984848476100      1.95791537264966      0.48776760060520
  N   1.70521166485911     -0.29222425398115     -1.02696693752943
  H   2.63589277543415     -0.56894808949149     -0.74133169855782
  H   1.72904312099633      0.61455947312232     -1.47892083799476
  C   -1.67229662849305      0.20177572945595      0.64806831347151
  H   -1.72350549317191     -0.67499032505267      1.29400869762422
  H   -2.65331046570399      0.35946357653169      0.19799629848987
  H   -1.43309889280823      1.07697120380783      1.25372139349506
  C   -1.04062917586355     -1.05207639564747     -1.38346684972141
  N   -1.43346640685534     -1.88202588635347     -2.11508871627623
