16
Coordinates from ORCA-job run
  C   0.79723372867565     -0.09001244183167     -0.06034192340938
  C   -0.68016995555418     -0.49878796559182      0.03415134839064
  Br  1.77451809053845     -1.28963135885839     -1.24078824758514
  H   -0.71068785300091     -1.52934697623884      0.39464803581583
  N   1.43786819371039     -0.36136587905064      1.34783387842493
  O   1.10661134278495     -1.38788391801974      1.92509747030800
  O   2.22866401963838      0.48337734707813      1.74825299337387
  N   0.96216283324850      1.23400207898485     -0.48965264527982
  H   0.46036591856578      1.87559540855094      0.11634531858550
  H   1.93866391701620      1.49815058877153     -0.51958084279386
  C   -1.42473008833619     -0.36494383516094     -1.29574039615367
  H   -2.47391674964682     -0.62915620074736     -1.15328928517309
  H   -1.36058032791650      0.65568373629185     -1.67099064757992
  H   -0.99346477879362     -1.03966336229127     -2.03465519529881
  C   -1.29646533712792      0.35551115284572      1.05507092032807
  N   -1.76707295380217      1.08847162526766      1.84363921804687
