16
Coordinates from ORCA-job run
  C   0.78582879238193      0.00607361278239      0.06668032489909
  C   -0.64057527919782     -0.55311207975107      0.07039151841204
  Br  1.93049333614964     -1.24814719965090     -1.03286674633095
  H   -0.58142348963269     -1.60448354404186      0.35882938408901
  N   1.40525359148752     -0.12928416084575      1.46178129125372
  O   2.27493167380462      0.68172970417611      1.75162620157450
  O   1.00694241456193     -1.05641180705794      2.15240091001779
  N   0.85268712258654      1.34455660163879     -0.30138479291455
  H   1.76355834866832      1.74738580652741     -0.12039821913140
  H   0.56136929759085      1.50408747071206     -1.25548768045566
  C   -1.33380429691287     -0.41500870906864     -1.28834764938317
  H   -0.74264257316483     -0.89009974372823     -2.07149790329913
  H   -1.50467296447382      0.63389535724243     -1.53719081947870
  H   -2.30779897112664     -0.90434532173555     -1.24563879425049
  C   -1.41103179433598      0.15621300360015      1.09717526456102
  N   -2.05911520838670      0.72495100920060      1.89392771043688
