15

C	0.0	0.0	0.0
C	-0.461944	0.124993	-1.490115
Cl	1.760646	0.0	0.0
H	0.440035	0.047141	-2.107581
C	-0.453949	1.090986	0.855359
N	-0.568512	2.004118	1.587291
N	-0.376887	-1.329116	0.650485
O	-0.615561	-1.321266	1.846256
O	-0.273068	-2.315509	-0.065979
N	-1.024389	1.454219	-1.673885
H	-1.223052	1.576412	-2.661533
H	-1.907665	1.37362	-1.158219
C	-1.36525	-0.935805	-1.974333
N	-1.991062	-1.662631	-2.656911
F	-2.353152	0.0	0.0
