15

C	0.0	0.0	0.0
C	-0.463146	0.104467	-1.491756
Cl	1.761462	0.0	0.0
H	0.434735	-0.003868	-2.109081
C	-0.454824	1.096945	0.846596
N	-0.575151	2.013081	1.573568
N	-0.374306	-1.323939	0.658603
O	-0.609921	-1.310894	1.85528
O	-0.274201	-2.314473	-0.053403
N	-0.999044	1.442801	-1.69448
H	-1.200243	1.549287	-2.683787
H	-1.882669	1.387992	-1.177066
C	-1.397479	-0.93912	-1.95548
N	-2.044609	-1.655338	-2.630092
F	-2.349152	0.0	0.0
