14

C	-0.500249	0.02269	-1.42482
C	0.0	0.0	0.0
F	0.067166	-0.993042	-2.117415
H	1.091918	0.0	0.0
H	-1.583401	-0.028895	-1.534861
N	-0.07696	1.329899	-2.056338
O	-0.763572	2.301238	-1.740527
O	0.875977	1.318645	-2.81942
N	-0.470865	-1.279756	0.634616
O	-1.498445	-1.80609	0.196782
O	0.18798	-1.701338	1.576141
C	-0.504922	1.076844	0.826327
N	-0.884439	1.920204	1.553581
F	2.437659	0.0	0.0
