14

C	-0.48701	-0.004947	-1.430298
C	0.0	0.0	0.0
F	0.092307	-1.030646	-2.096461
H	1.092422	0.0	0.0
H	-1.567524	-0.070344	-1.548884
N	-0.075506	1.293693	-2.083825
O	-0.798625	2.252216	-1.810864
O	0.898442	1.292579	-2.822277
N	-0.479527	-1.26559	0.646108
O	-1.478813	-1.821308	0.18094
O	0.157637	-1.661642	1.613645
C	-0.508426	1.100136	0.789547
N	-0.895159	1.953534	1.500425
F	2.44039	0.0	0.0
