14

C	-0.380162	0.016843	-1.454723
C	0.0	0.0	0.0
F	0.189875	1.068631	-2.083219
H	1.094948	0.0	0.0
H	-0.095668	-0.917448	-1.938639
N	-1.891875	0.154331	-1.645493
O	-2.304769	0.946608	-2.482818
O	-2.576418	-0.571957	-0.931859
N	-0.366801	-1.282727	0.635617
O	-0.191232	-2.298759	-0.035696
O	-0.736288	-1.267804	1.80816
C	-0.531153	1.130159	0.72629
N	-0.921439	2.092613	1.276913
F	2.423768	0.0	0.0
