14

C	-0.513002	-0.095433	-1.41123
C	0.0	0.0	0.0
F	-1.875869	-0.023348	-1.485393
H	1.095571	0.0	0.0
H	-0.078808	0.720502	-1.991552
N	-0.083029	-1.354599	-2.14151
O	-0.956183	-2.124215	-2.518267
O	1.118779	-1.447167	-2.34109
N	-0.435057	-1.123672	0.853512
O	-0.663952	-0.895933	2.039788
O	-0.462155	-2.237135	0.329795
C	-0.440738	1.261164	0.562568
N	-0.754913	2.324425	0.952939
F	2.418277	0.0	0.0
