14

C	-0.392849	-0.002126	-1.448384
C	0.0	0.0	0.0
F	0.146499	1.061169	-2.087343
H	1.095252	0.0	0.0
H	-0.092348	-0.928556	-1.935781
N	-1.908223	0.101395	-1.640545
O	-2.312443	0.674121	-2.645715
O	-2.602878	-0.445329	-0.789173
N	-0.372034	-1.264358	0.661608
O	-0.658711	-1.233007	1.855086
O	-0.283719	-2.28943	-0.015348
C	-0.52259	1.147026	0.705926
N	-0.945803	2.113631	1.223979
F	2.425505	0.0	0.0
