14

C	-0.465935	-0.049559	-1.441334
C	0.0	0.0	0.0
F	0.339344	-0.838212	-2.186213
H	1.091889	0.0	0.0
H	-1.498793	-0.376135	-1.564439
N	-0.416257	1.344586	-2.028962
O	-1.437931	2.01266	-1.876273
O	0.605957	1.69245	-2.60334
N	-0.420519	-1.237232	0.698731
O	-0.811593	-2.184544	0.010959
O	-0.300269	-1.259203	1.920328
C	-0.474341	1.144309	0.743303
N	-0.808697	2.088454	1.359527
F	2.410393	0.0	0.0
