14

C	-0.267186	-0.023126	-1.478901
C	0.0	0.0	0.0
F	-0.108696	1.229702	-1.990352
H	1.093683	0.0	0.0
H	0.390673	-0.716629	-1.994689
N	-1.681563	-0.428265	-1.854276
O	-1.817498	-0.970002	-2.947723
O	-2.583222	-0.149203	-1.072966
N	-0.394796	-1.276895	0.605365
O	-0.463592	-2.246278	-0.157796
O	-0.563839	-1.325419	1.819599
C	-0.541848	1.130423	0.710976
N	-0.921885	2.084875	1.282387
F	2.424094	0.0	0.0
