14

C	-0.349737	0.050704	-1.462234
C	0.0	0.0	0.0
F	0.22357	1.12622	-2.047247
H	1.094904	0.0	0.0
H	-0.043502	-0.866058	-1.964656
N	-1.855463	0.176375	-1.681051
O	-2.539142	-0.640422	-1.068815
O	-2.266772	1.039805	-2.445696
N	-0.356272	-1.300513	0.603666
O	-0.16018	-2.30083	-0.086827
O	-0.731573	-1.314479	1.775162
C	-0.555369	1.108256	0.73972
N	-0.985537	2.05164	1.294535
F	2.424286	0.0	0.0
