16

C	0.0	0.0	0.0
C	-0.525629	-0.19523	-1.437304
Cl	1.786529	0.0	0.0
H	-1.612113	-0.329802	-1.305509
N	-0.513569	1.230494	0.523514
H	-1.539321	1.139249	0.475776
H	-0.255405	1.308753	1.501805
C	-0.344144	-1.192958	0.812138
N	-0.560189	-2.126388	1.493533
C	0.029346	-1.407489	-2.033173
N	0.478597	-2.354503	-2.563844
C	-0.271576	1.019598	-2.329396
H	-0.778472	1.886207	-1.909927
H	0.796043	1.232637	-2.410459
H	-0.670288	0.821857	-3.326495
Cl	-3.504996	0.0	0.0
