16

C	0.0	0.0	0.0
C	-0.38311	-0.048222	-1.547221
Cl	1.797184	0.0	0.0
H	0.551788	0.08509	-2.099203
N	-0.475211	1.110362	0.767277
H	-1.500902	1.025801	0.769151
H	-0.223876	1.970523	0.29114
C	-0.383139	-1.253664	0.668136
N	-0.560342	-2.304056	1.163121
C	-1.1831	1.119562	-1.921441
N	-1.712652	2.064865	-2.374231
C	-1.016188	-1.357074	-2.019096
H	-1.956252	-1.51898	-1.494161
H	-1.204045	-1.294988	-3.093642
H	-0.326494	-2.184915	-1.8347
Cl	-3.422629	0.0	0.0
