16

C	0.0	0.0	0.0
C	-0.501043	-0.133898	-1.466198
Cl	1.792134	0.0	0.0
H	-1.582403	-0.312181	-1.348652
N	-0.496047	1.134082	0.720424
H	-0.251298	1.982781	0.222922
H	-1.519853	1.033252	0.731614
C	-0.370831	-1.223579	0.736495
N	-0.576021	-2.208703	1.341907
C	0.103984	-1.280565	-2.136799
N	0.59442	-2.178351	-2.714974
C	-0.299607	1.142077	-2.282193
H	-0.604335	0.967102	-3.315765
H	0.746085	1.460556	-2.277378
H	-0.933801	1.935315	-1.883462
Cl	-3.471382	0.0	0.0
