16

C	0.0	0.0	0.0
C	-0.367448	-0.138778	-1.54454
Cl	1.845009	0.0	0.0
H	0.57807	-0.14287	-2.091697
N	-0.500957	1.119405	0.718997
H	-0.351471	1.962449	0.172663
H	-1.518708	0.967513	0.780691
C	-0.342348	-1.236675	0.718011
N	-0.514827	-2.253432	1.280107
C	-1.049275	1.072381	-2.005594
N	-1.490583	2.068847	-2.442863
C	-1.109991	-1.423178	-1.93731
H	-0.482848	-2.287618	-1.701582
H	-2.062996	-1.479841	-1.415254
H	-1.283765	-1.409786	-3.016106
Cl	-3.451802	0.0	0.0
