18

C	-0.435862	-0.003568	-1.450478
C	0.0	0.0	0.0
F	0.336398	-0.827378	-2.206423
H	1.094174	0.0	0.0
N	-1.868802	-0.526913	-1.594417
O	-2.66227	-0.154622	-0.730743
O	-2.147722	-1.203445	-2.574741
C	-0.405983	1.375248	-2.06262
H	-1.115284	2.033282	-1.567114
H	0.601581	1.770705	-1.924327
H	-0.630327	1.284755	-3.128496
N	-0.373743	-1.271985	0.655595
O	-0.473535	-2.283203	-0.049268
O	-0.46085	-1.269491	1.889136
N	-0.39973	1.155366	0.729726
H	-1.321942	1.022392	1.125214
H	0.268921	1.289168	1.480041
H	2.560901	0.0	0.0
