18

C	-0.521947	-0.154906	-1.42548
C	0.0	0.0	0.0
F	-1.819165	-0.625707	-1.426831
H	1.08884	0.0	0.0
N	-0.602105	1.259793	-1.988387
O	0.466356	1.772821	-2.292371
O	-1.708394	1.772361	-2.099852
C	0.337519	-0.977186	-2.34801
H	0.023536	-0.828791	-3.384354
H	0.229451	-2.023202	-2.072214
H	1.37918	-0.679481	-2.208605
N	-0.353232	-1.226677	0.767026
O	-0.087441	-2.317395	0.254501
O	-0.798141	-1.092036	1.913675
N	-0.426158	1.20314	0.628089
H	-1.299064	1.074893	1.121526
H	0.291789	1.475598	1.290777
H	2.589666	0.0	0.0
