18

C	-0.376839	0.052772	-1.474337
C	0.0	0.0	0.0
F	-0.049686	-1.147331	-2.036022
H	1.091167	0.0	0.0
N	-1.877972	0.2176	-1.719466
O	-2.482398	-0.658241	-2.320811
O	-2.368871	1.270959	-1.310026
C	0.359728	1.163461	-2.175986
H	0.192637	1.085701	-3.253423
H	0.014874	2.133131	-1.821745
H	1.421145	1.039862	-1.935215
N	-0.569091	-1.27354	0.560967
O	0.188188	-2.10337	1.051963
O	-1.799193	-1.377071	0.512988
N	-0.397135	1.085432	0.831965
H	0.406627	1.681755	0.991966
H	-1.198559	1.597216	0.492479
H	2.750197	0.0	0.0
