18

C	-0.443914	0.004743	-1.445801
C	0.0	0.0	0.0
F	0.290135	-0.854107	-2.202816
H	1.094193	0.0	0.0
N	-1.897004	-0.461723	-1.5767
O	-2.211875	-1.125682	-2.554753
O	-2.667867	-0.053641	-0.708571
C	-0.358535	1.378412	-2.063041
H	-0.586399	1.293561	-3.12845
H	-1.038867	2.067987	-1.569944
H	0.664464	1.731915	-1.925165
N	-0.395982	-1.257793	0.66458
O	-0.546681	-2.266925	-0.035254
O	-0.457697	-1.249465	1.899962
N	-0.367801	1.168899	0.727528
H	-1.289556	1.061302	1.132132
H	0.31291	1.288131	1.471057
H	2.554164	0.0	0.0
