18

C	-0.487273	-0.055239	-1.441774
C	0.0	0.0	0.0
F	-1.871543	-0.08146	-1.476153
H	1.088123	0.0	0.0
N	-0.10684	1.290339	-2.055771
O	1.005175	1.369847	-2.564235
O	-0.924066	2.204359	-1.969287
C	0.075994	-1.148435	-2.305825
H	1.157089	-1.18566	-2.16515
H	-0.16813	-0.952406	-3.35248
H	-0.357172	-2.09774	-1.99957
N	-0.457815	-1.270589	0.655368
O	0.109703	-2.306087	0.29204
O	-1.339603	-1.22305	1.512975
N	-0.42522	1.127746	0.746121
H	0.335495	1.793165	0.793705
H	-1.27489	1.554706	0.4116
H	2.650736	0.0	0.0
