15

C	-0.358672	-0.123057	-1.461855
C	0.0	0.0	0.0
Br	-2.277843	-0.147582	-1.815146
H	1.098229	0.0	0.0
H	0.048	-1.045131	-1.872412
N	0.222662	0.974991	-2.316217
O	0.254153	2.105265	-1.848608
O	0.592726	0.63615	-3.436609
C	-0.410406	-1.260742	0.769439
H	-1.495229	-1.377394	0.818423
H	-0.009761	-1.196774	1.782321
H	0.033368	-2.137985	0.292483
C	-0.544775	1.182663	0.652814
N	-1.030594	2.062678	1.260715
Br	3.389505	0.0	0.0
