15

C	-0.363478	-0.045676	-1.465348
C	0.0	0.0	0.0
Br	-2.283917	-0.05766	-1.811097
H	1.095751	0.0	0.0
H	0.044203	-0.942996	-1.926463
N	0.20977	1.098448	-2.261481
O	0.225441	2.204383	-1.739039
O	0.589113	0.819777	-3.394606
C	-0.408897	-1.298588	0.703413
H	-1.493232	-1.415857	0.753059
H	-0.001085	-1.289226	1.715341
H	0.030058	-2.149888	0.177615
C	-0.54122	1.146958	0.717516
N	-1.021778	1.992819	1.375642
Br	3.389257	0.0	0.0
