15

C	-0.569596	0.223893	-1.398846
C	0.0	0.0	0.0
Br	0.233923	1.721064	-2.303066
H	1.105188	0.0	0.0
H	-1.645328	0.391677	-1.378291
N	-0.400369	-1.031481	-2.215443
O	-1.423361	-1.711156	-2.330538
O	0.707927	-1.315337	-2.641572
C	-0.443885	-1.34679	0.587686
H	-0.086977	-1.407783	1.617146
H	-1.529529	-1.472016	0.572898
H	0.024536	-2.160371	0.030693
C	-0.476724	1.094339	0.841045
N	-0.912629	1.939694	1.531833
Br	3.445172	0.0	0.0
