15

C	-0.359313	-0.026578	-1.465746
C	0.0	0.0	0.0
Br	-2.279224	-0.037315	-1.818121
H	1.109164	0.0	0.0
H	0.050861	-0.917135	-1.937481
N	0.214559	1.12808	-2.244766
O	0.198081	2.233669	-1.719713
O	0.626337	0.858498	-3.36941
C	-0.407189	-1.309158	0.685545
H	-0.002074	-1.31256	1.698371
H	0.034049	-2.152632	0.149317
H	-1.491702	-1.428814	0.731299
C	-0.539467	1.136821	0.733
N	-1.013835	1.974503	1.406526
Br	3.386678	0.0	0.0
