16

C	-0.47238	0.052728	-1.449375
C	0.0	0.0	0.0
Cl	0.396828	-1.121982	-2.513904
H	1.091273	0.0	0.0
C	-1.91847	-0.167606	-1.579031
N	-3.087216	-0.244574	-1.684704
C	-0.18627	1.381683	-2.008797
N	-0.029085	2.453152	-2.466091
N	-0.449904	-1.211998	0.646894
O	-0.891524	-2.145713	-0.049253
O	-0.248038	-1.299372	1.868808
C	-0.356789	1.232381	0.808009
H	0.00071	1.06787	1.823353
H	0.178621	2.093126	0.403084
H	-1.432808	1.436138	0.828842
H	2.442493	0.0	0.0
