16

C	-0.40093	-0.043877	-1.459906
C	0.0	0.0	0.0
Cl	-2.213869	-0.149669	-1.67843
H	1.092659	0.0	0.0
C	0.005466	1.208412	-2.112246
N	0.288061	2.209827	-2.658284
C	0.196256	-1.141645	-2.233743
N	0.656968	-1.926805	-2.976876
N	-0.400272	-1.203965	0.683296
O	-0.469547	-1.165583	1.922718
O	-0.5177	-2.247405	0.016218
C	-0.403335	1.252291	0.73972
H	-1.486071	1.345936	0.852247
H	0.057674	1.219119	1.725979
H	-0.007046	2.125707	0.218412
H	2.429253	0.0	0.0
