16

C	-0.472948	-0.013163	-1.457146
C	0.0	0.0	0.0
Cl	0.072833	1.515491	-2.259151
H	1.092119	0.0	0.0
C	0.093222	-1.110114	-2.255475
N	0.509698	-1.921999	-2.996372
C	-1.937421	-0.034017	-1.543717
N	-3.111188	0.025196	-1.581375
N	-0.44191	-1.212992	0.644311
O	-0.862482	-2.149733	-0.068613
O	-0.270051	-1.305126	1.869687
C	-0.396216	1.218604	0.804916
H	-1.481387	1.354441	0.862137
H	0.00322	1.080911	1.808833
H	0.070901	2.10629	0.379689
H	2.450348	0.0	0.0
