16

C	-0.381471	-0.018035	-1.46602
C	0.0	0.0	0.0
Cl	-2.194958	-0.052208	-1.705297
H	1.092607	0.0	0.0
C	0.081976	1.223535	-2.101074
N	0.388598	2.2262	-2.632964
C	0.174049	-1.131855	-2.24628
N	0.578047	-1.966331	-2.968268
N	-0.421297	-1.20083	0.670848
O	-0.583028	-2.233113	-0.003835
O	-0.471353	-1.172752	1.911471
C	-0.395764	1.25068	0.749309
H	0.086606	1.219738	1.725296
H	-0.019158	2.129146	0.221358
H	-1.477158	1.33432	0.883854
H	2.430442	0.0	0.0
