16

C	-0.414537	-0.070542	-1.473813
C	0.0	0.0	0.0
Cl	-0.057941	1.519378	-2.26127
H	1.109148	0.0	0.0
C	0.312331	-1.079228	-2.261805
N	0.814502	-1.820321	-3.021732
C	-1.858139	-0.291865	-1.609534
N	-3.024114	-0.405807	-1.700527
N	-0.402706	-1.214052	0.645448
O	-0.581368	-2.220533	-0.079836
O	-0.39623	-1.258515	1.888173
C	-0.425216	1.236926	0.753106
H	0.157106	2.091002	0.406074
H	-1.494382	1.450666	0.655302
H	-0.189323	1.073155	1.803565
H	2.398545	0.0	0.0
