16

C	-0.403782	-0.016934	-1.45699
C	0.0	0.0	0.0
Cl	-2.219951	-0.071072	-1.676128
H	1.101682	0.0	0.0
C	0.039645	1.229528	-2.097488
N	0.364371	2.225077	-2.630943
C	0.16365	-1.120843	-2.244128
N	0.60908	-1.902492	-3.000609
N	-0.404185	-1.205466	0.668021
O	-0.439152	-1.186651	1.910374
O	-0.560105	-2.237137	-0.011356
C	-0.38574	1.244468	0.762731
H	-0.02476	2.127366	0.231657
H	-1.464607	1.322005	0.920225
H	0.116355	1.210703	1.728994
H	2.409123	0.0	0.0
