16

C	-0.460702	-0.064539	-1.452907
C	0.0	0.0	0.0
Cl	0.297995	-1.419576	-2.375062
H	1.106541	0.0	0.0
C	-1.92091	-0.1586	-1.567101
N	-3.092898	-0.123914	-1.647162
C	-0.046747	1.168166	-2.139975
N	0.227458	2.169803	-2.687302
N	-0.503476	-1.113814	0.762954
O	-1.027304	-2.078195	0.171647
O	-0.296841	-1.089476	1.986921
C	-0.322897	1.320486	0.675192
H	-1.394464	1.547011	0.684456
H	0.042479	1.256298	1.698878
H	0.2255	2.122955	0.178458
H	2.427769	0.0	0.0
