16

C	-0.468335	0.057388	-1.455793
C	0.0	0.0	0.0
Cl	0.027358	1.648658	-2.164572
H	1.107308	0.0	0.0
C	0.132297	-0.969723	-2.319835
N	0.575308	-1.711844	-3.11629
C	-1.931959	-0.004836	-1.547028
N	-3.106709	0.021737	-1.589268
N	-0.415437	-1.250085	0.57237
O	-0.782079	-2.164132	-0.200402
O	-0.254772	-1.40773	1.794729
C	-0.395938	1.174259	0.865574
H	-1.478595	1.339464	0.887615
H	0.11121	2.074264	0.517454
H	-0.044635	0.961495	1.874038
H	2.415237	0.0	0.0
