16

C	-0.443427	-0.023717	-1.466113
C	0.0	0.0	0.0
Cl	-0.062258	1.574902	-2.225011
H	1.110762	0.0	0.0
C	0.262642	-1.028645	-2.275468
N	0.790599	-1.758114	-3.031054
C	-1.89334	-0.211586	-1.587121
N	-3.064048	-0.300033	-1.657706
N	-0.390005	-1.234753	0.614779
O	-0.263905	-1.336146	1.848443
O	-0.687623	-2.195692	-0.130991
C	-0.415862	1.201592	0.813108
H	-1.501498	1.34467	0.833423
H	0.068979	2.096668	0.4239
H	-0.057836	1.041247	1.829053
H	2.402196	0.0	0.0
