16

C	-0.41886	0.05225	-1.447854
C	0.0	0.0	0.0
Cl	-2.239021	0.052889	-1.670594
H	1.11081	0.0	0.0
C	0.051915	1.308575	-2.049163
N	0.420048	2.293391	-2.573282
C	0.130823	-1.032204	-2.271717
N	0.608332	-1.7848	-3.037627
N	-0.401214	-1.22738	0.620851
O	-0.287987	-1.298842	1.857076
O	-0.70756	-2.196471	-0.101752
C	-0.349537	1.218859	0.819511
H	0.110235	2.100869	0.368994
H	0.08592	1.087697	1.808466
H	-1.428466	1.369146	0.912669
H	2.38637	0.0	0.0
