15

C	-0.475493	0.123968	-1.446444
C	0.0	0.0	0.0
F	-0.290273	-1.103743	-2.07755
H	1.092886	0.0	0.0
H	-0.29934	0.898123	0.553494
N	-1.902644	0.366683	-1.486428
H	-2.122679	1.178279	-0.921212
H	-2.18152	0.56446	-2.442399
C	0.382999	1.126034	-2.197557
H	1.437102	0.853431	-2.112401
H	0.25007	2.126853	-1.778846
H	0.082899	1.139816	-3.2502
C	-0.552893	-1.170228	0.669533
N	-0.999245	-2.099135	1.23114
Br	3.578132	0.0	0.0
