15

C	-0.412682	-0.02238	-1.48374
C	0.0	0.0	0.0
F	-0.062746	1.239947	-1.965477
H	1.095503	0.0	0.0
H	-0.364819	0.905495	0.491599
N	0.331278	-0.978652	-2.259604
H	0.041723	-1.916395	-2.006699
H	1.318621	-0.886672	-2.021363
C	-1.901197	-0.185515	-1.70943
H	-2.440319	0.61021	-1.190541
H	-2.256659	-1.148724	-1.338518
H	-2.0972	-0.113902	-2.779945
C	-0.49637	-1.184577	0.685616
N	-0.928239	-2.157585	1.182022
Br	3.537895	0.0	0.0
