15

C	-0.514174	0.039528	-1.445259
C	0.0	0.0	0.0
F	-0.126701	-1.156257	-2.03873
H	1.094489	0.0	0.0
H	-0.316093	0.916309	0.511136
N	-1.955743	0.077074	-1.587584
H	-2.312927	0.920468	-1.154554
H	-2.347351	-0.71553	-1.087236
C	0.133985	1.177169	-2.199078
H	1.217637	1.101513	-2.10174
H	-0.161862	1.111967	-3.246756
H	-0.188081	2.141195	-1.795504
C	-0.548029	-1.143243	0.717295
N	-1.04025	-2.049139	1.27916
Br	3.573929	0.0	0.0
