15

C	-0.482351	0.073462	-1.446637
C	0.0	0.0	0.0
F	-0.118421	-1.150871	-2.059597
H	1.092305	0.0	0.0
H	-0.326948	0.905271	0.519469
N	-1.900933	0.241285	-1.508298
H	-2.192408	0.229616	-2.479335
H	-2.350153	-0.538552	-1.039309
C	0.245529	1.164415	-2.198627
H	-0.015835	2.141798	-1.788794
H	-0.036932	1.132155	-3.25488
H	1.321398	1.00652	-2.105369
C	-0.557812	-1.161021	0.681023
N	-1.071749	-2.083071	1.194978
Br	3.574467	0.0	0.0
