17
Coordinates from ORCA-job run
  C   0.77135758438629      0.10500908646177     -0.22662565811417
  C   -0.49377954889368      0.45993215198530      0.55067788374384
  F   1.77182147891606      1.01997174847494      0.29680804072522
  H   -0.71207702631268      1.51119947554759      0.30201853765595
  N   1.16280904586579     -1.22784615526556      0.02318575777723
  H   1.07159254354285     -1.39249633161342      1.01977149042472
  H   2.12686711826700     -1.36972517706734     -0.25302632320465
  N   0.62209160001744      0.35447581023480     -1.61878485639937
  H   1.33706078542130     -0.12677784097634     -2.14894491317554
  H   0.69370945262712      1.34831261192899     -1.79519246137282
  N   -0.20371472344536      0.26214148980399      1.97088529488078
  H   0.45780707152985      0.96346192160137      2.28042595775379
  H   -1.05274499957875      0.36661899123376      2.51226891023984
  C   -1.66929434885557     -0.40697237406243      0.13651183170157
  H   -2.58088978545618     -0.07733239835440      0.64430331181821
  H   -1.47751442704778     -1.44761527575330      0.40021348128800
  H   -1.82410182098368     -0.34235773417971     -0.93949628574261
