17
Coordinates from ORCA-job run
  C   0.76256613371971     -0.22075255902926      0.03358676567408
  C   -0.63442235143975      0.29731999539610      0.38715666576305
  F   1.22224486369591     -1.05337787862144      1.03402626643412
  H   -0.93731645452296      0.92835464572755     -0.47242370018581
  N   0.69641428379826     -1.02883834976240     -1.15670913466063
  H   0.24659704393180     -0.52189116609169     -1.90819871918976
  H   1.63019263281859     -1.29222171184291     -1.44887622999942
  N   1.70720005961719      0.89182220303706      0.03279814960877
  H   1.68462410749093      1.35783662630998     -0.86582511725752
  H   2.64053421261623      0.52618792433301      0.18306071249254
  N   -0.54465051145777      1.04245952319601      1.63306265680138
  H   -1.40502489510408      1.55262606197022      1.78784532944698
  H   0.22285260973077      1.69982727391631      1.56558225338684
  C   -1.63577567663284     -0.83615939523910      0.54616715971318
  H   -2.60854515424237     -0.43307811882299      0.84185641608738
  H   -1.75840538875535     -1.40474601616182     -0.37529036708918
  H   -1.28808551526426     -1.50436905831464      1.33418089297402
