17
Coordinates from ORCA-job run
  C   0.76428979694005     -0.11173715853031     -0.18986686415449
  C   -0.60424523996297      0.40835880888751      0.24389894685045
  F   1.29729477918463     -0.77085903412368      0.98812615400809
  H   -0.98130986990108      0.97250224411726     -0.61414815584995
  N   0.66519968898933     -1.07202826163589     -1.23806532225350
  H   0.48103567509408     -1.98836734757897     -0.85193922369969
  H   1.52405256228202     -1.10240025098264     -1.77142528499593
  N   1.60186314769520      0.96279980530339     -0.56365329431488
  H   1.46022931908519      1.71159997250618      0.10488355756379
  H   2.57185045132381      0.67140312903746     -0.54316912628739
  N   -0.38558687363984      1.35746795336386      1.33743984622351
  H   -0.12831067530588      0.84181935201142      2.17159100784330
  H   -1.24214326691703      1.86019190999934      1.53384353924987
  C   -1.56926141754047     -0.72614868882128      0.57070629980586
  H   -1.16638400818876     -1.34831406744897      1.37377871774859
  H   -1.76066272487869     -1.35110556538764     -0.30391125574267
  H   -2.52591134425961     -0.31618280071705      0.90391045800506
