17
Coordinates from ORCA-job run
  C   0.63306088227848     -0.07951453320087     -0.40672671992916
  C   -0.55850737241489      0.47515447071031      0.38478298523029
  F   0.14748622527124     -0.58409288814798     -1.63345132037008
  H   -0.74432246970995      1.49644959059058      0.03107668076825
  N   1.60215346115378      0.93533174020844     -0.65218099537073
  H   1.19150682432275      1.70386025220672     -1.16884299524211
  H   2.36954163020658      0.55370478640982     -1.19335594842810
  N   1.17792922044816     -1.22377821976637      0.27663186541718
  H   1.77366617344173     -0.88288536158240      1.02062752745583
  H   1.72750912571275     -1.77217049982258     -0.37406240778318
  N   -0.13738650147393      0.56374123907528      1.78449727890751
  H   -0.31801281244407     -0.32883543533024      2.23042718457157
  H   -0.68909573268020      1.26155378076771      2.26647907945732
  C   -1.81137272224950     -0.36863029805831      0.17724887001903
  H   -1.59792202166662     -1.40619234117998      0.44477388708690
  H   -2.15541976740635     -0.34602320804776     -0.85698383789714
  H   -2.61281414278995      0.00332692516763      0.82105886610664
