17
Coordinates from ORCA-job run
  C   0.77436858470140      0.05809266092495     -0.22956677174050
  C   -0.46464715201421      0.48935742491954      0.55099920958497
  F   1.82910343129069      0.91435156365940      0.28704724008636
  H   -0.62150165868380      1.55098282700428      0.29995628848481
  N   1.08755605442820     -1.29465513158992      0.02334041912939
  H   2.04098713032400     -1.49377054806230     -0.25438768846894
  H   0.98902066442334     -1.45145937843860      1.02047947470803
  N   0.63511781656426      0.31144100492033     -1.62218879662334
  H   0.76631972008396      1.29845429171451     -1.80249865995448
  H   1.31777710371727     -0.21429614686459     -2.15268039341383
  N   -0.18182523088034      0.27922446322105      1.97083471697881
  H   0.52357383372684      0.93899005173570      2.27489606143694
  H   -1.02034802584576      0.43930413030583      2.51503485149451
  C   -1.69074949626500     -0.30785713321880      0.14352100166721
  H   -1.84563162736134     -0.23671220631239     -0.93206870694279
  H   -2.57943840421575      0.07589253930654      0.65392089036576
  H   -1.55968274399376     -1.35734041322554      0.40936086320709
