17
Coordinates from ORCA-job run
  C   0.59408222753114      0.04921665050346     -0.52759832675373
  C   -0.61071495783398      0.49661418734687      0.30067025938225
  F   0.12951956796908     -0.20224554345140     -1.83451387119097
  H   -0.98553677933913      1.39455409090550     -0.19976046852586
  N   1.52620144660800      1.12014274377225     -0.60776424830720
  H   1.63343596457825      1.51442917258195      0.31845330660475
  H   2.41974180636502      0.81872861747428     -0.97524645491186
  N   1.13876463972454     -1.16814674586417      0.01562144505836
  H   2.05049157382965     -1.34765630082465     -0.38831571907052
  H   0.53865233036531     -1.94996790080724     -0.22183316352676
  N   -0.10280806316236      0.89730531282765      1.61209621271870
  H   -0.83994933425495      1.33205354290339      2.15333511090853
  H   0.20718963055607      0.06635346507294      2.10411346065684
  C   -1.71190077837467     -0.55914553017786      0.33693287072192
  H   -1.99806609593912     -0.87130000497120     -0.66940459676003
  H   -2.59822558680741     -0.15427365286557      0.83185155651794
  H   -1.38987759181543     -1.43566210442618      0.90636262647762
