17
Coordinates from ORCA-job run
  C   0.76688789303252      0.16905173342025     -0.05810009959834
  C   -0.61478122450706      0.55375152264652      0.48610113882209
  F   1.68046871903373      1.10901011870004      0.48246455180938
  H   -0.85317973163996      1.54484240382360      0.07721206422567
  N   1.19916614463038     -1.10494602689846      0.46825919309600
  H   2.19311838790127     -1.07100551044131      0.65397777252370
  H   1.00905003310645     -1.83220546417560     -0.20846501535561
  N   0.79567311055957      0.20547367030572     -1.47975949172496
  H   0.45425740523021      1.09575536602459     -1.82258175630516
  H   1.74321764918958      0.06890410189865     -1.81276869085963
  N   -0.63169552417736      0.66611101585908      1.93617257016596
  H   0.04987065336615      1.36061922825434      2.21928473462597
  H   -0.31108173980319     -0.22204322953161      2.31023496073867
  C   -1.67181696213426     -0.44657658885500      0.04579485186824
  H   -1.45231180515342     -1.42903906923631      0.47259215697900
  H   -2.64439067929532     -0.12701248099592      0.42216121050455
  H   -1.71345232933929     -0.54169079079856     -1.03958015151555
