17
Coordinates from ORCA-job run
  C   0.76722346443665     -0.11389940087733     -0.03490872119459
  C   -0.62755320839447      0.34154474157848      0.39891451366533
  F   1.27939892424965     -0.97504471569828      0.94513517534977
  H   -0.94100826499548      1.05735387277763     -0.37916350518802
  N   0.71832015287735     -0.76937293976472     -1.30364806307396
  H   0.14617317034192     -1.60319735559134     -1.25115244910726
  H   1.65610768108101     -1.04773484938105     -1.56986104656480
  N   1.67356226219026      1.01395263131584     -0.04327889445431
  H   1.61613308527811      1.47681578577071     -0.94176932205079
  H   2.61896875385663      0.68067298769777      0.10042185814888
  N   -0.51863201785036      0.94025722362650      1.72405841930295
  H   -1.35784016677634      1.47478710845089      1.91418086263797
  H   0.26642117336081      1.58211251768988      1.71213310703827
  C   -1.62814491655559     -0.80480062070311      0.44998150373778
  H   -2.56276047781285     -0.45781115273180      0.89699571923982
  H   -1.86911072412534     -1.18846493347715     -0.54441200896902
  H   -1.23625889116198     -1.60617090068292      1.07837285148198
