17
Coordinates from ORCA-job run
  C   0.67333191094857     -0.18300959241638     -0.12254889373326
  C   -0.70385869438090      0.34133649896395      0.30840703733227
  F   1.10524562454564     -1.10153390865106      0.86014169908575
  H   -1.08736125448606      0.89736572353122     -0.55489186037531
  N   0.57308723149612     -0.95323364933260     -1.33620122308587
  H   0.58061186604420     -0.32318555339706     -2.12851871523158
  H   1.36895755573700     -1.57672538613285     -1.40270016674922
  N   1.61619217689184      0.88609118008153     -0.23277634819869
  H   2.50699857574212      0.51904034148573     -0.54737390728914
  H   1.75638189563491      1.32127237135165      0.67030836889018
  N   -0.67575975868177      1.26751290355516      1.43462843386028
  H   -0.20103676746025      2.12837290680207      1.19672936303663
  H   -0.21740802537563      0.83937049450041      2.23043789195454
  C   -1.64942712023175     -0.80589817397822      0.62824052091117
  H   -2.64704023386862     -0.40536601604282      0.81178901731581
  H   -1.31833882754181     -1.32809679264473      1.52858419908972
  H   -1.68157615501362     -1.52231334767599     -0.19125541681327
