17
Coordinates from ORCA-job run
  C   0.82848948017058     -0.30888090782597     -0.01902297689887
  C   -0.50703489983001      0.38206840082613      0.29500336210853
  F   1.12294155094434     -1.07596636729976      1.11425896457148
  H   -0.72213054981988      1.04876920974732     -0.55083150859700
  N   0.69904645478395     -1.20870429366042     -1.12115828184895
  H   0.21315128707595     -0.77571006210123     -1.89536205900311
  H   1.62333027219936     -1.49625402839611     -1.42055402048380
  N   1.95076677428203      0.58117583869332     -0.16344715625041
  H   1.87775076148334      1.06221982953725     -1.05140255018231
  H   1.89954928277227      1.27572496421614      0.57504671788316
  N   -0.27297172101502      1.23799145649321      1.45965652287986
  H   -1.07606127372476      1.83559436190905      1.61199121374626
  H   -0.17486591780063      0.64572253886197      2.27703531181869
  C   -1.65101738892303     -0.61258580436488      0.46996725902476
  H   -2.57342374940201     -0.08176732178032      0.72252759562375
  H   -1.41327857923971     -1.30440569057931      1.28048984061846
  H   -1.82424178395678     -1.20399212427638     -0.43019823501050
