17
Coordinates from ORCA-job run
  C   0.51942801039316      0.01698477995047     -0.53900587555300
  C   -0.65521556186582      0.38590272802030      0.36362895820482
  F   0.05122793042216     -0.00098757639560     -1.85148909957832
  H   -1.03648970654322      1.33270760810798     -0.04453394506193
  N   1.50518938113517      1.09745343019010     -0.50183741437595
  H   2.33374196911641      0.79109318670571     -0.00983326427643
  H   1.76224640557058      1.34054234577205     -1.45011197622356
  N   0.99081562267048     -1.28765987122398     -0.21023842706290
  H   1.05055970176538     -1.35319676370684      0.79960398327177
  H   1.89510352233228     -1.46821591275394     -0.62744708944855
  N   -0.10599468878478      0.53089090547542      1.71350143785374
  H   -0.86106040819752      0.61835456961767      2.38303376746746
  H   0.43570944787393      1.38741577887194      1.74622880751940
  C   -1.76104599593566     -0.65425645566942      0.34981233535070
  H   -2.63809796927174     -0.27991340721458      0.88660372523240
  H   -2.05666219363431     -0.87871160162690     -0.67518930537374
  H   -1.42845546704652     -1.57840374412039      0.82327338205409
