17
Coordinates from ORCA-job run
  C   0.59474588130763      0.08413487403372     -0.47649386681504
  C   -0.65186823785003      0.41400765239965      0.34921269023572
  F   0.20937812850456      0.19461982307897     -1.83220175669419
  H   -1.12410922419451      1.23817809254661     -0.20255165212450
  N   1.58038454332675      1.11498759568705     -0.27772753204427
  H   2.05886783666342      0.91879151047509      0.59310459967247
  H   2.24734410695634      1.09094308896557     -1.04033689572549
  N   1.10451333572908     -1.22143653845631     -0.21988012214291
  H   0.43257675796034     -1.93184866567555     -0.48195264156346
  H   1.94954395627546     -1.36673610137527     -0.75993499636500
  N   -0.22276895727070      0.81326230391310      1.68847913368155
  H   -0.99509425725037      0.72958877892619      2.33747170631445
  H   0.05791373208724      1.78582593836856      1.66785831702836
  C   -1.62261337636241     -0.75075258358912      0.43330137701972
  H   -2.56540340872499     -0.42644455096691      0.88152316296128
  H   -1.20432528097864     -1.54442787221559      1.05649382782534
  H   -1.84908553617916     -1.14369334611575     -0.56036535126402
