17
Coordinates from ORCA-job run
  C   0.86346067723054      0.17305362227170     -0.17878146796742
  C   -0.46235317670802      0.47206141026881      0.53098288334385
  F   1.76235833949972      1.12924874414242      0.37190199883119
  H   -0.74366156554930      1.50167757277870      0.25074671844245
  N   1.44363433238362     -1.10274034163049      0.09404692620451
  H   1.33832835609078     -1.29415494339478      1.08408757887903
  H   0.95385076574124     -1.81076312195662     -0.43647154312361
  N   0.75163347718018      0.33013394072578     -1.58320685181136
  H   1.66231861065479      0.17301507745146     -1.99877610277733
  H   0.44497281194611      1.26792802047913     -1.80868670047143
  N   -0.22114810935601      0.32602797282214      1.96458281965390
  H   -1.09343715809768      0.41432637581046      2.47097613783207
  H   0.40040334164101      1.06083330783655      2.27891280748721
  C   -1.56516993572240     -0.47949655545310      0.10233616433606
  H   -1.69330061957832     -0.46718416096672     -0.97973819714007
  H   -1.32483471993826     -1.49549057765641      0.42239923948897
  H   -2.51405542741799     -0.19747634352901      0.56768758879200
