17
Coordinates from ORCA-job run
  C   0.75567567118495      0.12944447328455     -0.12700656209810
  C   -0.57473507352549      0.54640510889063      0.50767247010918
  F   1.70267429781957      1.11734461645941      0.33111540540482
  H   -0.75758558179086      1.58079175724639      0.18829013688244
  N   1.18641996207006     -1.14956817748351      0.34232110143909
  H   1.76210783695360     -1.61536022582154     -0.34606217202841
  H   1.71375607485402     -1.04042571855489      1.19739918886070
  N   0.69820206261834      0.14228802522896     -1.54386531382484
  H   0.25892493022647      0.99618890911162     -1.86435730228089
  H   1.63717543514091      0.11218791574822     -1.92541862519640
  N   -0.52799521366936      0.55154974247974      1.96299710560666
  H   -0.42915941693526     -0.40081256526839      2.29634722518003
  H   0.27116728258402      1.08700718132358      2.28004387677464
  C   -1.71423780924786     -0.34471574790444      0.04377247461859
  H   -1.49741074588260     -1.38193642049631      0.30813417118080
  H   -1.85116177687212     -0.29767702199481     -1.03656151589138
  H   -2.63581793552839     -0.03471185224921      0.53917833526309
