17
Coordinates from ORCA-job run
  C   0.55699688501983     -0.09220271031074     -0.61094494619738
  C   -0.56904716066268      0.39252868803703      0.31248413231281
  F   0.00888891553211     -0.15054273935087     -1.89037864800983
  H   -0.91499335201476      1.34418638245128     -0.11929946544301
  N   1.67597076474243      0.81628196700235     -0.74127914171171
  H   1.36645478932624      1.72488502947350     -1.06794905086449
  H   2.13484480286557      0.91678443015331      0.15507720392447
  N   0.97718916099185     -1.39337178910754     -0.22245042307282
  H   1.87121037588088     -1.59747648563998     -0.65210100462614
  H   1.06739179527490     -1.41505775354925      0.78630398768727
  N   -0.00507746170099      0.55740328755405      1.65817947039500
  H   -0.73605251889717      0.45891446657971      2.35173480834052
  H   0.38383283668782      1.48568444562392      1.76797265579460
  C   -1.73619048182697     -0.58013449476303      0.35080137953338
  H   -2.57821195144012     -0.14084318434468      0.89433024776195
  H   -2.06236321473232     -0.81995255184889     -0.66031683588246
  H   -1.44284418504662     -1.50908698796016      0.84183563005783
