17
Coordinates from ORCA-job run
  C   0.59709060732704      0.07342011830180     -0.36813444124420
  C   -0.71995979021274      0.43793696587396      0.32897696136500
  F   0.28279499317042     -0.08156159097186     -1.74817728218940
  H   -1.08326026159842      1.31491079174487     -0.21780313464842
  N   1.53507694017884      1.16537234850350     -0.27088220750382
  H   1.67717938755949      1.57296706754458     -1.18444439899197
  H   2.41886932768966      0.85155517206199      0.10510854244770
  N   1.16610785629764     -1.11557622745658      0.16144091213986
  H   1.98880837660250     -1.36952080258225     -0.37358073720098
  H   0.50602400466285     -1.88019898389042      0.10734597645429
  N   -0.52937212771404      0.83681431517865      1.71511400046721
  H   -0.10091106274160      0.06456104946971      2.21547349244574
  H   0.14209598601076      1.59697064654829      1.72677366863053
  C   -1.76678432032141     -0.66284262377309      0.24470145653513
  H   -1.50491369834590     -1.50906611376890      0.88844114238719
  H   -2.72200377685967     -0.27700550351761      0.60204540137227
  H   -1.88784244170543     -1.01973662926665     -0.77939935246613
