17
Coordinates from ORCA-job run
  C   0.67859659181607     -0.05037454892269     -0.50515815649037
  C   -0.54643062795533      0.43257263562036      0.29146168254127
  F   0.25771600652780     -0.05146663753778     -1.85890107885083
  H   -0.93344254030526      1.29064362877726     -0.27214237689439
  N   1.81257312567649      0.82775634063621     -0.45360708131166
  H   1.57165283116301      1.70275651866245     -0.90377727170626
  H   1.99684738612760      1.00643661992371      0.52757424370754
  N   1.10856383890222     -1.33174625205334     -0.08713151231454
  H   1.97876941110538     -1.54713546897784     -0.55718774145693
  H   0.42071162056256     -2.04077613038825     -0.30106049399229
  N   -0.09942223731062      0.86422144908694      1.61906649601795
  H   -0.29080857588963      1.84608465688367      1.75975440951689
  H   -0.57214027134875      0.34831152039104      2.34827272095471
  C   -1.63848124357243     -0.62571470589755      0.36772798893012
  H   -2.55584914832845     -0.19912238456924      0.78032069248330
  H   -1.86537592202339     -1.02863918826913     -0.62148121406049
  H   -1.32348024514728     -1.44480805336581      1.02026869292596
