17
Coordinates from ORCA-job run
  C   0.66834596030733      0.03427652333950     -0.46302387725301
  C   -0.58995764470630      0.37761353326288      0.34568938361512
  F   0.24795088457026     -0.16674011442141     -1.79263532787961
  H   -0.97387348577056      1.32867398485177     -0.06321197506268
  N   1.59130636478324      1.11137960894986     -0.36694536325631
  H   2.46396373255724      0.83205301071967     -0.79734426424835
  H   1.22487009013357      1.93478798234787     -0.82884926886247
  N   1.34750235866513     -1.17175930819300     -0.07733641693796
  H   0.81628080835251     -1.96566104154755     -0.41165169007251
  H   1.36578185823039     -1.19975076646086      0.93665585082633
  N   -0.17149175797128      0.47482482688707      1.74148977776322
  H   -0.96877456734404      0.67759594074897      2.33186365618251
  H   0.50147336953879      1.22604414670898      1.83593352909742
  C   -1.67395548469400     -0.67679147417596      0.20951744934100
  H   -1.33573629913269     -1.62173778049430      0.63951945194494
  H   -2.57287634812861     -0.36821487669759      0.75034633693369
  H   -1.94180983939097     -0.82859419582590     -0.83601725213134
