17
Coordinates from ORCA-job run
  C   0.75209282685265      0.21640402256827     -0.15264421173028
  C   -0.56227402749913      0.56837686876946      0.54922023492634
  F   1.68608320776686      1.19679131846898      0.27429181247837
  H   -0.74920591351570      1.60604105689908      0.25502901771311
  N   1.20948204756416     -1.08557791287786      0.19531969082294
  H   2.12239599876343     -1.25104861725558     -0.21190996633601
  H   1.28441730968986     -1.17362561370552      1.20090579460749
  N   0.64813305045184      0.40375129597867     -1.57959458548176
  H   1.52674579359644      0.76384945967026     -1.93010819666505
  H   0.45177815741311     -0.48480548375012     -2.02163066676424
  N   -0.49814291824652      0.52458168415713      2.00444999938775
  H   0.33520389735615      0.99028245684383      2.34101272974678
  H   -0.51383549264430     -0.42836587581433      2.34652610985145
  C   -1.70669025312058     -0.30078035834172      0.05908196656811
  H   -1.51408432872458     -1.35378368748540      0.28072372980426
  H   -2.62817491937026      0.00120043731676      0.55956326920870
  H   -1.84192443633344     -0.19129105144190     -1.01723672813797
