17
Coordinates from ORCA-job run
  C   0.77206063108545     -0.17968265435626     -0.08315678111473
  C   -0.60798675299175      0.38822041247041      0.30078772256338
  F   1.16449774687652     -0.98124702951110      1.02180950773739
  H   -0.87915430669984      1.08959275195442     -0.49614594442307
  N   0.71912318596853     -0.92006414736745     -1.28712094930034
  H   0.09581437905765     -1.71101266649034     -1.20893231538192
  H   1.65212331026029     -1.24265504811545     -1.51271177540657
  N   1.83824033915469      0.77604327055877     -0.22426958742645
  H   1.61739563716426      1.42731867662758     -0.96653513916992
  H   1.97647692860529      1.27784480048233      0.64204777512109
  N   -0.59564422499629      1.13204414318112      1.55673436387371
  H   -0.19326525594341      0.55011843554757      2.28269213266836
  H   -0.03038209081732      1.96779132865105      1.47604717171979
  C   -1.67630366921440     -0.69604146362354      0.38908012165369
  H   -1.36542333073203     -1.48258805774024      1.08123257260186
  H   -1.88777297889226     -1.14418260861687     -0.58391487930967
  H   -2.59779954788539     -0.25150014365201      0.76535600359340
