17
Coordinates from ORCA-job run
  C   0.82316096417205     -0.12150490037778     -0.19735772772054
  C   -0.53498580197912      0.37974634874821      0.31728550959553
  F   1.35925032302538     -0.86616671133977      0.89589750520018
  H   -0.95058572542054      0.99976924169184     -0.48446752550813
  N   0.82756797270765     -1.04698054094205     -1.29161685578913
  H   0.46924332903301     -0.59783999364445     -2.12306222733298
  H   0.28701862989152     -1.87286877109731     -1.07669861305602
  N   1.62983826313570      0.97814173432092     -0.54738526435927
  H   1.60447052310451      1.66570868550521      0.19434842828621
  H   2.57270368128177      0.66602401829140     -0.73834736503629
  N   -0.26606065252893      1.26481424097372      1.45361576693601
  H   0.03369189109564      0.69934074243872      2.24003641924461
  H   -1.11340608427803      1.74880686559718      1.72434874019230
  C   -1.49767171245593     -0.76217110795509      0.63145153479276
  H   -1.05342453249223     -1.44186127198046      1.36212734073896
  H   -2.42289785868640     -0.36155128331188      1.05298702980200
  H   -1.76791320960601     -1.33340729691842     -0.26016269598619
