17
Coordinates from ORCA-job run
  C   0.88266044362862      0.14131618085210     -0.15829230047537
  C   -0.45202372913709      0.47644291867792      0.51822169790143
  F   1.77734909597633      1.11896439047404      0.37079288537847
  H   -0.66764038214673      1.52084609980581      0.23722060123231
  N   1.28321534478370     -1.17211381345686      0.15637788034957
  H   2.23455887978232     -1.32462750964468     -0.15173756681324
  H   1.18997818611297     -1.32145967269595      1.15329942044116
  N   0.95789893725727      0.31702574089128     -1.57700132441354
  H   0.43359893046041     -0.41002886635297     -2.04226895391977
  H   0.61180646429495      1.22778239130964     -1.84971273847199
  N   -0.27105552687443      0.30611139678845      1.95988995292206
  H   -1.15358020463055      0.43891758868122      2.43861074809063
  H   0.37647316317632      1.00832392282918      2.29693048685037
  C   -1.58382939365659     -0.41570465792889      0.03893848204590
  H   -1.73321941559147     -0.31961142151548     -1.03789997201504
  H   -1.36499658782532     -1.45746388264047      0.27426271763497
  H   -2.52219420561071     -0.13372080607433      0.52536798326210
