17
Coordinates from ORCA-job run
  C   0.79734266346964      0.28954715283217     -0.01766070744023
  C   -0.61945928241369      0.58255869349257      0.49508905565551
  F   1.65795058541681      1.20624619663705      0.58223510007461
  H   -0.88141960853643      1.57167803249363      0.10590993723003
  N   1.25516156021766     -0.99820149638912      0.48807001157906
  H   1.01380120203217     -1.73352733880289     -0.16391434861739
  H   2.26409171535115     -0.97149872846547      0.57998072763034
  N   0.89468501327743      0.53098460156642     -1.42941156427520
  H   0.17275057939609      0.03893541746680     -1.93623737402190
  H   1.80118129491383      0.24292491385731     -1.77823783084436
  N   -0.67920132249635      0.63912185516924      1.94806427047111
  H   -0.07837623915473      1.38978619742595      2.26818810644229
  H   -0.27456027127344     -0.22279804406787      2.30170012332352
  C   -1.63030325295180     -0.44707044482147      0.00656641778436
  H   -2.61056113210475     -0.18844918699165      0.40766148053557
  H   -1.37168979263162     -1.44178211356076      0.37977996525956
  H   -1.71339371251198     -0.48845570784192     -1.08278337078686
