17
Coordinates from ORCA-job run
  C   0.93395936214133      0.20168752719748     -0.08175409999425
  C   -0.41006142396759      0.64010402329881      0.51707464293904
  F   1.87831397604518      1.12636376866039      0.31731911607912
  H   -0.60817975698236      1.63173258991251      0.08865255394912
  N   1.34046774309717     -1.06077567688833      0.47830287590844
  H   2.27355505708445     -1.25928161716448      0.13407443171317
  H   0.72700344887588     -1.80374598902691      0.16707577997453
  N   1.00841481050729      0.20707547730435     -1.52677744277742
  H   0.73759953910552      1.11450779330530     -1.88940729550853
  H   0.39959463478979     -0.49614889952324     -1.92300495671944
  N   -0.25652186178120      0.79222263406958      1.95851092684758
  H   0.25445278134953     -0.00825272107347      2.31262030614517
  H   -1.16566162134027      0.81832109226884      2.40394116487375
  C   -1.54865406008150     -0.30090724458073      0.11399404526896
  H   -1.65546367210478     -0.40387294456678     -0.96938106515989
  H   -1.41246998254980     -1.29101152378102      0.55842253610820
  H   -2.49634897418863      0.09098171058771      0.49233648035243
