17
Coordinates from ORCA-job run
  C   0.70046205231142     -0.09137825641822     -0.16187507544178
  C   -0.67041997231287      0.40370370550383      0.31829975761739
  F   1.19148569942812     -0.94101032640763      0.90681622948937
  H   -1.01495138186913      1.09664162821197     -0.45425216295117
  N   0.59731420410940     -0.85441479759501     -1.35628276945599
  H   1.50514576925767     -0.97754283442143     -1.78778699415113
  H   0.21853858298159     -1.76759312376742     -1.14434384465407
  N   1.60487294352923      0.98622335193540     -0.34763177775137
  H   1.66724307285877      1.51475186489969      0.51171698049639
  H   2.53156797914763      0.63080770055273     -0.55439567330369
  N   -0.61792083491495      1.13060142924545      1.58269126432132
  H   -0.06136606210185      0.61592817912651      2.25425538073500
  H   -0.22992531688699      2.05741624654364      1.46839879973359
  C   -1.66434875227214     -0.74331182007212      0.44701896721965
  H   -1.29165829686893     -1.49542765402916      1.14666952044024
  H   -1.86309808823745     -1.21755136093297     -0.51566020587245
  H   -2.60194159815952     -0.34884393237528      0.83836160352869
