17
Coordinates from ORCA-job run
  C   0.63580036295187     -0.00848834047393     -0.57583272584743
  C   -0.57259050238228      0.39474953265663      0.28616192743080
  F   0.11097084194904     -0.33836533197172     -1.83870764868940
  H   -0.96289313705203      1.33288771645028     -0.14355230513350
  N   1.55532889545101      1.05394000578187     -0.70674167589815
  H   2.50159463773611      0.79822362125831     -0.48627065385540
  H   1.26866449911214      1.96424696917091     -0.39230357728447
  N   1.33314119969070     -1.18551676745542     -0.11906996192754
  H   1.27050627830967     -1.20526408622502      0.89367326977950
  H   0.87695408409177     -2.00626137395725     -0.49495191460300
  N   -0.09312774020267      0.54180117944865      1.66201676589041
  H   -0.87765060872080      0.66386714354957      2.29035180633140
  H   0.49977465233030      1.35750076364321      1.75078991801809
  C   -1.67749935961899     -0.64572587386916      0.25672450452609
  H   -2.53284139881860     -0.31049337150374      0.85037155807363
  H   -2.01681601968871     -0.81985708493581     -0.76309369157389
  H   -1.32131668513854     -1.58624470156738      0.68243440476289
