17
Coordinates from ORCA-job run
  C   0.86646819687770      0.34345947625755     -0.09730139464847
  C   -0.55408755950947      0.54379811442065      0.47339405486522
  F   1.65146086191379      1.30959227555570      0.56380258853608
  H   -0.87900508964485      1.52656957077918      0.11019332508132
  N   1.53276863747153     -0.89809090434362      0.21625459644559
  H   1.67877820289742     -0.98669617354739      1.21347588380901
  H   0.99921761685787     -1.68757190058004     -0.12260300257466
  N   0.90144153564560      0.58771196426713     -1.48667691744703
  H   0.01178892423634      0.58925475728843     -1.95447576873389
  H   1.60118707397400      0.03947984580964     -1.96149761300493
  N   -0.59787838728990      0.59581882657366      1.92786506867690
  H   0.10146470846726      1.24740245805567      2.26170998827584
  H   -0.38478276892722     -0.31679787447594      2.31504065745732
  C   -1.53799900493370     -0.51753254106887      0.00172372130305
  H   -1.25264735424437     -1.50373430929792      0.38137548705984
  H   -1.60966251667963     -0.58432216062873     -1.08527157443677
  H   -2.52751307711236     -0.28734142506509      0.39799089933558
