17
Coordinates from ORCA-job run
  C   0.54115581216002      0.10023448570418     -0.57487171383614
  C   -0.66939458527914      0.43915677369879      0.32084271609251
  F   0.02993924234846     -0.02929331318844     -1.86387805250739
  H   -1.09305877910666      1.35053028020285     -0.11218810168591
  N   1.46790896392913      1.18642082192918     -0.58955623062502
  H   1.67941912457798      1.49374388540679      0.34868319387862
  H   2.32313649123470      0.88049397530638     -1.03840687111156
  N   1.20692589997900     -1.16113570755809     -0.32957123955436
  H   0.56351503172076     -1.93834798507380     -0.41521791303304
  H   1.62986736871614     -1.17342138043737      0.58913849133908
  N   -0.35027853237274      0.73315095008578      1.71352116134340
  H   0.13198822716516      1.61428962869410      1.82510522769218
  H   0.19138687416284     -0.00792368829321      2.14059129299195
  C   -1.71443644598807     -0.66594224817771      0.28153270946471
  H   -1.36574378485260     -1.55028586943425      0.82394233308952
  H   -1.95319984090800     -0.95300515356942     -0.74295708883474
  H   -2.62113106748700     -0.31866545529576      0.77729008529618
