17
Coordinates from ORCA-job run
  C   0.86850043243997      0.26552542479947     -0.16722460167609
  C   -0.48428264862711      0.59316250764757      0.50084238554833
  F   1.77688708209884      1.17484288658852      0.41240797854358
  H   -0.75347137017325      1.59381701751505      0.14083581633076
  N   1.45345422656061     -1.02098822497525      0.12633182999599
  H   1.66168946580039     -1.10379033882544      1.11297639029514
  H   0.83519060332539     -1.76975487114760     -0.15627744818837
  N   0.81959359816048      0.48192275347065     -1.56055654810387
  H   1.43621010794027     -0.12862797707908     -2.07292120308313
  H   -0.09878471309798      0.55160964900186     -1.96287804453018
  N   -0.41477447855354      0.67044589927332      1.95311777796225
  H   -0.26026247324234     -0.25234173926535      2.34375190178529
  H   0.36413489810563      1.25875435524789      2.22176096668962
  C   -1.58504231903333     -0.38845309759338      0.12463235594651
  H   -2.51766631928283     -0.07477283782676      0.59485100656772
  H   -1.74963905499809     -0.45761999034943     -0.95204394375796
  H   -1.35073703742312     -1.39173141648204      0.49439337967441
