16
Coordinates from ORCA-job run
  C   -0.63611563387447      0.25536909435487      0.48395535295914
  C   0.82571834250004      0.04625874315675      0.01406513739989
  Cl  -1.14546668437053     -1.12598799715267      1.51097528341831
  H   1.09730921738205      0.96360107271956     -0.52488319864186
  C   -0.69279894882947      1.46775923312615      1.30402561936208
  N   -0.73578054206292      2.47161017820197      1.91357135156990
  C   -1.60597609604716      0.38238686094440     -0.68644972928919
  H   -1.27688972423446      1.18079249485854     -1.35704937815521
  H   -1.66082608405718     -0.55704402395222     -1.23543826778709
  H   -2.60241579432101      0.62327883775556     -0.31525104549525
  C   1.01892559669005     -1.15398576455310     -0.91604982301203
  H   0.68440278982396     -2.07416973116313     -0.43657933799256
  H   2.07801645063493     -1.25794827265647     -1.15642200217424
  H   0.47363634717345     -1.01436269788950     -1.84967033465461
  C   1.71861981073015     -0.05281315885133      1.17123340799909
  N   2.45764095286257     -0.15474486889939      2.07796696449366
