16
Coordinates from ORCA-job run
  C   -0.62900575968783      0.36217559637241      0.59848693467769
  C   0.73746999977307     -0.36005212789315      0.48471178977654
  Cl  -1.34962966923399     -0.06973119874500      2.18702057914118
  H   1.30593767392916     -0.10574421580068      1.38612898226269
  C   -0.39009094977234      1.80660720883288      0.59902743882726
  N   -0.17883466342744      2.96225827880259      0.56634312197468
  C   -1.61119039843198     -0.01493399548585     -0.50358912007284
  H   -2.56036034040896      0.49657933201859     -0.34169344935258
  H   -1.21931552144370      0.27988550429048     -1.47904928920115
  H   -1.78404630329275     -1.09222976581786     -0.48939978047034
  C   1.53856324875649      0.05557180867215     -0.75463032224487
  H   1.69228066244632      1.13593840787931     -0.76724991933127
  H   2.51580672834762     -0.42944177782940     -0.73154606240340
  H   1.03597365664883     -0.24712452515520     -1.67394507942929
  C   0.52550383967287     -1.80895330686934      0.48510999279012
  N   0.36993779612466     -2.97180522327196      0.43527418305559
