16
Coordinates from ORCA-job run
  C   -0.58464938754186      0.45460657661555      0.34565034915903
  C   0.60805026387983     -0.52128577318961      0.18678664304696
  Cl  -0.40478780521218      1.28090010532691      1.93322526579017
  H   0.57382784419085     -1.18407885552280      1.05998807796685
  C   -0.53614126191473      1.47327161764435     -0.70369704193513
  N   -0.50048139501703      2.26752925189080     -1.56912767794994
  C   -1.92889289383957     -0.26441844443940      0.33276327900760
  H   -2.73342695861955      0.44725196421575      0.52043377536977
  H   -1.94136071279741     -1.02494049940943      1.11646929061001
  H   -2.09243833122585     -0.73972625390738     -0.63622024406247
  C   1.97419157307231      0.16473025868116      0.11256276563700
  H   2.03048863252002      0.81806216036837     -0.76011919924878
  H   2.75857767205274     -0.58934017239534      0.02900171429450
  H   2.15318730412634      0.75409846574284      1.01162423560584
  C   0.39212428146992     -1.34266144311714     -1.00768022445275
  N   0.23073117485615     -1.99399895850465     -1.97166100883865
