16
Coordinates from ORCA-job run
  C   -0.75062920735802      0.16729144990030      0.33608709581482
  C   0.77694680953686     -0.08541483173934      0.27051191533763
  Cl  -1.61184451416583     -1.38895170836951      0.57945122410534
  H   1.23894680038064      0.90932263497749      0.21664764864443
  C   -1.03216073856309      1.01997676358967      1.49324848063173
  N   -1.23391798910316      1.74178791857858      2.39853229924025
  C   -1.28049714441654      0.82989464700328     -0.93149287876019
  H   -0.72608216329709      1.75147166372845     -1.12868786674451
  H   -1.18155874096866      0.15478781565628     -1.78089320873586
  H   -2.33566535625628      1.07411479199010     -0.80622630222669
  C   1.22382048876442     -0.90839926506378     -0.94031571732069
  H   1.02313833168715     -0.37398711241142     -1.86920760252446
  H   2.29842071327309     -1.08689136254219     -0.87926846330531
  H   0.71676269088150     -1.87333216446065     -0.96199011145825
  C   1.24001348171834     -0.70724691803583      1.51335601370507
  N   1.63530653788665     -1.22342432280144      2.49124747359664
