16
Coordinates from ORCA-job run
  C   -0.60574170389724      0.45451587340952      0.30774613626113
  C   0.59528841277604     -0.52117097732607      0.22671628226896
  Cl  -0.52782407818128      1.28444426514171      1.90161225419468
  H   0.50663742906179     -1.18168942066441      1.09770227544097
  C   -0.49011199655137      1.47074328417611     -0.73887275882729
  N   -0.39216484383876      2.26425087454101     -1.60016481771598
  C   -1.94602894739321     -0.26562397782673      0.21122446270915
  H   -2.04806270866208     -0.74214706963141     -0.76556788169172
  H   -2.00703354220150     -1.02529933268141      0.99341445561593
  H   -2.76138828512864      0.44544877055678      0.34723473444999
  C   1.96299667053695      0.16582490621136      0.23591057802834
  H   2.07654583996552      0.80953872804782     -0.63815256355573
  H   2.75163609023732     -0.58794372636244      0.21289838795857
  H   2.08155355827397      0.76512242797144      1.13822516007333
  C   0.45421671541188     -1.34359016188954     -0.97805041797860
  N   0.35048138959063     -1.99042446367375     -1.95287628723173
