16
Coordinates from ORCA-job run
  C   -0.70923760251583      0.14303957445238      0.42397878667862
  C   0.81208354711889      0.04448972477404      0.14706956507779
  Cl  -1.31493765324868     -1.42967414314474      1.04268466159088
  H   1.12615575483677      1.05649637491161     -0.14114441991403
  C   -0.92970587295518      1.14809481863280      1.46662315885238
  N   -1.10053179339838      1.99377997439940      2.26446022415867
  C   -1.50002870992601      0.51830399143881     -0.82515997077708
  H   -1.10540727611658      1.44516146953800     -1.25028489336176
  H   -2.54844733823338      0.66845056999067     -0.56641294324276
  H   -1.43862108381335     -0.27875952271989     -1.56543896078766
  C   1.18366819018308     -0.93015857515316     -0.97324007613984
  H   2.26979209419392     -0.97378731214242     -1.06793426068931
  H   0.77496109521168     -0.59920067986738     -1.92837607313961
  H   0.81814248812915     -1.93328078215217     -0.75216817140482
  C   1.52953500286125     -0.29281010084155      1.37907500627784
  N   2.13157915767269     -0.58014538211639      2.34526836682069
