16
Coordinates from ORCA-job run
  C   -0.65868118825596      0.34525508332357      0.57563052523280
  C   0.72217777775896     -0.35536601258695      0.51081644001475
  Cl  -1.43797205650014     -0.11570741862038      2.12761800278054
  H   1.24781419604046     -0.10551516708616      1.43906469749627
  C   -0.44298221196720      1.79313822442937      0.60077291045504
  N   -0.25188662830733      2.95257706704805      0.58502277255908
  C   -1.58849275434907     -0.03330778625898     -0.57060669017803
  H   -1.74733384326203     -1.11277342518585     -0.57432396243415
  H   -1.15996569198895      0.27669106522243     -1.52568895096791
  H   -2.55040312883206      0.46414281857845     -0.44402764004004
  C   1.56969883414207      0.08916517008315     -0.68681317107229
  H   2.55022199178786     -0.38641492206737     -0.63072743077349
  H   1.10956447157913     -0.20250628616899     -1.63156406135913
  H   1.71212507563129      1.17104623964159     -0.67477358038359
  C   0.53182590633175     -1.80705028407608      0.48380510967981
  N   0.39528925019124     -2.97137436627586      0.41579502899037
