16
Coordinates from ORCA-job run
  C   -0.60153703932395      0.44580805340828      0.32854341091130
  C   0.61082308823668     -0.51080703393819      0.20592762353825
  Cl  -0.47726858989773      1.28261553411884      1.91583294464191
  H   0.56438707379124     -1.16956242338000      1.08156513957600
  C   -0.54272349035914      1.45992776917657     -0.72487870472506
  N   -0.49506029842725      2.25149455025985     -1.59217765565275
  C   -1.93267004736271     -0.29620472245845      0.28434779879539
  H   -2.06340752498607     -0.77730696130499     -0.68675647509326
  H   -1.95189671687448     -1.05434703942108      1.07017007588146
  H   -2.75391732987644      0.40188937487826      0.44894566803223
  C   1.96711672768750      0.19727764842630      0.16378547191201
  H   2.11204071309478      0.79533598112969      1.06310306620404
  H   2.76557785855943     -0.54421313658613      0.10652258807900
  H   2.03609492804790      0.84546954086371     -0.71165995929868
  C   0.44051735410279     -1.33969230616404     -0.99062426135326
  N   0.32092329358747     -1.98668482900863     -1.96364673144856
