16

C	0.0	0.0	0.0
C	-0.237062	-0.035212	-1.541659
Br	1.948251	0.0	0.0
H	0.393541	0.746664	-1.966304
H	-0.273611	-0.959211	0.445036
N	-0.636826	1.154552	0.540849
H	-0.472064	1.168625	1.543002
H	-1.661501	0.905236	0.427133
C	-1.621618	0.087074	-2.154418
H	-2.08328	1.019928	-1.841384
H	-2.292371	-0.695357	-1.816656
H	-1.484506	0.079481	-3.242751
N	0.337006	-1.307515	-2.102376
O	0.082235	-2.362075	-1.525112
O	0.975971	-1.221901	-3.152166
H	-3.161367	0.0	0.0
