16

C	0.0	0.0	0.0
C	-0.220976	-0.000932	-1.550877
Br	1.963866	0.0	0.0
H	0.410326	0.795602	-1.950979
H	-0.314182	-0.955468	0.417133
N	-0.625702	1.048212	0.707364
H	-0.50301	1.922623	0.202934
H	-1.650366	0.785203	0.653483
C	-1.601733	0.130431	-2.172697
H	-2.249771	-0.706629	-1.938452
H	-2.120964	0.999913	-1.781586
H	-1.446513	0.231559	-3.252792
N	0.373577	-1.250055	-2.14341
O	0.12038	-2.320498	-1.59568
O	1.027767	-1.130405	-3.180164
H	-3.139706	0.0	0.0
