16

C	0.0	0.0	0.0
C	-0.236878	-0.024144	-1.542381
Br	1.948666	0.0	0.0
H	0.414152	0.741952	-1.963161
H	-0.275807	-0.960417	0.440434
N	-0.632479	1.154376	0.546523
H	-0.458847	1.17045	1.547756
H	-1.657807	0.903434	0.438505
C	-1.615647	0.142686	-2.158398
H	-2.060116	1.074464	-1.81813
H	-2.302644	-0.637137	-1.84829
H	-1.472321	0.167054	-3.245911
N	0.306618	-1.308002	-2.107444
O	0.052498	-2.356773	-1.519247
O	0.922546	-1.235972	-3.171893
H	-3.147032	0.0	0.0
