16

C	0.0	0.0	0.0
C	-0.218846	0.063336	-1.553301
Br	1.963476	0.0	0.0
H	0.363819	0.910943	-1.921356
H	-0.300044	-0.979169	0.367694
N	-0.644788	1.007946	0.74503
H	-0.555375	1.903537	0.276027
H	-1.662717	0.728369	0.707835
C	-1.620139	0.12984	-2.135948
H	-1.515138	0.224381	-3.223653
H	-2.21182	-0.738464	-1.85901
H	-2.167899	0.973301	-1.728126
N	0.42347	-1.124755	-2.214062
O	1.091954	-0.922482	-3.228506
O	0.18811	-2.234031	-1.740612
H	-3.211805	0.0	0.0
