16

C	0.0	0.0	0.0
C	-0.236668	-0.006278	-1.542434
Br	1.948618	0.0	0.0
H	0.397815	0.781953	-1.94758
H	-0.274744	-0.967086	0.427636
N	-0.640556	1.14336	0.560361
H	-0.475424	1.141894	1.56239
H	-1.663817	0.890165	0.440392
C	-1.618885	0.127513	-2.157671
H	-2.086664	1.048753	-1.821892
H	-1.47791	0.149204	-3.2449
H	-2.286627	-0.668032	-1.844288
N	0.338894	-1.267651	-2.128004
O	0.091967	-2.332895	-1.567397
O	0.973526	-1.160921	-3.178776
H	-3.149493	0.0	0.0
