15
Coordinates from ORCA-job run
  C   -0.51915328697902     -0.00065584083649     -0.29493561569142
  C   0.73160815835564      0.85844984353873      0.03177266481792
  F   -1.29314804889916      0.77763040175361     -1.13812907311604
  H   0.39364227019900      1.75560798300644      0.56355861128133
  N   -0.10116881345859     -1.14061274464850     -1.06170713545454
  H   0.39274247835968     -1.81038706408346     -0.48356090778678
  H   -0.91371194949988     -1.59443873395505     -1.46246783284696
  C   -1.34302765841806     -0.27865096499871      0.94884270803866
  H   -1.64073273681218      0.65200153311741      1.43756445858027
  H   -0.78470713533668     -0.89354628220429      1.65753055726896
  H   -2.24611492462626     -0.81726135273328      0.65402258729438
  C   1.41190273065772      1.27663205358107     -1.19677069205015
  N   1.96061326276943      1.65371098673387     -2.16274441035016
  C   1.63706704365170      0.10518369008545      0.90176120004663
  N   2.31518861003666     -0.54466350835679      1.60626287996789
