15
Coordinates from ORCA-job run
  C   -0.41048648327681     -0.22971221379065     -0.40810182105576
  C   1.00949034688146      0.39007546537666     -0.32633452199277
  F   -0.97549625643397      0.37579444454405     -1.54911570018348
  H   1.54241094530458      0.10110860524881     -1.24127374034781
  N   -0.27117057141402     -1.62752599929866     -0.56305700040030
  H   -1.16398163302377     -2.09828571680978     -0.49469734718693
  H   0.16311304262064     -1.86384273468603     -1.44697513338382
  C   -1.27873565249170      0.12099546626918      0.77610479937204
  H   -0.86350548060725     -0.29538511605916      1.69423189038793
  H   -1.36935036402593      1.20338466293859      0.87008550901741
  H   -2.27838593853278     -0.28932755888151      0.61691415152048
  C   1.74016694285498     -0.13051153817731      0.83106127587729
  N   2.32211476747592     -0.53567181321563      1.76620045718383
  C   0.94756190974474      1.85380599826384     -0.28208320352639
  N   0.88525442492390      3.02509804827761     -0.24295961528172
