15
Coordinates from ORCA-job run
  C   -0.35100531531187     -0.25890468068471     -0.24447502844252
  C   0.94752565811937      0.37383087554151      0.32213504537826
  F   -0.40971887023626      0.15485605213669     -1.58750361468274
  H   1.00474183138496      0.11173542721735      1.38434959720953
  N   -0.25013621655080     -1.66500239771471     -0.12081876342698
  H   -1.12388292264624     -2.11154695858361     -0.36830363765361
  H   0.48711278991623     -2.03770424266504     -0.70839722562630
  C   -1.58408044922323      0.27432630551240      0.44871178598872
  H   -1.56912335550948      0.02099536067850      1.50947085387435
  H   -1.65149605329917      1.35530814060506      0.32665836851890
  H   -2.46889363490532     -0.17238414322033     -0.01001090182711
  C   0.92973684203139      1.83279521987962      0.19000299618942
  N   0.88640605059208      3.00264490873599      0.10842301818896
  C   2.11985290843157     -0.18982392110221     -0.35431494006068
  N   3.03196073720678     -0.69212594633651     -0.89592755362818
