15
Coordinates from ORCA-job run
  C   -0.50519215021329     -0.17973913590277     -0.45862886392463
  C   0.94138732863572      0.41981733341809     -0.41008825747339
  F   -1.07404795905632      0.46499996019359     -1.55055840585887
  H   1.39529657760356      0.21270165721084     -1.38735548615477
  N   -0.51829155307420     -1.57618347120069     -0.72179326039917
  H   0.13623434579961     -1.85545604337378     -1.44088449434649
  H   -0.38698913931050     -2.13263964308112      0.11027961592588
  C   -1.30837012946789      0.14881468089072      0.77728315199627
  H   -1.40273381255366      1.22924240096893      0.88703745253119
  H   -0.83893131550189     -0.25976135504238      1.67489430954732
  H   -2.30265687412017     -0.28361856616705      0.66272286974190
  C   1.72100572271403     -0.25439138356709      0.62897127603039
  N   2.30161229489841     -0.83436563159426      1.46854225275041
  C   0.93481931683374      1.86958307435424     -0.20475891210645
  N   0.90685734681286      3.03099612289276     -0.03566324825959
