15
Coordinates from ORCA-job run
  C   -0.40006051133160     -0.23341883880790     -0.41695348146060
  C   0.99816271052500      0.43097036896544     -0.31259469568817
  F   -0.97744202415963      0.37839565924064     -1.54874907662560
  H   1.54308787946619      0.18417956374820     -1.23271011909144
  N   -0.21410960536262     -1.62206725353662     -0.60088694833236
  H   -1.09128935808003     -2.12338385290308     -0.54937232318036
  H   0.23496855303285     -1.82555496388943     -1.48557837813134
  C   -1.28698498243821      0.06306100875165      0.76821414094696
  H   -0.86316598482076     -0.35740900363028      1.68053142756241
  H   -1.41543163216341      1.13951455452069      0.88332310820218
  H   -2.27094090986325     -0.37793734514702      0.59400461659061
  C   1.74166948549852     -0.09548015752096      0.83390042288187
  N   2.33125477671803     -0.50803096914212      1.76099828480817
  C   0.88666515973233      1.88989145356269     -0.22773042492459
  N   0.78361644324657      3.05626977578811     -0.14739655355773
