15
Coordinates from ORCA-job run
  C   -0.44002568809457     -0.22973149496651     -0.28393612422122
  C   0.95034475225377      0.35025114952281      0.15523606807697
  F   -0.63981108970753      0.28558642464440     -1.55531711745104
  H   1.14851736922515      0.00402214324404      1.17679096857738
  N   -0.46299484326530     -1.64710475287853     -0.39305985171708
  H   0.31563316282892     -2.01698982884331     -0.92379177437706
  H   -0.54533803333605     -2.11068724428453      0.49991261053272
  C   -1.54547184195711      0.26258585255297      0.62238927437154
  H   -1.59836660842464      1.35109279138494      0.59922871437016
  H   -1.38792233130779     -0.06385128344158      1.65346115977363
  H   -2.48819231519536     -0.14621960047710      0.25864405687331
  C   0.95538044280149      1.81456222445231      0.15090021156742
  N   0.92534890508779      2.98790728789237      0.16862937126949
  C   2.00159399042564     -0.17816775160796     -0.71709557833492
  N   2.81130412866563     -0.66625591719433     -1.41299198931133
