15
Coordinates from ORCA-job run
  C   -0.50139742260946     -0.19215011863639     -0.45710575209974
  C   0.94473339229836      0.41007477052472     -0.41627466142695
  F   -1.06449824299001      0.42274813925613     -1.56920316098062
  H   1.40364310042434      0.17929425407640     -1.38575273346275
  N   -0.51220047710637     -1.59511331380786     -0.68315434178780
  H   0.14583320876692     -1.89273244059366     -1.39150868975631
  H   -0.38369020285380     -2.12880958541036      0.16426324508740
  C   -1.31181023320320      0.16865871481115      0.76498648093463
  H   -0.84685836897339     -0.21473129405163      1.67598289662660
  H   -2.30505019511523     -0.26778008368507      0.65676064510191
  H   -1.40795835689979      1.25150009091856      0.84496800834148
  C   1.71832741746018     -0.23650273195819      0.64436298786792
  N   2.29316145453867     -0.79501939516187      1.50236092925742
  C   0.93351440989325      1.86443800094330     -0.24681282520736
  N   0.89425051636955      3.02912499277478     -0.10487302849584
