15
Coordinates from ORCA-job run
  C   -0.51499608311170     -0.20038634483059     -0.43623886896692
  C   0.92244250994451      0.42398089840450     -0.44854603903921
  F   -1.12786224000631      0.40540573439646     -1.52678008837820
  H   1.35022690624618      0.19561636612292     -1.43266946356869
  N   -0.51300279566234     -1.60367606217601     -0.66232163363598
  H   0.12224971341500     -1.89063237412724     -1.39564177782074
  H   -0.34305467618477     -2.13510512259877      0.17934765838092
  C   -1.28497912756704      0.14854709752788      0.81525335416952
  H   -2.27406293292966     -0.30433205735025      0.74456969184407
  H   -0.78009875421507     -0.22585246571574      1.70843140002293
  H   -1.39567458072947      1.22974868028015      0.89792508189220
  C   1.74378810416305     -0.20725344415681      0.58471025097035
  N   2.35974007204297     -0.75902018606313      1.41833839861764
  C   0.89368773782631      1.87872016008934     -0.28705126431488
  N   0.84159614676830      3.04423912019729     -0.15632670017301
