15
Coordinates from ORCA-job run
  C   -0.47091037233911     -0.08575937017000     -0.31426198999785
  C   0.76322021839541      0.80518227534879     -0.01460003904866
  F   -1.05172687988650      0.52957926326188     -1.44641386833388
  H   0.41031494178165      1.83914504458221      0.06720036927090
  N   -0.05257099352209     -1.40619253963257     -0.57501352032383
  H   0.52529646339164     -1.46603458728173     -1.40516317488645
  H   -0.83926001629928     -2.03535738055053     -0.66525548374890
  C   -1.49098701262998     -0.02883802233829      0.79959258259453
  H   -1.09906655225610     -0.48283710731522      1.70930792539802
  H   -1.77716573435921      1.00514692462617      0.99714586371295
  H   -2.38558409502302     -0.57057396653939      0.48498817566146
  C   1.72028501758335      0.73052791029115     -1.12286074382212
  N   2.46173472565933      0.63977412646263     -2.02824769598077
  C   1.39981144421057      0.41330117760302      1.24426010493807
  N   1.88660884529335      0.11393625165188      2.26932149456651
