16

C	-0.288396	-0.113203	-1.515721
C	0.0	0.0	0.0
F	-0.1504	1.188286	-2.002265
H	1.092136	0.0	0.0
C	0.73909	-0.972552	-2.227887
H	1.712108	-0.703078	-1.8025
H	0.544281	-2.028641	-2.048968
H	0.687292	-0.762356	-3.299011
C	-1.678207	-0.515623	-1.805577
N	-2.776811	-0.862406	-2.035714
N	-0.437191	-1.197483	0.748267
O	-0.67939	-1.069844	1.947112
O	-0.475067	-2.26548	0.134099
C	-0.571928	1.193048	0.584114
N	-0.996108	2.194146	1.030655
F	2.49235	0.0	0.0
