16

C	-0.277366	-0.04878	-1.4909
C	0.0	0.0	0.0
F	-1.648444	-0.032603	-1.770881
H	1.092485	0.0	0.0
C	0.396993	1.160868	-2.123166
H	-0.102171	2.071256	-1.787592
H	0.339493	1.095182	-3.210563
H	1.435411	1.154194	-1.782445
C	0.281644	-1.258827	-2.125552
N	0.6885	-2.134331	-2.793849
N	-0.489392	-1.169861	0.76282
O	-0.655533	-2.227127	0.156805
O	-0.635152	-1.023866	1.975031
C	-0.502199	1.218124	0.600093
N	-0.846876	2.244162	1.059415
F	2.460711	0.0	0.0
