16

C	-0.424547	-0.007112	-1.472948
C	0.0	0.0	0.0
F	0.254452	-0.99781	-2.159032
H	1.093263	0.0	0.0
C	-1.914353	-0.196895	-1.71589
H	-2.481395	0.591789	-1.217656
H	-2.21224	-1.171072	-1.330613
H	-2.115126	-0.159268	-2.788487
C	0.001676	1.28322	-2.05999
N	0.271281	2.2917	-2.597774
N	-0.425819	-1.202878	0.74413
O	-0.493921	-1.108143	1.969539
O	-0.609881	-2.245342	0.112697
C	-0.505539	1.179208	0.666741
N	-0.915615	2.165655	1.159954
F	2.419135	0.0	0.0
