16

C	-0.302628	-0.037352	-1.513108
C	0.0	0.0	0.0
F	-0.161652	1.287457	-1.935375
H	1.095441	0.0	0.0
C	0.718379	-0.862416	-2.274136
H	0.652816	-0.60523	-3.333536
H	1.693984	-0.604451	-1.849438
H	0.530894	-1.925537	-2.138631
C	-1.696504	-0.417452	-1.818411
N	-2.803138	-0.699615	-2.094354
N	-0.406828	-1.238808	0.697554
O	-0.508731	-1.193916	1.920515
O	-0.549407	-2.256826	0.01709
C	-0.57527	1.151916	0.657926
N	-1.03273	2.103012	1.175377
F	2.489852	0.0	0.0
