16

C	-0.428286	0.008037	-1.471021
C	0.0	0.0	0.0
F	0.261931	-0.962864	-2.173053
H	1.092971	0.0	0.0
C	-1.916183	-0.197252	-1.711678
H	-2.11748	-0.16796	-2.784166
H	-2.208597	-1.170566	-1.318027
H	-2.488255	0.592569	-1.219719
C	-0.021655	1.311885	-2.040577
N	0.230964	2.32996	-2.569054
N	-0.410488	-1.215959	0.73143
O	-0.566787	-2.258031	0.091003
O	-0.484725	-1.130651	1.957078
C	-0.510456	1.166819	0.684587
N	-0.925939	2.159078	1.161396
F	2.418515	0.0	0.0
