16

C	-0.290702	-0.014703	-1.48808
C	0.0	0.0	0.0
F	-1.662453	0.043125	-1.754809
H	1.092871	0.0	0.0
C	0.407684	1.188998	-2.104491
H	-0.054269	2.104453	-1.733144
H	0.321895	1.1558	-3.19128
H	1.452075	1.142571	-1.787708
C	0.232465	-1.229479	-2.142705
N	0.635464	-2.116936	-2.798118
N	-0.50819	-1.172793	0.749079
O	-0.808069	-2.180307	0.110626
O	-0.558316	-1.072858	1.974172
C	-0.489565	1.211206	0.625698
N	-0.85426	2.225397	1.096481
F	2.462874	0.0	0.0
