15

C	-0.333696	-0.014219	-1.481922
C	0.0	0.0	0.0
Cl	-0.170441	1.653437	-2.195583
H	1.094209	0.0	0.0
H	-0.3147	-0.978374	0.380149
N	0.435677	-0.997764	-2.12372
H	1.41159	-0.905155	-1.844577
H	0.338045	-0.954664	-3.128872
N	-1.801145	-0.361612	-1.741943
O	-2.567533	-0.372482	-0.782188
O	-2.112292	-0.622851	-2.899371
N	-0.539386	1.122054	0.73549
H	-1.333998	0.83744	1.287322
H	0.178529	1.490968	1.342002
Br	3.562733	0.0	0.0
