15

C	-0.584139	-0.028344	-1.397785
C	0.0	0.0	0.0
Cl	0.097107	-1.374621	-2.336375
H	1.09145	0.0	0.0
H	-0.339626	-0.929121	0.465343
N	-1.995272	-0.110272	-1.364418
H	-2.298997	0.590122	-0.69314
H	-2.374224	0.087793	-2.281958
N	-0.146133	1.250617	-2.171055
O	0.765816	1.925854	-1.712614
O	-0.781427	1.502018	-3.196121
N	-0.580411	1.150406	0.70968
H	-0.690604	0.909597	1.686239
H	0.098966	1.901217	0.667199
Br	3.686267	0.0	0.0
