15

C	-0.590863	0.05803	-1.395546
C	0.0	0.0	0.0
Cl	0.228701	-1.197358	-2.429473
H	1.092033	0.0	0.0
H	-0.364225	0.878034	0.53541
N	-1.992552	-0.064518	-1.355529
H	-2.201875	-0.824777	-0.716845
H	-2.377518	-0.224267	-2.277032
N	-0.306009	1.385299	-2.086383
O	-0.793745	1.520782	-3.204781
O	0.324351	2.232187	-1.46651
N	-0.53588	-1.216837	0.642201
H	-0.506917	-1.073259	1.644193
H	0.120934	-1.9664	0.450994
Br	3.628898	0.0	0.0
