15

C	-0.596177	-0.02489	-1.397487
C	0.0	0.0	0.0
Cl	0.026383	-1.35643	-2.379965
H	1.089128	0.0	0.0
H	-0.326707	0.955656	0.451125
N	-2.013062	-0.100216	-1.348499
H	-2.361886	0.733842	-0.889311
H	-2.390702	-0.111032	-2.287849
N	-0.134814	1.270571	-2.139774
O	-1.024228	1.943849	-2.667971
O	1.055846	1.5317	-2.135617
N	-0.43364	-1.186115	0.716185
H	-1.362749	-1.077491	1.094875
H	0.223587	-1.376779	1.459417
Br	3.712431	0.0	0.0
