15

C	-0.588977	0.00908	-1.398033
C	0.0	0.0	0.0
Cl	0.239913	-1.277083	-2.391184
H	1.091828	0.0	0.0
H	-0.365754	0.895726	0.504861
N	-1.988528	-0.118055	-1.357597
H	-2.371319	-0.311608	-2.272938
H	-2.197896	-0.852192	-0.688564
N	-0.303899	1.310393	-2.132718
O	-0.817939	1.420347	-3.241754
O	0.35591	2.164788	-1.555697
N	-0.53397	-1.195378	0.682624
H	0.122366	-1.95088	0.512405
H	-0.500779	-1.02112	1.67945
Br	3.643125	0.0	0.0
