15

C	-0.614264	0.026444	-1.386843
C	0.0	0.0	0.0
Cl	0.171779	-1.270727	-2.392357
H	1.09183	0.0	0.0
H	-0.357164	0.894037	0.514714
N	-2.014112	-0.08172	-1.321155
H	-2.220388	-0.817505	-0.654404
H	-2.419953	-0.262959	-2.228483
N	-0.321103	1.325305	-2.119483
O	0.39042	2.151571	-1.564934
O	-0.874803	1.460425	-3.206627
N	-0.531822	-1.198688	0.679768
H	0.125282	-1.951971	0.503945
H	-0.491951	-1.026855	1.676592
Br	3.606655	0.0	0.0
