15

C	-0.591335	0.056017	-1.395897
C	0.0	0.0	0.0
Cl	0.238602	-1.196692	-2.432338
H	1.09182	0.0	0.0
H	-0.365293	0.878336	0.534536
N	-1.990532	-0.075463	-1.358268
H	-2.373368	-0.240823	-2.279118
H	-2.197526	-0.830579	-0.712456
N	-0.310498	1.382129	-2.088507
O	0.341201	2.221347	-1.480569
O	-0.817823	1.523804	-3.197404
N	-0.534683	-1.2161	0.644315
H	-0.499101	-1.073413	1.645827
H	0.119718	-1.966498	0.447978
Br	3.646302	0.0	0.0
