15

C	-0.359101	-0.049244	-1.467849
C	0.0	0.0	0.0
Cl	-0.115424	1.618932	-2.213156
H	1.100819	0.0	0.0
H	-0.402718	0.899185	0.460265
N	0.358351	-1.068986	-2.093364
H	0.15531	-1.151891	-3.080005
H	1.35319	-0.948085	-1.912338
N	-1.856003	-0.279611	-1.657375
O	-2.1992	-1.063711	-2.536812
O	-2.605789	0.365199	-0.940222
N	-0.562314	-1.196465	0.636835
H	-0.544007	-1.05272	1.639116
H	0.065478	-1.968298	0.440696
Br	3.579859	0.0	0.0
