16

C	0.0	0.0	0.0
C	-0.254929	0.159478	-1.558864
F	1.358495	0.0	0.0
H	0.662184	0.650613	-1.891472
C	-0.521299	1.138433	0.746839
N	-0.562641	2.149339	1.359101
N	-0.377179	-1.279457	0.715003
O	-0.450716	-2.313187	0.05829
O	-0.39344	-1.207868	1.942688
N	-1.393254	0.878081	-1.951181
H	-1.62769	0.669506	-2.914986
H	-2.139264	0.564094	-1.286484
N	-0.100637	-1.220523	-2.254306
O	-1.091908	-1.709602	-2.786597
O	1.032516	-1.691104	-2.29131
H	-2.244649	0.0	0.0
