16

C	0.0	0.0	0.0
C	-0.261767	0.200711	-1.553569
F	1.350525	0.0	0.0
H	0.6552	0.699818	-1.87519
C	-0.520033	1.122452	0.774107
N	-0.555891	2.119549	1.408257
N	-0.382373	-1.294538	0.683129
O	-0.430084	-2.313788	0.001714
O	-0.423683	-1.250936	1.910513
N	-1.402035	0.927208	-1.917065
H	-1.632794	0.766029	-2.889504
H	-2.147449	0.584729	-1.262067
N	-0.107461	-1.159385	-2.28827
O	1.03091	-1.614028	-2.364423
O	-1.103512	-1.642997	-2.813768
H	-2.278177	0.0	0.0
