14

C	0.0	0.0	0.0
C	-0.295511	-0.258507	-1.537002
Br	1.956144	0.0	0.0
H	0.606525	0.083632	-2.062771
H	-0.355696	0.986363	0.281083
C	-0.478065	-1.024335	0.914615
N	-0.655531	-1.910518	1.666325
N	-1.379086	0.543178	-2.017934
H	-1.597942	0.246254	-2.964199
H	-2.165683	0.339108	-1.333541
N	-0.46046	-1.711991	-1.722365
H	0.39459	-2.184345	-1.438613
H	-0.570702	-1.878042	-2.716903
F	-2.635285	0.0	0.0
