14

C	0.0	0.0	0.0
C	-0.461882	-0.034925	-1.516156
Br	1.946707	0.0	0.0
H	0.448822	-0.032004	-2.122632
H	-0.322432	0.926548	0.46689
C	-0.42512	-1.124691	0.824801
N	-0.603044	-2.046436	1.532099
N	-1.260205	1.124111	-1.886662
H	-2.051989	1.049315	-1.225749
H	-0.738045	1.976304	-1.694802
N	-1.167288	-1.280582	-1.745571
H	-2.008519	-1.140494	-1.163226
H	-1.463087	-1.254353	-2.716922
F	-2.657352	0.0	0.0
