18

C	0.0	0.0	0.0
C	-0.34524	0.160869	-1.53784
Cl	1.796478	0.0	0.0
H	0.534662	0.58382	-2.027182
N	-0.316554	1.409696	0.605699
O	0.192593	2.368501	0.029723
O	-1.034983	1.460092	1.589508
N	-0.665482	-0.933172	0.784481
H	-0.503473	-1.856042	0.403845
H	-1.692614	-0.699625	0.699482
C	-1.563206	0.989328	-1.896762
H	-2.424137	0.669297	-1.280756
H	-1.775295	0.864228	-2.958133
H	-1.341195	2.038911	-1.706319
N	-0.42684	-1.217799	-2.168867
O	-0.999828	-1.314444	-3.25005
O	0.166005	-2.150639	-1.623425
H	-3.317326	0.0	0.0
