18

C	0.0	0.0	0.0
C	-0.432384	0.0262	-1.486148
Cl	1.802645	0.0	0.0
H	-1.532439	0.268191	-1.448656
N	-0.453711	1.157078	0.771679
O	0.268286	1.738188	1.580674
O	-1.745197	1.502455	0.546878
N	-0.465306	-1.236638	0.675973
H	-0.415871	-1.025938	1.667841
H	0.116002	-2.065231	0.466225
C	-0.264316	-1.330832	-2.14049
H	0.791787	-1.610601	-2.129517
H	-0.562429	-1.217955	-3.183654
H	-0.863304	-2.092454	-1.639499
N	0.144484	1.079464	-2.194013
O	0.021555	2.257207	-1.556302
O	0.181889	0.948607	-3.529404
H	-2.048851	0.0	0.0
