18

C	0.0	0.0	0.0
C	-0.620139	0.197536	-1.392633
Cl	1.754817	0.0	0.0
H	-1.68206	0.428808	-1.143971
N	-0.330272	1.311502	0.804371
O	0.147883	2.34477	0.3473
O	-1.019755	1.219336	1.804233
N	-0.601601	-1.048669	0.712876
H	-1.640808	-0.859145	0.621607
H	-0.378461	-1.932073	0.271604
C	-0.560603	-1.063841	-2.229144
H	-1.285552	-1.775954	-1.832026
H	-0.850524	-0.834812	-3.256975
H	0.441078	-1.497446	-2.244668
N	-0.064571	1.328247	-2.191899
O	1.011281	1.145679	-2.765767
O	-0.739377	2.352871	-2.283286
H	-3.056654	0.0	0.0
