18

C	-0.532216	-0.011224	-1.429658
C	0.0	0.0	0.0
Cl	0.063451	1.554918	-2.231492
H	1.09015	0.0	0.0
C	0.150186	-1.149366	-2.160719
H	-0.085973	-1.115274	-3.228824
H	-0.209793	-2.08501	-1.731355
H	1.224966	-1.059187	-1.991955
N	-1.95405	-0.109213	-1.505122
H	-2.380874	0.679219	-1.032916
H	-2.247024	-0.123318	-2.474326
N	-0.525234	-1.134932	0.693974
H	-1.526674	-1.05279	0.822484
H	-0.050059	-1.237706	1.581683
N	-0.450927	1.292551	0.68995
O	-1.673405	1.468916	0.839584
O	0.398094	2.064618	1.118031
F	2.610398	0.0	0.0
