18

C	-0.456694	0.058555	-1.477576
C	0.0	0.0	0.0
Cl	-0.324244	1.758377	-2.072854
H	1.098349	0.0	0.0
C	0.544335	-0.788889	-2.244121
H	0.396937	-0.667254	-3.318611
H	0.388898	-1.835979	-1.969291
H	1.549891	-0.504247	-1.920731
N	-1.8179	-0.367076	-1.741761
H	-2.441916	0.176595	-1.152021
H	-1.868246	-1.329784	-1.421836
N	-0.444068	-1.257731	0.554152
H	0.246154	-1.553518	1.233612
H	-1.34663	-1.151519	1.00139
N	-0.587301	1.147341	0.7656
O	-1.793652	1.061128	1.058198
O	0.113996	2.110906	1.048883
F	2.628255	0.0	0.0
