18

C	-0.179913	0.081439	-1.526743
C	0.0	0.0	0.0
Cl	-0.278334	-1.956109	-2.130881
H	1.101739	0.0	0.0
C	-1.499478	0.53054	-2.100341
H	-1.618195	1.597039	-1.897372
H	-2.307322	-0.029341	-1.630048
H	-1.53599	0.356747	-3.17572
N	0.950447	0.615548	-2.031159
H	1.816483	0.420005	-1.475712
H	1.019868	0.708057	-3.031345
N	-0.727388	-1.046884	0.678737
H	-0.426023	-1.033793	1.64368
H	-0.423306	-1.916909	0.266842
N	-0.395957	1.299838	0.637539
O	-0.340255	2.343198	-0.009367
O	-0.677307	1.256217	1.836905
F	2.666687	0.0	0.0
