16

C	-0.447471	-6.3e-05	-1.465004
C	0.0	0.0	0.0
Br	0.273062	1.535235	-2.399054
H	1.092282	0.0	0.0
C	0.057051	-1.200902	-2.110813
N	0.407995	-2.17312	-2.669162
N	-1.99687	-0.024918	-1.6459
O	-2.544547	-1.026788	-1.19428
O	-2.55965	0.937219	-2.147577
N	-0.495098	-1.039862	0.824107
H	-1.362736	-1.459126	0.50592
H	0.213572	-1.728754	1.053388
N	-0.4487	1.29426	0.65334
O	-1.609568	1.639938	0.45705
O	0.391537	1.919699	1.279223
Br	2.750117	0.0	0.0
