16

C	-0.484899	0.010605	-1.466757
C	0.0	0.0	0.0
Br	-2.430926	-0.208322	-1.57116
H	1.114955	0.0	0.0
C	-0.020207	1.337428	-2.135902
N	1.145406	1.686006	-2.0889
N	0.133843	-1.096709	-2.271717
O	-0.308567	-1.094036	-3.512801
O	1.471297	-1.072579	-2.186904
N	-0.442635	-1.207614	0.694159
H	-0.016493	-2.030439	0.240654
H	-0.080353	-1.184177	1.661581
N	-0.463355	1.176723	0.774127
O	-1.731612	1.068314	1.118595
O	0.346154	1.422348	1.783497
Br	2.634789	0.0	0.0
