16

C	-0.511336	-0.010276	-1.470119
C	0.0	0.0	0.0
Br	0.344479	-1.482265	-2.467373
H	1.115741	0.0	0.0
C	-2.052518	-0.122959	-1.489557
N	-2.739415	0.786367	-1.078776
N	-0.134997	1.22676	-2.226267
O	1.17085	1.416669	-2.21833
O	-0.666642	1.247352	-3.419895
N	-0.455666	-1.215527	0.684287
H	-0.155402	-2.04995	0.158923
H	0.026703	-1.282025	1.59675
N	-0.401504	1.203063	0.744532
O	-0.258688	1.038979	2.05097
O	0.203938	2.287878	0.286674
Br	2.618571	0.0	0.0
