16

C	-0.494259	0.002036	-1.450974
C	0.0	0.0	0.0
Br	-2.43283	0.186806	-1.511848
H	1.092653	0.0	0.0
C	0.099404	0.986993	-2.344744
N	0.586744	1.718721	-3.127192
N	-0.130071	-1.369987	-2.09094
O	-0.700538	-1.643982	-3.136124
O	0.736226	-2.018175	-1.528621
N	-0.540826	-1.10623	0.716923
H	0.230062	-1.607025	1.142687
H	-1.166517	-0.770981	1.437901
N	-0.38203	1.330091	0.611245
O	-1.028678	1.321367	1.65765
O	-0.006533	2.334164	0.01733
Br	3.354525	0.0	0.0
