16

C	-0.454573	-0.001819	-1.472245
C	0.0	0.0	0.0
Br	-2.375028	0.256519	-1.650969
H	1.090036	0.0	0.0
C	0.235916	0.941254	-2.340603
N	0.819042	1.656686	-3.071727
N	-0.069285	-1.403733	-2.045
O	1.117355	-1.66691	-1.917723
O	-0.937567	-2.137735	-2.49161
N	-0.495094	-1.041063	0.798735
H	0.054351	-1.885446	0.734089
H	-1.490386	-1.205398	0.740813
N	-0.422116	1.336463	0.546387
O	-1.269524	1.366898	1.437581
O	0.175185	2.309701	0.083423
Br	2.749101	0.0	0.0
