14

C	-0.191332	0.016607	0.095664
C	-0.627696	0.034689	-1.383382
Br	1.645332	0.795803	0.180546
H	0.25458	-0.15901	-2.011557
H	-0.840851	0.685392	0.645601
C	-0.199149	-1.364561	0.704729
H	-1.253416	-1.642847	0.735343
H	0.376362	-2.081938	0.113122
H	0.206867	-1.337082	1.7181
C	-1.136198	1.358074	-1.753791
N	-1.427145	2.433378	-2.123619
C	-1.61364	-1.008162	-1.706769
N	-2.114202	-1.943841	-2.216884
F	-2.645643	0.038817	-0.014568
