14

C	-0.140675	0.001171	0.075375
C	-0.595732	-0.119619	-1.393283
Br	1.750326	0.641972	0.058718
H	0.260204	-0.452207	-1.999287
H	-0.730472	0.776745	0.546767
C	-0.243862	-1.295321	0.841656
H	-1.315674	-1.486012	0.911833
H	0.265184	-2.118579	0.332761
H	0.178757	-1.18286	1.842244
C	-1.008481	1.186976	-1.912356
N	-1.220546	2.233414	-2.399892
C	-1.662181	-1.114389	-1.586366
N	-2.236947	-2.063719	-1.979769
F	-2.588416	0.197373	-0.024962
