14

C	-0.147644	0.015041	0.071805
C	-0.600539	-0.363674	-1.352886
Br	1.737363	0.660949	-0.057857
H	0.258636	-0.788922	-1.892781
H	-0.744882	0.855337	0.401647
C	-0.239334	-1.128722	1.05262
H	0.181322	-0.839054	2.017808
H	-1.309435	-1.314004	1.155792
H	0.277848	-2.023569	0.695383
C	-1.024965	0.82859	-2.091267
N	-1.247687	1.771639	-2.753633
C	-1.657644	-1.386707	-1.368545
N	-2.223026	-2.395451	-1.590241
F	-2.597039	0.167559	-0.057887
