18

C	0.0	0.0	0.0
C	-0.574521	0.110179	-1.421116
Cl	1.79496	0.0	0.0
H	-1.629843	0.384099	-1.273024
C	-0.367089	1.165904	0.818523
N	-0.593786	2.057197	1.549424
C	-0.495133	-1.26118	0.698796
H	-0.149624	-1.255204	1.733784
H	-1.589027	-1.251545	0.672554
H	-0.097584	-2.14613	0.200159
C	-0.458947	-1.15439	-2.239616
H	-0.758661	-0.951034	-3.267639
H	-1.14575	-1.894943	-1.830193
H	0.560105	-1.544321	-2.251312
N	0.077298	1.265266	-2.124429
O	-0.191738	2.389345	-1.70542
O	0.843757	1.026598	-3.058639
Cl	-3.659827	0.0	0.0
