18

C	0.0	0.0	0.0
C	-0.580864	0.100081	-1.419034
Cl	1.794882	0.0	0.0
H	-1.628972	0.398948	-1.270599
C	-0.361545	1.175157	0.809081
N	-0.581771	2.076884	1.528968
C	-0.495211	-1.252288	0.713998
H	-0.108844	-2.144031	0.218649
H	-0.138611	-1.240106	1.745399
H	-1.588885	-1.236667	0.699278
C	-0.502461	-1.179548	-2.218288
H	0.50364	-1.601106	-2.224055
H	-0.796798	-0.983134	-3.249115
H	-1.212979	-1.889651	-1.796401
N	0.094086	1.229955	-2.14319
O	0.845866	0.960016	-3.081177
O	-0.139739	2.365383	-1.734208
Cl	-3.657862	0.0	0.0
