18

C	0.0	0.0	0.0
C	-0.41681	0.380018	-1.444472
Cl	1.79741	0.0	0.0
H	-0.034341	1.382857	-1.641546
C	-0.39562	1.125049	0.854888
N	-0.680824	2.047257	1.524931
C	-0.579808	-1.295256	0.541909
H	-0.203251	-1.465503	1.552113
H	-1.670512	-1.199179	0.578753
H	-0.303035	-2.127855	-0.101191
C	-1.898236	0.272916	-1.726729
H	-2.507311	0.829986	-1.013853
H	-2.242926	-0.757608	-1.66661
H	-2.091609	0.651823	-2.734009
N	0.319998	-0.469958	-2.441677
O	0.173141	-1.688471	-2.38234
O	0.993123	0.12073	-3.285258
Cl	-4.67626	0.0	0.0
