18

C	0.0	0.0	0.0
C	-0.414486	-0.283219	-1.467945
Cl	1.796846	0.0	0.0
H	-0.02839	0.535531	-2.077256
C	-0.400326	1.381261	0.286311
N	-0.679266	2.500382	0.511686
C	-0.577111	-0.938031	1.04659
H	-1.668505	-0.848249	1.031664
H	-0.287185	-1.964081	0.831204
H	-0.20996	-0.648362	2.032703
C	-1.896207	-0.499344	-1.675995
H	-2.106008	-0.532187	-2.748291
H	-2.507777	0.283307	-1.223686
H	-2.229404	-1.430378	-1.221567
N	0.322518	-1.482212	-1.996142
O	0.157202	-2.558225	-1.424703
O	1.016241	-1.314295	-2.99829
Cl	-4.685918	0.0	0.0
