16

C	0.0	0.0	0.0
C	-0.347827	0.040058	-1.5042
F	1.35737	0.0	0.0
H	0.5502	-0.363254	-1.991678
C	-0.498267	1.11025	0.806457
N	-0.558836	2.09817	1.444601
N	-0.345018	-1.319533	0.656394
O	-0.242229	-2.310185	-0.060931
O	-0.527552	-1.321541	1.865847
C	-0.550842	1.489322	-1.954749
H	0.283203	2.11857	-1.635961
H	-1.476909	1.843685	-1.507401
H	-0.627533	1.52914	-3.044155
C	-1.462183	-0.778268	-1.984823
N	-2.192767	-1.390753	-2.674645
F	-2.253518	0.0	0.0
