16

C	0.0	0.0	0.0
C	-0.364647	0.167207	-1.49507
F	1.357138	0.0	0.0
H	0.554385	-0.118643	-2.025624
C	-0.500851	1.037903	0.895856
N	-0.544819	1.9623	1.62431
N	-0.341809	-1.368654	0.552596
O	-0.551754	-1.462245	1.753611
O	-0.213884	-2.301359	-0.23402
C	-0.681008	1.632142	-1.808325
H	-1.610955	1.882202	-1.299878
H	-0.797819	1.759719	-2.887523
H	0.125214	2.286299	-1.463616
C	-1.423379	-0.68384	-2.042218
N	-2.127611	-1.29309	-2.759841
F	-2.260085	0.0	0.0
