16

C	0.0	0.0	0.0
C	-0.367336	0.153816	-1.496664
F	1.357383	0.0	0.0
H	0.559631	-0.103597	-2.025478
C	-0.492226	1.053063	0.883952
N	-0.542005	1.989523	1.595581
N	-0.340318	-1.359806	0.574968
O	-0.20882	-2.305333	-0.195225
O	-0.547966	-1.434135	1.777158
C	-0.736079	1.604352	-1.818919
H	-1.671264	1.816484	-1.30526
H	0.044627	2.290394	-1.481792
H	-0.860568	1.720257	-2.897713
C	-1.401765	-0.730889	-2.038179
N	-2.107469	-1.361319	-2.735633
F	-2.262449	0.0	0.0
