16

C	0.0	0.0	0.0
C	-0.368141	0.248813	-1.482326
F	1.357762	0.0	0.0
H	0.559378	0.027952	-2.026416
C	-0.492802	0.991262	0.951939
N	-0.546282	1.877952	1.724607
N	-0.34061	-1.394353	0.48488
O	-0.213179	-2.287232	-0.34633
O	-0.549379	-1.546449	1.68037
C	-0.733859	1.717617	-1.711996
H	-1.668929	1.903829	-1.186952
H	0.052582	2.377479	-1.333851
H	-0.859779	1.900449	-2.78163
C	-1.400415	-0.599615	-2.082987
N	-2.104021	-1.172233	-2.830778
F	-2.260355	0.0	0.0
