16

C	0.0	0.0	0.0
C	-0.229189	0.223351	-1.546263
F	1.38175	0.0	0.0
H	-0.012397	1.295521	-1.645712
C	-0.512595	1.058927	0.855577
N	-0.594728	2.020841	1.528891
N	-0.384325	-1.364439	0.492969
O	-0.433259	-2.25524	-0.346433
O	-0.463484	-1.507942	1.706119
C	-1.517788	-0.066577	-2.321136
H	-2.329786	0.520089	-1.916378
H	-1.779057	-1.11676	-2.228583
H	-1.321403	0.171838	-3.373267
C	0.8552	-0.458467	-2.282907
N	1.649897	-0.975377	-2.973947
F	-2.249182	0.0	0.0
