16

C	0.0	0.0	0.0
C	-0.226546	0.068775	-1.563642
F	1.380873	0.0	0.0
H	-0.007244	1.126013	-1.768991
C	-0.51717	1.133051	0.749906
N	-0.588157	2.149903	1.34009
N	-0.38317	-1.309959	0.625067
O	-0.458006	-1.332157	1.847138
O	-0.436772	-2.279638	-0.122062
C	-1.516836	-0.295687	-2.30335
H	-1.790699	-1.326373	-2.093499
H	-1.320331	-0.178876	-3.376721
H	-2.324504	0.338694	-1.963995
C	0.857674	-0.684496	-2.225818
N	1.660873	-1.265151	-2.855479
F	-2.254168	0.0	0.0
