16

C	0.0	0.0	0.0
C	-0.365637	-0.111251	-1.496333
F	1.37193	0.0	0.0
H	0.535187	-0.532259	-1.961539
C	-0.482132	1.190188	0.693025
N	-0.565628	2.255487	1.184966
N	-0.323147	-1.251589	0.788837
O	-0.176847	-2.303689	0.176851
O	-0.521711	-1.136364	1.990677
C	-0.630929	1.275833	-2.080825
H	-0.767109	1.196175	-3.161506
H	0.210966	1.949648	-1.880787
H	-1.538295	1.661984	-1.621331
C	-1.461892	-1.012463	-1.858061
N	-2.158117	-1.744982	-2.459653
F	-2.258078	0.0	0.0
