16

C	0.0	0.0	0.0
C	-0.209945	0.217194	-1.549121
F	1.372435	0.0	0.0
H	0.148291	1.250675	-1.663766
C	-0.524567	1.061782	0.843994
N	-0.596812	2.02317	1.520781
N	-0.401033	-1.356962	0.503737
O	-0.447194	-1.489692	1.720539
O	-0.502255	-2.251064	-0.327071
C	-1.527216	0.090359	-2.312296
H	-1.311858	0.310695	-3.365838
H	-1.922442	-0.916848	-2.216026
H	-2.262225	0.770166	-1.900211
C	0.783151	-0.605093	-2.269002
N	1.521201	-1.222873	-2.942125
F	-2.258146	0.0	0.0
