16

C	0.0	0.0	0.0
C	-0.462824	0.134539	-1.476663
F	1.353709	0.0	0.0
H	-1.403463	0.685607	-1.384974
C	-0.459123	1.156846	0.780408
N	-0.551659	2.176273	1.358798
N	-0.370636	-1.269483	0.74547
O	-0.19735	-2.326324	0.147508
O	-0.642656	-1.158724	1.93225
C	-0.806818	-1.143526	-2.244598
H	0.024364	-1.845507	-2.301564
H	-1.102168	-0.854627	-3.25755
H	-1.656367	-1.595143	-1.738598
C	0.541164	0.912249	-2.212257
N	1.295263	1.536882	-2.862025
F	-2.372414	0.0	0.0
