15
Coordinates from ORCA-job run
  C   -0.47452274003813      0.06037700656801     -0.42671282890800
  C   0.90206899551944     -0.62919357534129     -0.29328118059552
  Cl  -0.80585873389218      0.30161364120722     -2.15012950231259
  H   0.87588827642197     -1.55256603702627     -0.87994989802555
  C   -0.58605991408685      1.35491031112019      0.33641826209440
  H   0.17075829788407      2.05296543830034     -0.02452911714140
  H   -1.57247739796123      1.78876961011616      0.18775710106533
  H   -0.43754361369530      1.17495519053168      1.40348131017179
  N   -1.52235267854255     -0.94476699374878      0.07055681531921
  O   -1.26230079301007     -2.13256500160196     -0.08816058878943
  O   -2.54963224020091     -0.47864222261636      0.54347872982865
  C   1.15947576180556     -0.96875746937714      1.10978663551850
  N   1.34216892545360     -1.22026631706272      2.24221705256921
  C   1.95798139050750      0.24508009875168     -0.80834219362471
  N   2.80240646383510      0.94908632017924     -1.22059059716989
