15
Coordinates from ORCA-job run
  C   -0.38406853772760      0.00123492345218     -0.35532871198376
  C   0.94960957576660     -0.30189060470495      0.36411724150748
  Cl  -0.22346497647828     -0.32922143481905     -2.07199502897839
  H   0.79149428530655     -0.13192922842844      1.43427833272834
  C   -0.86832652135279      1.41673032197469     -0.11267166787644
  H   -1.83168604826174      1.55549754287652     -0.60559905153646
  H   -0.15629270291957      2.13060928069339     -0.52799178675516
  H   -0.98160172292406      1.59093626704793      0.96000687687876
  N   -1.44097814657249     -0.93419355558350      0.25764819837997
  O   -1.31887805965926     -1.12454028132592      1.46466829032757
  O   -2.34346174280036     -1.33291395200881     -0.45878427310074
  C   1.99078484871758      0.61197582930760     -0.10941987130299
  N   2.80849476774562      1.37279877808368     -0.47116896523430
  C   1.34965653382591     -1.69977062098074      0.18387595371315
  N   1.65871844733390     -2.82432326558458      0.04936446323294
