15
Coordinates from ORCA-job run
  C   -0.39381147239435      0.15811974193157     -0.45534525912691
  C   1.10424852522148     -0.00951517068651     -0.12766839756681
  Cl  -0.54927400335216      0.37730934967244     -2.20366406263163
  H   1.58011814737934      0.91576526656647     -0.47819845640622
  C   -1.02889425609764      1.31232681556518      0.28912642671172
  H   -2.06621494319926      1.41407587210612     -0.02621076456423
  H   -0.49407997424397      2.23643184012473      0.06291483358194
  H   -0.99739603782919      1.12989288132690      1.36583113841100
  N   -1.15501627697851     -1.11461006017878     -0.07687939181249
  O   -0.50919556384010     -2.01962452760056      0.44181758016186
  O   -2.35724419648625     -1.10099627263186     -0.29587526013621
  C   1.73728944687290     -1.11981888681577     -0.84493415603626
  N   2.28794763419943     -1.96495103363228     -1.44518159355757
  C   1.33127646669954     -0.10373435032484      1.31754631804177
  N   1.51124650404874     -0.11067146542282      2.47772104493004
