12

C	0.0	0.0	0.0
C	-0.522238	0.278302	-1.398912
F	1.407326	0.0	0.0
H	-0.18617	1.259131	-1.745135
H	-0.331699	0.794939	0.669652
H	-1.620114	0.265026	-1.310526
N	-0.474867	-1.243396	0.467887
H	-0.367693	-1.348382	1.464503
H	-0.04796	-2.014414	-0.026567
C	-0.072015	-0.741574	-2.342095
N	0.27757	-1.580067	-3.085556
Cl	-3.789747	0.0	0.0
