12

C	0.0	0.0	0.0
C	-0.443261	0.302931	-1.433247
F	1.394815	0.0	0.0
H	-1.537757	0.366822	-1.419392
H	-0.332742	0.801824	0.661712
H	-0.144143	-0.532317	-2.076239
N	-0.482162	-1.237217	0.517202
H	-0.392554	-1.957686	-0.192208
H	-1.482113	-1.108885	0.684026
C	0.142921	1.531288	-1.963046
N	0.611522	2.517464	-2.3945
Cl	-3.550338	0.0	0.0
