12

C	0.0	0.0	0.0
C	-0.413215	0.121375	-1.464425
F	1.401543	0.0	0.0
H	-1.50255	0.236703	-1.500964
H	-0.287433	0.913846	0.528016
H	0.068495	1.002379	-1.898493
N	-0.490351	-1.16932	0.637833
H	-1.063078	-0.915182	1.429471
H	-1.112307	-1.675572	0.020476
C	-0.004536	-1.049959	-2.237846
N	0.305365	-1.99248	-2.865747
Cl	-3.571989	0.0	0.0
