12

C	0.0	0.0	0.0
C	-0.49485	0.251301	-1.41611
F	1.407421	0.0	0.0
H	-1.593846	0.23903	-1.358227
H	-0.334069	0.8116	0.647352
H	-0.150104	1.224868	-1.774072
N	-0.490743	-1.226091	0.487165
H	-0.060308	-2.019529	0.035735
H	-0.466196	-1.303279	1.490018
C	-0.01655	-0.785128	-2.326634
N	0.352483	-1.631357	-3.051471
Cl	-3.814293	0.0	0.0
