12

C	0.0	0.0	0.0
C	-0.257312	0.051709	-1.526724
F	1.389342	0.0	0.0
H	0.560164	0.667052	-1.915759
H	-0.324596	0.923429	0.490896
H	-0.083072	-0.966438	-1.892934
N	-0.494694	-1.201901	0.583655
H	-1.507601	-1.168666	0.416803
H	-0.381625	-1.135386	1.591302
C	-1.458531	0.592903	-2.166533
N	-2.225591	1.06274	-2.922174
Cl	-3.528328	0.0	0.0
