12

C	0.0	0.0	0.0
C	-0.500188	0.296992	-1.406776
F	1.407073	0.0	0.0
H	-0.161837	1.283941	-1.733612
H	-0.329653	0.788352	0.676706
H	-1.599852	0.280089	-1.355165
N	-0.489758	-1.24197	0.445775
H	-0.464324	-1.353726	1.444816
H	-0.058475	-2.020245	-0.031683
C	-0.022071	-0.70675	-2.353734
N	0.344201	-1.533185	-3.102402
Cl	-3.821329	0.0	0.0
