12

C	0.0	0.0	0.0
C	-0.442219	0.159282	-1.459789
F	1.387391	0.0	0.0
H	-1.538839	0.174018	-1.453939
H	-0.347572	0.874628	0.554474
H	-0.069621	1.104496	-1.866629
N	-0.471736	-1.167163	0.668001
H	-0.34883	-1.97667	0.067596
H	-1.476035	-1.037491	0.800632
C	0.049481	-0.937173	-2.288001
N	0.425826	-1.826588	-2.954717
Cl	-3.544772	0.0	0.0
