18
Coordinates from ORCA-job run
  C   0.59126124169867      0.07487909336464      0.52708936811521
  C   -0.70088617029733      0.08365884666900     -0.29938910892501
  Br  0.58204570331029     -1.39284349077556      1.80100493900343
  H   -0.59904179921588      0.96754692042867     -0.93789651415537
  C   1.86757328854649      0.01763934454208     -0.29220121631472
  H   2.73563325463740      0.16413427272771      0.35319967772487
  H   1.96276749063795     -0.95379805284704     -0.77538463058187
  H   1.84917308874572      0.80485991266848     -1.04806510028910
  N   0.60164527729694      1.40459047239272      1.29054705436509
  O   0.62968048750126      2.38371108001714      0.54902694541737
  O   0.59826616344653      1.42579240495555      2.50892257741263
  N   -1.81373186050935      0.34786428529507      0.60089725162226
  H   -2.08610156777636     -0.50014804485740      1.08472633813298
  H   -2.61266192627357      0.68069403913966      0.07624656390002
  C   -0.85834161593168     -1.14715056211299     -1.18811919139560
  H   -1.77231542185104     -1.03797915110766     -1.77737121615190
  H   -0.94776107176242     -2.05488914427982     -0.58792920726900
  H   -0.02720456220363     -1.27056222622026     -1.88630453061128
