18
Coordinates from ORCA-job run
  C   0.75188080833748     -0.12935304606465      0.38030527834135
  C   -0.45863308072419     -0.31118030282704     -0.55992519382691
  Br  1.31125332905277     -1.81724428418003      1.19019336683471
  H   -0.01074928468886     -0.71902826566533     -1.47358441590164
  C   1.93414627635641      0.48261746395564     -0.33996223729583
  H   2.24376306986387     -0.18862814630683     -1.14263257083832
  H   1.62165007965089      1.43879764651991     -0.76107812685613
  H   2.77000394718949      0.63506406633681      0.33844993221015
  N   0.37138561730311      0.76818050939638      1.55581421014581
  O   1.25720461887316      1.45137154210378      2.05376503781679
  O   -0.79424222303046      0.72951708216550      1.94114260576798
  N   -0.91411799494820      1.04483892671162     -0.87386204119495
  H   -1.64981404375960      1.31251170943286     -0.23062063922666
  H   -1.29086572631812      1.07534091408641     -1.81227379269537
  C   -1.57005380913903     -1.26770700197859     -0.13267861653668
  H   -2.02137358682378     -0.95582916718219      0.80737308767480
  H   -2.33818313225721     -1.25671463982037     -0.91091719979496
  H   -1.21325486493772     -2.29255500668389     -0.02950868462415
