18
Coordinates from ORCA-job run
  C   0.77806285825889     -0.06326349217293      0.34423483717437
  C   -0.45859986353036     -0.35645562596818     -0.53164753393655
  Br  1.50992332694111     -1.68703563511480      1.14781696981832
  H   -0.02500677394870     -0.74242425188040     -1.46156188808168
  C   1.87097287866608      0.62811606273303     -0.44203491971364
  H   2.72493183620133      0.85582600932442      0.19127533699654
  H   2.19232823759378     -0.02922917450582     -1.25159255553044
  H   1.46405131210954      1.55056772738252     -0.85761479446823
  N   0.38344898104546      0.82158980019669      1.52450222882077
  O   -0.75281874333084      0.69071452756857      1.97216066032353
  O   1.23115496782204      1.58845399427928      1.96359162941478
  N   -1.03605552884707      0.95409931732544     -0.83861637423849
  H   -1.45480024304581      0.94219955526711     -1.75942606451269
  H   -1.76167034942643      1.17044053553931     -0.16532762031922
  C   -1.46884483369283     -1.38991653291208     -0.03808786400417
  H   -1.02568515034653     -2.37992257106352      0.07029498171031
  H   -1.90447151152205     -1.09403943427546      0.91449964325868
  H   -2.26692140094760     -1.45872081172318     -0.78246667271219
