18
Coordinates from ORCA-job run
  C   0.67140044345999      0.04092343950500      0.42484033061047
  C   -0.74791719406863      0.06207838127767     -0.15581221878711
  Br  1.00281719569308     -1.62447634142229      1.37069534563822
  H   -0.82917576657102      1.05207837074874     -0.61703410081775
  C   1.77570108498593      0.26651764552343     -0.59143830206959
  H   2.73509927035451      0.38258526394940     -0.08390644775678
  H   1.56321265780316      1.17190680277813     -1.16279463039433
  H   1.84828388960476     -0.58529347464420     -1.26622322673752
  N   0.72631789219560      1.20556841715298      1.42119878472206
  O   0.54947114193570      2.29951595858832      0.89098836655102
  O   0.94315206076231      1.00660312764878      2.60366534681238
  N   -1.69215640865562      0.04234651048092      0.95216599256041
  H   -2.59664738518597      0.37350320337862      0.64121376904529
  H   -1.80676458637031     -0.90228370574117      1.30158136736906
  C   -0.97824368829019     -0.99874073689073     -1.22866161372897
  H   -0.28524116996961     -0.90504223566431     -2.06798279410484
  H   -0.88782185487211     -2.00373421526515     -0.81155420774394
  H   -1.99148758281158     -0.88405641140412     -1.62194176116811
