18
Coordinates from ORCA-job run
  C   0.79878707940857     -0.12992165997255      0.31652449903425
  C   -0.46692908393983     -0.38207621575990     -0.53451166546237
  Br  1.63079545130789     -1.82262666784044      0.81299333053845
  H   -0.08904820557993     -0.92437049878158     -1.41402090948615
  C   1.81990525577971      0.70563973199456     -0.42467382686673
  H   1.39357116151863      1.67873121328581     -0.66256775111315
  H   2.10456673261306      0.18266557242071     -1.34012944700514
  H   2.71103959314602      0.85830049275635      0.18280706439923
  N   0.39841323301169      0.57308002138349      1.60697756315960
  O   -0.31095123656718     -0.05129805936745      2.38816430477154
  O   0.78252794817701      1.72801727363620      1.75766280105701
  N   -1.00294075654061      0.93230623211688     -0.87840249358999
  H   -0.66278603247124      1.25682648713541     -1.77314249768629
  H   -2.01294693083763      0.91016169292806     -0.91189332168051
  C   -1.56134767200388     -1.22415778616624      0.10672290048516
  H   -2.07337178323076     -0.66000395812671      0.88653671008329
  H   -2.28566071063105     -1.49114108985008     -0.66780291693652
  H   -1.17462404316048     -2.14013278179253      0.54875565629831
