18
Coordinates from ORCA-job run
  C   0.77548233999718     -0.17957694915864      0.26619740678905
  C   -0.49131535790795     -0.45764391157467     -0.60758651554256
  Br  1.65909096031691     -1.86129474352018      0.67652354790636
  H   -0.13000639482231     -1.12661378104685     -1.39647246735600
  C   1.77764969478465      0.74391855580567     -0.39725143476337
  H   1.36419660167919      1.74759368422696     -0.48086138472225
  H   2.00781353554976      0.35962143481995     -1.39341370985829
  H   2.70315880983441      0.78895616145577      0.17786483808526
  N   0.27891855274872      0.45701417684618      1.55747228888413
  O   -0.08544799334925      1.62796504780010      1.43017306757710
  O   0.17292821213575     -0.21072869278206      2.57598044488441
  N   -1.05439054023164      0.70821604226233     -1.25577097586807
  H   -1.37112976166945      1.38297642970740     -0.56973122070405
  H   -0.38941354189791      1.16099319816159     -1.86885193435451
  C   -1.58888345558483     -1.16046416407697      0.17995788048978
  H   -1.21899887224150     -2.03648265845228      0.71186724198315
  H   -2.03597708096450     -0.47889258694437      0.90994151443031
  H   -2.37167570837724     -1.46455724352992     -0.51503858786045
