18
Coordinates from ORCA-job run
  C   0.87607289068243     -0.12630428513137      0.23976307129895
  C   -0.38684060986856     -0.64848839451135     -0.47980351676057
  Br  2.43288885470191     -1.08001240137627     -0.44311366001472
  H   -0.37631134495741     -1.73399553105379     -0.35390655365768
  C   1.10445703828302      1.35754551376447      0.10437613045677
  H   0.28658263455301      1.91390118566025      0.56519892958786
  H   2.03212163007945      1.65371950819406      0.59085460025297
  H   1.15777906260286      1.58744977310557     -0.95929004275635
  N   0.75771721321986     -0.52790519487707      1.70313516820044
  O   0.90808808833848      0.34811719826314      2.55097181468631
  O   0.47888118382741     -1.70077870422669      1.93139317324212
  N   -0.28933216912254     -0.29484546293660     -1.88968287640190
  H   -0.31270460685738     -1.11285984736487     -2.47989547556620
  H   -1.03893011894071      0.32514048897297     -2.16366548712877
  C   -1.65767248812057     -0.09269819699497      0.15972849661107
  H   -1.74238436427062      0.98422255498765     -0.00887185996559
  H   -1.70766597763121     -0.27918675948105      1.23370926135878
  H   -2.52274691651942     -0.57502144499405     -0.30090117344347
