18
Coordinates from ORCA-job run
  C   0.62335273211566      0.02769863700747      0.48529834495105
  C   -0.70528134476862     -0.00325993139763     -0.29040233978134
  Br  0.87044842865933     -1.58200162209783      1.52658484533652
  H   -0.66356941566273      0.88026062343817     -0.94022182679884
  C   1.84690775605136      0.27258142912318     -0.38210842469069
  H   1.70302317052030      1.18781283351694     -0.96185748331510
  H   2.73508097311366      0.37932481052026      0.24303493981435
  H   2.00529322576346     -0.56590681223873     -1.05945768526794
  N   0.54843787486768      1.22826829636591      1.43798782569776
  O   0.10047021409880      2.25068226068346      0.91849859701283
  O   0.98080199754489      1.13953741241883      2.57518613989796
  N   -1.80533277485832      0.07677996842321      0.66003439111819
  H   -2.60234183966376     -0.45390472004885      0.33640747375002
  H   -2.09148958558074      1.03733233033362      0.79481732577486
  C   -0.84900945349008     -1.23791637371054     -1.16759313938291
  H   -1.01855992597777     -2.12406567026216     -0.55454150546490
  H   -1.70738471657808     -1.10277913507868     -1.83098699425355
  H   0.02915268384499     -1.41144433699662     -1.79068048439830
