16

C	-0.532555	-0.023673	-1.444559
C	0.0	0.0	0.0
Br	0.087831	1.657389	-2.265711
H	1.093405	0.0	0.0
C	0.051388	-1.099243	-2.24279
N	0.419107	-1.938204	-2.97943
C	-2.05538	-0.059594	-1.532393
H	-2.475454	0.785149	-0.984521
H	-2.367756	0.00484	-2.575585
H	-2.420162	-0.996808	-1.109904
N	-0.377403	-1.248393	0.762412
O	-0.687268	-2.243403	0.110888
O	-0.282662	-1.189473	1.982232
C	-0.515341	1.142581	0.739654
N	-0.960696	2.057108	1.328372
Br	3.270633	0.0	0.0
