16

C	-0.413443	-0.083182	-1.484994
C	0.0	0.0	0.0
Br	-2.35009	-0.488854	-1.61595
H	1.094261	0.0	0.0
C	-0.241627	1.243585	-2.073467
N	-0.098078	2.29815	-2.572866
C	0.387725	-1.098297	-2.295871
H	0.150187	-2.11105	-1.982543
H	1.449739	-0.907411	-2.109705
H	0.157572	-0.972703	-3.355102
N	-0.41382	-1.227436	0.765193
O	-0.039636	-2.301444	0.309426
O	-1.062344	-1.073566	1.795751
C	-0.531097	1.183467	0.656463
N	-0.930595	2.158391	1.176536
Br	3.303435	0.0	0.0
