16

C	-0.415661	-0.117108	-1.483123
C	0.0	0.0	0.0
Br	-2.341465	-0.575409	-1.603338
H	1.094385	0.0	0.0
C	-0.283597	1.20403	-2.095625
N	-0.173025	2.259424	-2.602226
C	0.41184	-1.124326	-2.275657
H	1.468081	-0.892328	-2.104044
H	0.167038	-1.035601	-3.335123
H	0.214918	-2.135987	-1.93252
N	-0.407334	-1.217983	0.784711
O	-1.088232	-1.055979	1.792493
O	0.003054	-2.29319	0.362766
C	-0.538672	1.190485	0.636858
N	-0.940867	2.170732	1.144992
Br	3.30847	0.0	0.0
