16

C	-0.459951	0.010852	-1.467972
C	0.0	0.0	0.0
Br	0.077606	-1.681693	-2.305151
H	1.09223	0.0	0.0
C	-1.909826	0.113188	-1.614464
N	-3.060123	0.270687	-1.793936
C	0.234192	1.176151	-2.16949
H	-0.11249	2.119205	-1.738259
H	-0.007119	1.160986	-3.232272
H	1.310868	1.082502	-2.02077
N	-0.518322	-1.215516	0.724306
O	-1.741167	-1.28771	0.85504
O	0.305526	-2.026639	1.123158
C	-0.501246	1.185819	0.68639
N	-0.884241	2.158293	1.223159
Br	3.373898	0.0	0.0
