16

C	-0.436554	0.022284	-1.479999
C	0.0	0.0	0.0
Br	0.049186	-1.694329	-2.29647
H	1.092237	0.0	0.0
C	-1.878145	0.18924	-1.656151
N	-3.019304	0.385928	-1.862248
C	0.33492	1.136915	-2.18662
H	0.112237	1.123257	-3.254351
H	0.035267	2.10344	-1.771787
H	1.40418	0.984443	-2.016049
N	-0.543874	-1.206352	0.714094
O	-1.764514	-1.235036	0.870884
O	0.253929	-2.065591	1.062251
C	-0.498988	1.192364	0.674357
N	-0.882299	2.175302	1.192058
Br	3.374476	0.0	0.0
