15

C	0.0	0.0	0.0
C	-0.454945	-0.030881	-1.514833
Cl	1.784294	0.0	0.0
H	0.463076	-0.053047	-2.107681
C	-0.42022	1.206226	0.722288
N	-0.581971	2.17314	1.3694
C	-0.415988	-1.180436	0.766945
N	-0.599832	-2.120044	1.4474
N	-1.132957	1.22214	-1.7951
H	-2.004737	1.126931	-1.256078
H	-1.343048	1.25249	-2.78705
N	-1.155094	-1.281981	-1.747232
H	-1.386486	-1.3271	-2.73461
H	-2.016444	-1.154376	-1.195629
F	-2.566925	0.0	0.0
