15

C	0.0	0.0	0.0
C	-0.253635	-0.070906	-1.621031
Cl	1.797185	0.0	0.0
H	0.586148	0.5251	-2.006336
C	-0.449056	1.287309	0.51408
N	-0.621358	2.406801	0.830467
C	-0.490168	-1.145989	0.74992
N	-0.630881	-2.114008	1.402815
N	-1.452418	0.458224	-2.173526
H	-1.379189	1.469369	-2.167123
H	-2.181078	0.216284	-1.453231
N	-0.161109	-1.478407	-1.960982
H	-0.512762	-1.56391	-2.905363
H	0.797511	-1.801127	-1.922561
F	-2.480318	0.0	0.0
