15

C	0.0	0.0	0.0
C	-0.519736	-0.416404	-1.446746
Cl	1.786634	0.0	0.0
H	-1.290089	-1.157847	-1.243635
C	-0.437861	1.327859	0.437366
N	-0.579685	2.420342	0.846427
C	-0.415644	-1.012951	0.976476
N	-0.563987	-1.87884	1.756977
N	0.521374	-1.038298	-2.235581
H	0.075855	-1.580638	-2.965144
H	1.083051	-0.315345	-2.672539
N	-1.078946	0.781848	-2.055523
H	-1.909485	0.911844	-1.459295
H	-1.412931	0.51196	-2.977358
F	-2.480809	0.0	0.0
