15

C	0.0	0.0	0.0
C	-0.424684	-0.032249	-1.490396
Cl	1.801863	0.0	0.0
H	-1.519402	-0.031333	-1.366141
C	-0.448335	1.223355	0.666725
N	-0.582667	2.227624	1.263168
C	-0.45157	-1.192674	0.718256
N	-0.592312	-2.186258	1.330202
N	0.018389	-1.290415	-2.070236
H	-0.568765	-1.511278	-2.86354
H	0.979134	-1.225692	-2.387396
N	0.014601	1.201852	-2.121113
H	0.97823	1.129724	-2.427974
H	-0.568497	1.384546	-2.926996
F	-2.481572	0.0	0.0
