16

C	-0.313833	-0.011923	-1.481753
C	0.0	0.0	0.0
Br	-2.273324	-0.158047	-1.822223
H	1.095226	0.0	0.0
C	0.202068	1.28815	-2.091177
H	1.261538	1.363016	-1.820856
H	0.091932	1.265127	-3.175338
H	-0.341492	2.141347	-1.685775
C	0.306222	-1.13094	-2.195659
N	0.752695	-1.929065	-2.935165
N	-0.388295	-1.191565	0.731706
O	-0.542864	-1.086208	1.955563
O	-0.39597	-2.258916	0.105635
C	-0.468249	1.191415	0.662523
N	-0.776771	2.206816	1.171776
H	2.371687	0.0	0.0
