16

C	-0.436772	-0.006183	-1.466051
C	0.0	0.0	0.0
Br	0.664997	-1.252382	-2.557053
H	1.091936	0.0	0.0
C	-1.906214	-0.352369	-1.690842
H	-2.526825	0.362248	-1.143909
H	-2.097232	-1.360231	-1.329908
H	-2.144726	-0.293752	-2.754825
C	-0.157147	1.314824	-2.03596
N	-0.023456	2.362347	-2.556045
N	-0.382529	-1.163515	0.756294
O	-0.354856	-1.05091	1.994658
O	-0.533814	-2.24193	0.152838
C	-0.433591	1.20025	0.675425
N	-0.739645	2.220941	1.177397
H	2.308234	0.0	0.0
