16

C	-0.334959	0.000741	-1.475667
C	0.0	0.0	0.0
Br	-2.303141	-0.111709	-1.793083
H	1.095202	0.0	0.0
C	0.190717	1.295319	-2.089657
H	1.256885	1.354534	-1.839249
H	-0.333415	2.15449	-1.670663
H	0.05946	1.280717	-3.172069
C	0.259112	-1.125257	-2.198332
N	0.73704	-1.927434	-2.913165
N	-0.387005	-1.191334	0.734476
O	-0.495727	-2.245404	0.09559
O	-0.441215	-1.099545	1.967474
C	-0.451358	1.19069	0.677251
N	-0.750537	2.209609	1.184913
H	2.374298	0.0	0.0
