12

C	0.033178	0.020442	-9.5e-05
C	-0.55048	-0.096886	-1.397971
Cl	1.870183	-0.228071	-0.067393
H	-0.304563	-1.084529	-1.796085
H	-0.037666	1.059135	0.343505
H	-1.654003	-0.060988	-1.212251
N	-0.577106	-0.956408	0.823778
H	-1.612031	-0.871471	0.598496
H	-0.421146	-0.720192	1.796631
C	-0.096294	0.938721	-2.310013
N	0.249143	1.779542	-3.054266
F	-2.92746	-0.370973	-0.092485
