12

C	0.000491	0.017909	0.000651
C	-0.52785	0.255936	-1.415827
Cl	1.823918	-0.089566	-0.037714
H	-1.630173	0.245728	-1.23216
H	-0.229218	0.892082	0.609863
H	-0.253087	-0.592206	-2.051235
N	-0.561406	-1.134552	0.629772
H	-0.378652	-1.934726	0.029135
H	-1.593744	-0.91763	0.543868
C	-0.076721	1.493876	-2.03154
N	0.275307	2.500373	-2.525418
F	-2.865443	-0.155311	-0.059908
