12

C	-0.000162	0.019587	-0.000747
C	-0.527504	0.343627	-1.400329
Cl	1.82323	-0.089309	-0.04502
H	-0.254119	-0.46501	-2.085838
H	-0.229124	0.85547	0.660274
H	-1.629792	0.32414	-1.217376
N	-0.564402	-1.167899	0.557486
H	-1.596237	-0.943929	0.484544
H	-0.383144	-1.930383	-0.090782
C	-0.07392	1.61568	-1.940028
N	0.280924	2.649308	-2.371956
F	-2.866408	-0.143617	-0.071627
