14
Coordinates from ORCA-job run
  C   0.46810171127093     -0.71845638284137      0.02876311940826
  C   -0.86290224798842      0.03000015300460     -0.08108998718379
  Cl  0.11838888438661     -2.45277984355502      0.04671035818129
  H   -1.36757277794254     -0.28513466792145     -0.99787849965050
  N   1.29253799869497     -0.45277938144019     -1.25153528102689
  O   2.50315092401508     -0.44940972899221     -1.12455282127112
  O   0.63659042660192     -0.32957002132467     -2.27417166235599
  C   1.23915673373999     -0.34368387306033      1.20055740014068
  N   1.81847116214907     -0.06482122998520      2.18522631310201
  N   -0.63752169354803      1.53040688483478     -0.23771428557432
  O   -1.65448689585147      2.19806090408763     -0.33034596375594
  O   0.52364477113350      1.91710298329255     -0.27763915294398
  C   -1.70147701881104     -0.19560031794097      1.08557632731863
  N   -2.37608197785056     -0.38333547815818      2.02909413561165
