14
Coordinates from ORCA-job run
  C   0.33159609514631     -0.80064993250171      0.08529418424291
  C   -0.87260011714988      0.14991214886442     -0.01272913795827
  Cl  -0.27408008297022     -2.44502478734136      0.26993677780680
  H   -1.50040348274669     -0.18145431596938     -0.84191420717674
  N   1.06285430257192     -0.70699311466958     -1.28211503176563
  O   2.24981396187660     -0.42121536784789     -1.25484728772216
  O   0.35602280813128     -0.92183701125873     -2.25337619825839
  C   1.25412354689627     -0.47576733925588      1.15776507203746
  N   1.97669050735920     -0.25833608874219      2.06010114564756
  N   -0.37723897211403      1.54090982099938     -0.38208945546632
  O   -0.67090519980915      1.92854498428267     -1.50685952087872
  O   0.27541970226312      2.12770335123279      0.47151554022012
  C   -1.60177158935908      0.21002442660593      1.24234193267628
  N   -2.20952148009567      0.25418322560151      2.24697618659511
