14
Coordinates from ORCA-job run
  C   0.46995893120725     -0.71111832068325      0.09451311981248
  C   -0.86100492930960      0.01822559540483     -0.10567972273589
  Cl  0.12708539288168     -2.44156238541579      0.23493415851388
  H   -1.34133407789629     -0.36988229726250     -1.00732004452642
  N   1.32706091897069     -0.53802311032675     -1.17974380967874
  O   0.69842206196978     -0.47933064934846     -2.22481078269959
  O   2.53420637960567     -0.53388829942335     -1.02217729479481
  C   1.20871410381932     -0.24494291752530      1.25448129869227
  N   1.76034041043884      0.10712959450449      2.23146670091880
  N   -0.63887998627742      1.50331384978454     -0.37190445870792
  O   0.52083242397583      1.89502060603803     -0.40727933008329
  O   -1.65625083412140      2.15393884530463     -0.54655201455517
  C   -1.72674794107645     -0.12131642339816      1.05475058658974
  N   -2.42240285418790     -0.23856408765298      1.99432159325466
