14
Coordinates from ORCA-job run
  C   0.40702441380012     -0.63575651233319     -0.16387352474908
  C   -0.45345228725041      0.59885171269121      0.17297524433388
  Cl  -0.06151562432132     -1.35066873696048     -1.68221383706601
  H   -0.14875924762767      0.97331714121125      1.15311254239319
  N   1.87277799112681     -0.06785087749656     -0.24229553336795
  O   2.23678897423924      0.44241663410725      0.80705702998425
  O   2.47637708149658     -0.17026505620602     -1.28985140363493
  C   0.41124150097956     -1.61773203632467      0.90986051631655
  N   0.45080506869692     -2.42896493159512      1.76073841413513
  N   -1.90218062160052      0.16622034361361      0.31628970015603
  O   -2.15463093800459     -0.41107872618842      1.36720069148742
  O   -2.66354008633332      0.41120841866141     -0.60828525788963
  C   -0.31422456113513      1.62420620363235     -0.84802152144846
  N   -0.15871166406628      2.46609642318742     -1.65269306065040
