14
Coordinates from ORCA-job run
  C   0.45255972092988     -0.72001007357648      0.10091768239828
  C   -0.86674011587509      0.04791352099105     -0.01621532498411
  Cl  0.06823112745036     -2.41939914287574      0.40912653971347
  H   -1.45204684157985     -0.38324757666316     -0.83231283168637
  N   1.17440529147334     -0.67722838566576     -1.26553821084647
  O   0.43869915043975     -0.68062678339212     -2.24018308684410
  O   2.39106768850083     -0.70353907248453     -1.23600516523889
  C   1.32566680927602     -0.20138513131567      1.13865329214055
  N   2.00246194701049      0.19015907461108      2.01697607440958
  N   -0.62267153707056      1.49959664069360     -0.41575620244666
  O   -1.62876596625814      2.18044342771159     -0.52879757207541
  O   0.53946464303951      1.83561977860136     -0.60609573639997
  C   -1.60975517265736      0.02726275802801      1.23378892566499
  N   -2.21357674467919      0.00544096533671      2.24144161619506
