14
Coordinates from ORCA-job run
  C   0.40492746855478     -0.62447237925400     -0.21029698737222
  C   -0.45073260511943      0.58515012731340      0.21674258213196
  Cl  -0.06992875069420     -1.22644963969159     -1.77506244247899
  H   -0.14455880906969      0.88656927659149      1.22132961950858
  N   1.87207364251304     -0.05700810260209     -0.25182119503828
  O   2.47251075944030     -0.08488615924555     -1.30585700343964
  O   2.24047714935462      0.37552194126878      0.83046675229010
  C   0.40865561846400     -1.68094916818023      0.79025239773503
  N   0.44696996820307     -2.54332341566818      1.58932855816862
  N   -1.90151529319192      0.14869557353289      0.32934011887483
  O   -2.15486955631607     -0.50617257930499      1.33339367224007
  O   -2.66311234532571      0.46682880711523     -0.57249058203771
  C   -0.30880148978852      1.68188738614648     -0.72687124874317
  N   -0.15209575702426      2.57960833197834     -1.46845424183918
