14
Coordinates from ORCA-job run
  C   0.40561892840245     -0.78547168574141     -0.09570726405310
  C   -0.80120805531038      0.06906563785942      0.34529704027691
  Cl  -0.14305617502773     -2.04496379562725     -1.17934682129867
  H   -1.53511941434934     -0.60476849668788      0.79412471915330
  N   1.47336129914908      0.12185480607183     -0.80170025369876
  O   2.01279074820101      0.90103203293540     -0.03289650116741
  O   1.65310838997968     -0.02787713168805     -1.99194157143248
  C   1.04550313059290     -1.34954171144112      1.08290865612628
  N   1.51517171379268     -1.82652149545999      2.05029266508232
  N   -1.47724938612028      0.66313597872239     -0.87640741579176
  O   -2.62453998286525      0.29648808239466     -1.09013731758965
  O   -0.80302833085957      1.45226196056457     -1.52609247925296
  C   -0.46058553380270      1.13995020060741      1.27050398908173
  N   -0.26076733178257      1.99535561749015      2.05110255456422
