14
Coordinates from ORCA-job run
  C   0.38823173274347     -0.79498427875694     -0.09732579444739
  C   -0.80308555644367      0.08477959339824      0.33724832592118
  Cl  -0.17891534313987     -2.03141512352003     -1.19838981829641
  H   -1.55724730750879     -0.57546698348283      0.77249911770433
  N   1.48526913634173      0.09120456372987     -0.78251661839590
  O   1.67624997087348     -0.05247126424904     -1.97177649099046
  O   2.03391621987348      0.85068257458133     -0.00029892284274
  C   0.99967935822295     -1.38474711836331      1.08387915694754
  N   1.44711972715230     -1.87592816210356      2.05467816513013
  N   -1.45086601138629      0.70414701653200     -0.88719193252662
  O   -2.60393247781491      0.36675330620632     -1.11713582199470
  O   -0.75050141737073      1.48215369399291     -1.52258579655227
  C   -0.44828177014582      1.14073299774193      1.27417637928965
  N   -0.23763626139734      1.99355918429315      2.05474005105372
