14
Coordinates from ORCA-job run
  C   0.41836333917044     -0.56760915791314     -0.31548368789836
  C   -0.46591774788953      0.53145304663686      0.30776389611497
  Cl  0.13149345998335     -0.72896487457102     -2.02666830057442
  H   -0.28098995856927      0.55248937802216      1.38438886369073
  N   1.88780820535398     -0.07564890955992     -0.03915035524364
  O   2.12588438780386      0.04939411577325      1.15314251900757
  O   2.61289910584417      0.13829342831634     -0.98810467647975
  C   0.28400764076684     -1.84342968904796      0.37105290177725
  N   0.21428773530261     -2.88660497005696      0.91014736391838
  N   -1.92530459834732      0.14663301695252      0.13584107305713
  O   -2.56643759074198      0.71843904866201     -0.73382951619136
  O   -2.30833317004803     -0.73117927117493      0.90006577088717
  C   -0.19281769463653      1.82428984038947     -0.29804433110958
  N   0.06305688600744      2.87244499757134     -0.76312152095609
