16

C	-0.456111	-0.005539	-1.469941
C	0.0	0.0	0.0
Cl	0.007126	-1.578994	-2.206434
H	1.090763	0.0	0.0
H	0.132027	0.745131	-1.994745
C	-1.944485	0.204357	-1.684562
H	-2.19561	0.146711	-2.746042
H	-2.239654	1.188225	-1.312764
H	-2.527271	-0.558708	-1.161675
N	-0.447268	-1.061724	0.837296
H	-1.356632	-1.433464	0.594569
H	0.251318	-1.790336	0.799513
N	-0.498827	1.315099	0.515724
O	-0.121148	2.320451	-0.092927
O	-1.289117	1.348211	1.459334
F	2.562715	0.0	0.0
