16

C	-0.247595	0.018195	-1.497441
C	0.0	0.0	0.0
Cl	-2.028362	0.029457	-1.913107
H	1.09228	0.0	0.0
H	0.099832	-0.960769	-1.832719
C	0.504336	1.097757	-2.243247
H	0.094615	2.085925	-2.039786
H	1.529041	1.043955	-1.856236
H	0.480715	0.909083	-3.320553
N	-0.47335	-1.147162	0.706875
H	0.2521	-1.850399	0.679344
H	-1.347811	-1.505181	0.345666
N	-0.553966	1.24104	0.613311
O	-1.559654	1.156229	1.319415
O	0.015146	2.302161	0.349988
F	2.594442	0.0	0.0
