16

C	-0.449414	-0.012507	-1.462894
C	0.0	0.0	0.0
Cl	-0.386001	1.62667	-2.209135
H	1.096974	0.0	0.0
H	-1.49691	-0.320893	-1.540195
C	0.504128	-0.938156	-2.201507
H	0.366395	-0.877726	-3.283458
H	1.521059	-0.662945	-1.905996
H	0.320716	-1.960453	-1.866357
N	-0.463612	-1.220311	0.604121
H	-1.406338	-1.104735	0.956865
H	0.163708	-1.457457	1.361957
N	-0.583787	1.202016	0.69763
O	0.116817	2.192636	0.870789
O	-1.772067	1.123827	1.043926
F	2.632001	0.0	0.0
