16

C	-0.253481	0.012418	-1.49831
C	0.0	0.0	0.0
Cl	-2.032752	0.013493	-1.903988
H	1.092232	0.0	0.0
H	0.10027	-0.963934	-1.834589
C	0.48919	1.095811	-2.250024
H	0.07237	2.080265	-2.047426
H	0.458194	0.901972	-3.32452
H	1.514276	1.053492	-1.871718
N	-0.467611	-1.149396	0.707843
H	-1.329484	-1.524334	0.337973
H	0.267842	-1.839413	0.698418
N	-0.552666	1.240504	0.620676
O	-1.53424	1.15335	1.36192
O	-0.001908	2.307356	0.331433
F	2.59212	0.0	0.0
