16

C	-0.558762	0.005966	-1.418904
C	0.0	0.0	0.0
Cl	0.091819	-1.411044	-2.303392
H	1.090638	0.0	0.0
H	-0.164665	0.876433	-1.938879
C	-2.073661	-0.041984	-1.470624
H	-2.492723	0.840802	-0.977955
H	-2.423971	-0.941346	-0.961389
H	-2.432013	-0.061593	-2.502074
N	-0.45847	-1.110969	0.780798
H	-1.212881	-0.833813	1.394504
H	0.320414	-1.406245	1.353056
N	-0.408823	1.314033	0.600631
O	-0.945818	1.327298	1.714896
O	-0.187333	2.335585	-0.051495
F	2.546884	0.0	0.0
