16

C	-0.571391	-0.021955	-1.41279
C	0.0	0.0	0.0
Cl	0.069473	-1.460927	-2.272332
H	1.090619	0.0	0.0
H	-0.182228	0.835773	-1.956395
C	-2.086828	-0.069449	-1.446143
H	-2.498031	0.829864	-0.976376
H	-2.457317	-0.120556	-2.472697
H	-2.432605	-0.952232	-0.90504
N	-0.44504	-1.101447	0.80576
H	-1.160851	-0.805481	1.457001
H	0.356556	-1.408275	1.342696
N	-0.394563	1.31908	0.593018
O	-0.248424	2.327985	-0.102234
O	-0.824247	1.352328	1.751477
F	2.545926	0.0	0.0
