16

C	-0.47455	-0.001755	-1.455986
C	0.0	0.0	0.0
Cl	0.010002	-1.563313	-2.211992
H	1.090743	0.0	0.0
H	0.086043	0.76113	-1.990378
C	-1.970767	0.182467	-1.648766
H	-2.233828	0.125324	-2.70729
H	-2.537434	-0.589454	-1.120613
H	-2.269472	1.1625	-1.269664
N	-0.443389	-1.07466	0.823822
H	0.346373	-1.684184	0.972661
H	-1.213713	-1.600351	0.438216
N	-0.443393	1.326044	0.561615
O	-0.22327	2.313073	-0.151882
O	-0.959923	1.394295	1.674145
F	2.562091	0.0	0.0
