11

C	0.0	0.0	0.0
C	-0.192985	-0.018974	-1.549425
Cl	1.784029	0.0	0.0
H	0.529645	0.685957	-1.954752
H	-0.403032	0.892534	0.486925
H	0.174016	-1.003726	-1.875792
C	-0.447934	-1.22256	0.682246
N	-0.630855	-2.173815	1.349974
C	-1.442753	0.236471	-2.280893
N	-2.200787	0.239015	-3.190352
Br	-3.239681	0.0	0.0
