11

C	0.0	0.0	0.0
C	-0.45169	0.076088	-1.465048
Cl	1.782542	0.0	0.0
H	-1.548003	0.00456	-1.470863
H	-0.38119	0.843487	0.572605
H	-0.016159	-0.765826	-2.01102
C	-0.420093	-1.268538	0.600331
N	-0.559891	-2.343615	1.051373
C	-0.015156	1.316791	-2.095815
N	0.35068	2.306348	-2.609726
Br	-3.452426	0.0	0.0
