11

C	0.0	0.0	0.0
C	-0.507073	-0.18852	-1.429456
Cl	1.783288	0.0	0.0
H	-1.607342	-0.198331	-1.369808
H	-0.366488	0.947633	0.393285
H	-0.185562	0.666293	-2.030747
C	-0.410721	-1.09909	0.87817
N	-0.633702	-2.024677	1.564798
C	-0.005262	-1.415057	-2.038784
N	0.394235	-2.393866	-2.549659
Br	-3.555749	0.0	0.0
