11

C	0.0	0.0	0.0
C	-0.525308	-0.406204	-1.375407
Cl	1.781448	0.0	0.0
H	-1.62638	-0.39727	-1.298667
H	-0.359082	1.001704	0.235146
H	-0.211267	0.344784	-2.106128
C	-0.412463	-0.925717	1.058482
N	-0.59796	-1.677039	1.941444
C	-0.04373	-1.715062	-1.800699
N	0.338479	-2.762699	-2.168108
Br	-3.583255	0.0	0.0
