11

C	0.0	0.0	0.0
C	-0.483481	-0.122707	-1.445871
Cl	1.780845	0.0	0.0
H	-1.570587	0.028673	-1.433942
H	-0.347045	0.946	0.42131
H	-0.009008	0.677537	-2.02027
C	-0.422559	-1.099255	0.867647
N	-0.567588	-2.007301	1.595769
C	-0.144705	-1.421886	-2.032956
N	0.091576	-2.478054	-2.48838
Br	-3.474693	0.0	0.0
