19

C	-0.526916	0.000121	-1.438703
C	0.0	0.0	0.0
Cl	0.207169	1.379784	-2.371454
H	1.096204	0.0	0.0
C	-0.120529	-1.224183	-2.13791
N	0.144836	-2.235907	-2.675456
C	-2.042852	0.151963	-1.559371
H	-2.34576	0.13298	-2.609127
H	-2.351813	1.101217	-1.123252
H	-2.540517	-0.666624	-1.032652
C	-0.402678	-1.276015	0.736464
H	0.105465	-1.271246	1.706806
H	-1.482708	-1.354968	0.917725
H	-0.061857	-2.170779	0.209501
C	-0.443157	1.229076	0.782455
H	0.166684	1.282058	1.690266
H	-1.498659	1.193506	1.08025
H	-0.261357	2.150124	0.225337
H	2.892724	0.0	0.0
