19

C	-0.507294	-0.015134	-1.441136
C	0.0	0.0	0.0
Cl	0.220587	1.353348	-2.381753
H	1.096313	0.0	0.0
C	-0.090568	-1.245667	-2.125878
N	0.172756	-2.259508	-2.66058
C	-2.025189	0.125554	-1.578712
H	-2.340258	1.081536	-1.159575
H	-2.320057	0.090072	-2.629258
H	-2.525013	-0.683307	-1.042204
C	-0.405152	-1.269948	0.743437
H	-0.058424	-2.168362	0.227203
H	-1.48637	-1.350995	0.915688
H	0.093343	-1.255452	1.717703
C	-0.458192	1.232579	0.770725
H	-1.522581	1.203519	1.036598
H	0.121659	1.281445	1.69704
H	-0.255814	2.15188	0.218981
H	2.901966	0.0	0.0
