19

C	-0.392586	0.060257	-1.484127
C	0.0	0.0	0.0
Cl	-0.01956	-1.517144	-2.303321
H	1.097384	0.0	0.0
C	-1.836565	0.262734	-1.652373
N	-2.989335	0.472166	-1.753927
C	0.409909	1.132066	-2.218837
H	0.25234	1.059648	-3.2968
H	0.10373	2.12581	-1.886831
H	1.463995	0.974332	-1.966283
C	-0.541106	-1.217596	0.732274
H	-0.222746	-1.167419	1.777259
H	-1.637605	-1.258919	0.710025
H	-0.144523	-2.143654	0.315757
C	-0.434053	1.279319	0.716103
H	-1.523696	1.40127	0.740998
H	-0.070298	1.229688	1.746195
H	0.014241	2.170375	0.272973
H	2.964744	0.0	0.0
