19

C	-0.319979	-0.067129	-1.489485
C	0.0	0.0	0.0
Cl	-2.109792	-0.402324	-1.80446
H	1.099253	0.0	0.0
C	-0.07422	1.225288	-2.136954
N	0.116596	2.247301	-2.68454
C	0.508636	-1.133613	-2.191542
H	1.555765	-0.956123	-1.908118
H	0.210655	-2.124694	-1.849863
H	0.37839	-1.08105	-3.274757
C	-0.429055	-1.250203	0.756851
H	-1.518314	-1.333896	0.838322
H	-0.038096	-2.162167	0.300293
H	-0.005041	-1.198124	1.764259
C	-0.519569	1.256597	0.67862
H	-1.614269	1.31403	0.65139
H	-0.107931	2.157568	0.217764
H	-0.199926	1.253252	1.724587
H	2.89213	0.0	0.0
