19

C	0.0	0.0	0.0
C	-0.297968	-0.140445	-1.527134
Cl	1.805768	0.0	0.0
H	0.119566	0.753088	-1.99801
N	-0.490897	1.248292	0.511093
H	-1.496726	1.164502	0.654851
H	-0.317554	2.004088	-0.14233
C	-0.533632	-1.120465	0.863887
H	-0.157113	-2.08626	0.536178
H	-0.232672	-0.931091	1.895645
H	-1.627167	-1.112601	0.803286
C	-1.741773	-0.341675	-1.924665
H	-2.388428	0.436621	-1.528623
H	-2.136495	-1.279714	-1.541898
H	-1.808268	-0.34317	-3.017121
N	0.485284	-1.248694	-2.174954
O	1.229812	-0.942083	-3.106764
O	0.29881	-2.39804	-1.779502
Cl	-4.310309	0.0	0.0
