19

C	0.0	0.0	0.0
C	-0.297183	-0.165367	-1.524914
Cl	1.805782	0.0	0.0
H	0.103497	0.729282	-2.008455
N	-0.498999	1.250793	0.493556
H	-1.504592	1.16018	0.637212
H	-0.331475	1.998661	-0.170275
C	-0.525707	-1.114261	0.878518
H	-1.619534	-1.117657	0.823571
H	-0.141593	-2.080458	0.561089
H	-0.222535	-0.911417	1.907146
C	-1.737589	-0.397945	-1.917699
H	-2.109701	-1.344195	-1.530296
H	-1.806524	-0.403885	-3.009957
H	-2.400903	0.366993	-1.521588
N	0.503087	-1.267936	-2.162203
O	1.234728	-0.960385	-3.103734
O	0.341782	-2.414648	-1.749418
Cl	-4.308874	0.0	0.0
