19

C	0.0	0.0	0.0
C	-0.22801	0.006793	-1.55187
Cl	1.870159	0.0	0.0
H	0.557161	-0.606273	-1.994002
N	-0.52525	1.145621	0.601599
H	-0.038062	2.007644	0.427046
H	-0.814325	1.031878	1.558983
C	-0.478392	-1.240298	0.718602
H	-0.094595	-2.144806	0.256257
H	-1.572977	-1.238104	0.683847
H	-0.136765	-1.19184	1.756181
C	-0.214332	1.407608	-2.122981
H	-0.225768	1.37677	-3.211946
H	-1.097594	1.944349	-1.780727
H	0.692183	1.926636	-1.803507
N	-1.460456	-0.731684	-2.05066
O	-1.491385	-1.936676	-1.811076
O	-2.241292	-0.13329	-2.776693
Cl	-3.935499	0.0	0.0
