19

C	0.0	0.0	0.0
C	-0.542177	0.065972	-1.437893
Cl	1.800881	0.0	0.0
H	-1.625303	0.195445	-1.323364
N	-0.438609	1.189543	0.688302
H	-1.457963	1.218913	0.607032
H	-0.212508	1.095579	1.672966
C	-0.440428	-1.301042	0.663396
H	-0.108439	-1.286562	1.705056
H	-1.532644	-1.340849	0.634542
H	-0.007981	-2.180015	0.182669
C	-0.227141	-1.134882	-2.305265
H	-0.79506	-1.994261	-1.947752
H	0.839389	-1.361628	-2.302732
H	-0.53447	-0.936139	-3.333586
N	-0.060114	1.312946	-2.116059
O	-0.745354	2.326271	-1.997069
O	0.986449	1.244007	-2.766018
Cl	-3.697377	0.0	0.0
