19

C	0.0	0.0	0.0
C	-0.391542	-0.18015	-1.482398
Cl	1.8451	0.0	0.0
H	-0.098769	0.732977	-2.00542
N	-0.515662	1.25941	0.392485
H	-0.504976	1.388061	1.394297
H	-0.049861	2.030451	-0.065197
C	-0.50824	-1.076402	0.933603
H	-0.191327	-2.062297	0.602145
H	-0.120821	-0.895986	1.940201
H	-1.600644	-1.017876	0.952204
C	-1.856209	-0.502615	-1.702024
H	-2.083396	-1.517318	-1.378832
H	-2.513753	0.162316	-1.140901
H	-2.087866	-0.414009	-2.765797
N	0.428585	-1.237435	-2.160265
O	0.367596	-2.384551	-1.722392
O	1.081834	-0.897841	-3.147173
Cl	-4.776297	0.0	0.0
