19

C	0.0	0.0	0.0
C	-0.283562	0.089633	-1.557812
Cl	1.804116	0.0	0.0
H	0.561547	-0.385208	-2.057107
N	-0.503057	1.066418	0.802968
H	-1.51993	0.925877	0.843995
H	-0.327659	1.964423	0.370206
C	-0.406416	-1.311204	0.655855
H	0.03701	-2.165133	0.150585
H	-1.493356	-1.396787	0.647864
H	-0.050301	-1.265406	1.687134
C	-0.428884	1.519749	-2.027876
H	-1.368515	1.934209	-1.662938
H	-0.434895	1.567059	-3.116042
H	0.416759	2.110309	-1.664955
N	-1.415566	-0.752011	-2.121844
O	-2.156564	-0.23389	-2.948832
O	-1.389357	-1.949901	-1.856979
Cl	-3.555782	0.0	0.0
