19

C	0.0	0.0	0.0
C	-0.293725	-0.160339	-1.526201
Cl	1.805859	0.0	0.0
H	0.138415	0.719745	-2.008538
N	-0.48772	1.257676	0.491814
H	-0.310126	2.00174	-0.173421
H	-1.494245	1.178696	0.634349
C	-0.53551	-1.106379	0.880726
H	-0.237108	-0.899721	1.910152
H	-1.628912	-1.098727	0.817835
H	-0.158697	-2.077478	0.570159
C	-1.736962	-0.346244	-1.930376
H	-1.798358	-0.366588	-3.022569
H	-2.152177	-1.26693	-1.529515
H	-2.370414	0.452406	-1.55528
N	0.477206	-1.288524	-2.153462
O	1.223623	-1.006746	-3.091909
O	0.279174	-2.428707	-1.737339
Cl	-4.301118	0.0	0.0
