17

C	0.0	0.0	0.0
C	-0.452546	0.016017	-1.498234
Cl	1.760103	0.0	0.0
H	-1.498315	-0.286597	-1.396105
C	-0.496933	1.117548	0.794051
N	-0.647619	2.101628	1.421859
N	-0.448052	-1.293927	0.668971
O	-0.619556	-2.266668	-0.051145
O	-0.492005	-1.289933	1.891653
N	0.375019	-0.872649	-2.305708
H	-0.130658	-1.728902	-2.480024
H	0.60366	-0.434491	-3.187559
C	-0.404495	1.443288	-2.016048
H	-0.71909	1.453528	-3.064848
H	-1.102003	2.05899	-1.449878
H	0.600782	1.872858	-1.952073
F	-2.470802	0.0	0.0
