17

C	0.0	0.0	0.0
C	-0.441346	-0.126842	-1.492275
Cl	1.760364	0.0	0.0
H	-1.484233	-0.425052	-1.368146
C	-0.497072	1.191287	0.676266
N	-0.611931	2.249264	1.178179
N	-0.447211	-1.227608	0.789734
O	-0.6747	-2.251508	0.165459
O	-0.444348	-1.116326	2.009525
N	0.372625	-1.114908	-2.190578
H	0.861359	-0.688202	-2.965151
H	-0.229424	-1.846439	-2.543684
C	-0.385355	1.238495	-2.157695
H	-0.744294	1.142366	-3.187118
H	-1.028378	1.94704	-1.635312
H	0.639018	1.630731	-2.186701
F	-2.459489	0.0	0.0
