17

C	0.0	0.0	0.0
C	-0.42322	0.069265	-1.525882
Cl	1.761298	0.0	0.0
H	0.519765	0.192559	-2.066949
C	-0.434084	1.170122	0.765715
N	-0.54861	2.139838	1.419802
N	-0.408672	-1.244084	0.790885
O	-0.255225	-2.324163	0.237134
O	-0.739896	-1.081976	1.953692
N	-1.182689	1.302606	-1.70745
H	-2.040234	1.091064	-1.167932
H	-1.408044	1.375652	-2.693947
C	-1.120635	-1.166113	-2.092875
H	-1.347222	-0.942668	-3.140726
H	-0.506007	-2.061421	-2.06545
H	-2.042684	-1.305856	-1.5344
F	-2.51296	0.0	0.0
