16

C	-0.459237	-0.001044	-1.429659
C	0.0	0.0	0.0
F	-1.824902	0.092116	-1.551818
H	1.09212	0.0	0.0
H	0.00793	0.791916	-2.005776
N	-0.054037	-1.293007	-2.090434
O	-0.825962	-2.247319	-1.99878
O	1.032714	-1.290799	-2.660768
C	-0.480031	-1.150444	0.849974
H	-1.569458	-1.200892	0.914692
H	-0.064054	-1.034474	1.849557
H	-0.101837	-2.086204	0.435998
N	-0.354866	1.29626	0.561649
O	-0.232635	2.29254	-0.17035
O	-0.627222	1.364955	1.767916
H	2.523643	0.0	0.0
