16

C	-0.47651	-0.00771	-1.422905
C	0.0	0.0	0.0
F	-1.847767	0.018891	-1.521602
H	1.092004	0.0	0.0
H	-0.060023	0.81425	-1.997712
N	-0.018381	-1.268863	-2.10783
O	-0.727799	-2.267177	-2.000363
O	1.042927	-1.196397	-2.720191
C	-0.464224	-1.154112	0.854371
H	-0.048613	-1.030412	1.853147
H	-1.552429	-1.217438	0.920482
H	-0.074868	-2.085304	0.440676
N	-0.351241	1.294296	0.570121
O	-0.260388	2.291771	-0.165759
O	-0.586121	1.361424	1.785615
H	2.522643	0.0	0.0
