16

C	-0.560907	-0.041758	-1.406456
C	0.0	0.0	0.0
F	-0.307845	-1.247098	-1.981141
H	1.090924	0.0	0.0
H	-1.636366	0.152846	-1.44149
N	0.060378	1.029351	-2.275214
O	-0.353984	2.161744	-2.03845
O	0.882312	0.709808	-3.119065
C	-0.451885	-1.218744	0.781657
H	-1.533707	-1.364753	0.759619
H	0.057953	-2.090781	0.371239
H	-0.123991	-1.105558	1.817657
N	-0.537817	1.226886	0.660183
O	0.226902	2.157521	0.892056
O	-1.742356	1.21928	0.947435
H	2.77817	0.0	0.0
