16

C	-0.399517	0.001343	-1.450547
C	0.0	0.0	0.0
F	0.075219	1.106885	-2.075694
H	1.091888	0.0	0.0
H	-0.012859	-0.896186	-1.939411
N	-1.899228	-0.025408	-1.686397
O	-2.446613	-1.099805	-1.443463
O	-2.450485	0.989574	-2.090772
C	-0.521712	-1.150623	0.830317
H	-1.60723	-1.137358	0.92305
H	-0.061476	-1.084678	1.819192
H	-0.209045	-2.095966	0.382483
N	-0.476714	1.28782	0.611352
O	-1.701247	1.440189	0.697727
O	0.354567	2.100432	1.000603
H	2.757603	0.0	0.0
