16

C	-0.335665	-0.000869	-1.469403
C	0.0	0.0	0.0
F	-0.100777	1.207236	-2.037264
H	1.091859	0.0	0.0
H	0.254709	-0.769783	-1.973603
N	-1.783742	-0.342641	-1.737924
O	-2.048953	-1.544532	-1.738524
O	-2.583866	0.572499	-1.894434
C	-0.462643	-1.228361	0.754444
H	-1.546576	-1.348573	0.769655
H	-0.094085	-1.148769	1.779704
H	0.000234	-2.11322	0.308023
N	-0.557262	1.237807	0.612585
O	0.1717	2.223769	0.687152
O	-1.730982	1.202731	1.00592
H	2.705369	0.0	0.0
