16

C	-0.315615	-0.051467	-1.470906
C	0.0	0.0	0.0
F	-0.048287	1.096678	-2.134138
H	1.091876	0.0	0.0
H	0.241245	-0.875417	-1.925439
N	-1.776286	-0.364264	-1.706608
O	-2.568069	0.574865	-1.719209
O	-2.065355	-1.557805	-1.823439
C	-0.447056	-1.241418	0.739106
H	0.039286	-2.10769	0.282442
H	-1.527944	-1.388034	0.747119
H	-0.095354	-1.168617	1.768722
N	-0.509786	1.233112	0.623808
O	0.002494	2.2983	0.268328
O	-1.38704	1.14144	1.496289
H	2.60234	0.0	0.0
