14
Coordinates from ORCA-job run
  C   0.72933914288903      0.18591075549185     -0.01645719855633
  C   -0.73678137978597     -0.21767702970604     -0.01117068644584
  Cl  0.92930816087478      1.75275972967935     -0.88255528626071
  H   -0.78921278129537     -1.22195689602457      0.42653282142221
  H   1.06019106927497      0.38334288073192      1.00697186190120
  H   -1.07562554145134     -0.30392473632462     -1.04894569260343
  C   1.62552641698625     -0.85108474630476     -0.66645305352996
  H   1.55758518930130     -1.79361585985022     -0.11575560601501
  H   2.66679086147210     -0.52578266086162     -0.66936187234108
  H   1.31746187460679     -1.02694622490070     -1.69931112878040
  C   -1.64553913379309      0.72568681957851      0.76756687543725
  H   -1.32054677216119      0.81018938547053      1.80819624628140
  H   -1.64447978111497      1.72505067133901      0.33089022299544
  H   -2.67401732580328      0.35804791168138      0.76785249649526
