14
Coordinates from ORCA-job run
  C   0.91445475146585      0.21360779413275      0.24882839130787
  C   -0.45961361921875      0.86725372337098      0.23893358840669
  Cl  2.16260456079502      1.49892886784083      0.06185008620442
  H   -0.59422790993196      1.38209747577770     -0.71808107592946
  H   1.10480608414596     -0.22498163874537      1.23215597402710
  H   -0.47982702271932      1.63770338449239      1.01506049116372
  C   1.11575602378796     -0.82770018359981     -0.83524631508945
  H   0.43693417401899     -1.67036892834350     -0.68542069717305
  H   0.92533351169073     -0.39317667420652     -1.81945314362575
  H   2.13778301671516     -1.20874251159737     -0.82079184419688
  C   -1.59236886391159     -0.12981341688631      0.47225306078673
  H   -1.42795895186850     -0.70818610797030      1.38588901428578
  H   -1.69919422149123     -0.83037901099311     -0.35768653753393
  H   -2.54348153347831      0.39575722672764      0.58170900736620
