15

C	-0.398159	0.078311	-1.483884
C	0.0	0.0	0.0
F	-1.779926	0.252009	-1.58457
H	1.097416	0.0	0.0
C	0.304643	1.233084	-2.167993
H	1.384758	1.123605	-2.039088
H	0.043766	1.245533	-3.227605
H	-0.021718	2.168018	-1.707059
C	-0.084361	-1.2026	-2.139694
N	0.15324	-2.222602	-2.66963
C	-0.528881	-1.195076	0.649611
N	-0.956837	-2.159919	1.16531
C	-0.463797	1.200694	0.693171
N	-0.825051	2.177783	1.235604
Cl	3.153717	0.0	0.0
