15

C	-0.40037	0.065182	-1.487588
C	0.0	0.0	0.0
F	-1.780294	0.240463	-1.588275
H	1.097388	0.0	0.0
C	0.30302	1.215956	-2.1774
H	-0.022146	2.15358	-1.722989
H	0.043677	1.223026	-3.23769
H	1.382374	1.106348	-2.047955
C	-0.086114	-1.217214	-2.142501
N	0.139167	-2.244992	-2.663656
C	-0.526773	-1.19128	0.658583
N	-0.954709	-2.152677	1.180486
C	-0.463792	1.206966	0.682993
N	-0.824708	2.188083	1.219614
Cl	3.153946	0.0	0.0
