15

C	-0.477162	0.013906	-1.47165
C	0.0	0.0	0.0
F	0.036216	-1.120079	-2.073577
H	1.096906	0.0	0.0
C	-1.988161	-0.01796	-1.622832
H	-2.439618	0.867977	-1.173556
H	-2.375642	-0.914041	-1.134605
H	-2.241478	-0.050811	-2.683892
C	0.065699	1.19865	-2.16231
N	0.393235	2.152987	-2.763073
C	-0.486595	-1.210034	0.659615
N	-0.896606	-2.18306	1.174251
C	-0.488309	1.188647	0.694031
N	-0.894063	2.154373	1.226094
Cl	3.137283	0.0	0.0
