15

C	-0.387082	-0.034753	-1.497759
C	0.0	0.0	0.0
F	-0.015785	1.187528	-2.034406
H	1.097292	0.0	0.0
C	0.364604	-1.135221	-2.218092
H	0.164517	-1.063007	-3.288516
H	1.430242	-0.997748	-2.01916
H	0.050009	-2.11677	-1.857852
C	-1.848917	-0.159423	-1.672124
N	-3.00875	-0.279832	-1.817722
C	-0.469819	-1.211192	0.666664
N	-0.839937	-2.202054	1.177829
C	-0.523321	1.194231	0.65577
N	-0.955052	2.153052	1.178685
Cl	3.174617	0.0	0.0
