15

C	-0.449958	0.086151	-1.447188
C	0.0	0.0	0.0
Cl	0.010821	-1.402748	-2.350667
H	1.088434	0.0	0.0
H	-0.295656	0.910093	0.529806
C	-1.893069	0.284477	-1.612685
N	-3.027163	0.54799	-1.775256
C	0.327617	1.247339	-2.069791
H	0.030719	2.188904	-1.59929
H	0.132472	1.302807	-3.141913
H	1.389815	1.069311	-1.874272
N	-0.563889	-1.114591	0.775749
O	-1.429017	-1.832476	0.263747
O	-0.121223	-1.255039	1.914476
H	2.719032	0.0	0.0
