15

C	-0.443105	0.126469	-1.45972
C	0.0	0.0	0.0
Cl	-0.243946	-1.533205	-2.160734
H	1.08893	0.0	0.0
H	-0.373191	-0.909526	0.46563
C	-1.863316	0.461173	-1.597677
N	-2.991631	0.762016	-1.726093
C	0.435304	1.076078	-2.26602
H	1.476243	0.804316	-2.072429
H	0.197277	0.998923	-3.32873
H	0.266467	2.094034	-1.919056
N	-0.436042	1.111283	0.83128
O	-0.557796	0.893289	2.042985
O	-0.567019	2.228057	0.308839
H	2.644318	0.0	0.0
