15

C	-0.403968	-0.03699	-1.450492
C	0.0	0.0	0.0
Cl	-2.217057	-0.172489	-1.63143
H	1.092764	0.0	0.0
H	-0.341086	-0.899243	0.511046
C	0.002617	1.13564	-2.229343
N	0.364646	1.974688	-2.967113
C	0.245983	-1.272737	-2.0616
H	-0.142293	-2.167884	-1.572103
H	1.321691	-1.194944	-1.871514
H	0.0437	-1.327664	-3.13066
N	-0.49423	1.136125	0.756086
O	-0.579232	2.231552	0.18815
O	-0.718455	0.954857	1.959081
H	2.603404	0.0	0.0
