15

C	-0.543908	0.127515	-1.415791
C	0.0	0.0	0.0
Cl	0.370741	1.332216	-2.403718
H	1.088245	0.0	0.0
H	-0.30467	-0.951699	0.436583
C	-0.349942	-1.172875	-2.069526
N	-0.287862	-2.220225	-2.599098
C	-2.026475	0.489582	-1.490503
H	-2.166982	1.48053	-1.064079
H	-2.607514	-0.242183	-0.92223
H	-2.362871	0.489279	-2.529144
N	-0.432873	1.035187	0.901874
O	-0.52521	0.730015	2.103824
O	-0.533424	2.199335	0.473489
H	2.515023	0.0	0.0
