15

C	-0.445302	0.131172	-1.458498
C	0.0	0.0	0.0
Cl	-0.277734	-1.531321	-2.160579
H	1.088927	0.0	0.0
H	-0.375859	-0.905466	0.469972
C	-1.860397	0.490786	-1.593813
N	-2.986783	0.804907	-1.715259
C	0.449992	1.065245	-2.26509
H	0.211039	0.99483	-3.328025
H	0.300181	2.085288	-1.91451
H	1.485651	0.77378	-2.07162
N	-0.420067	1.118347	0.832606
O	-0.564915	2.230102	0.30777
O	-0.508739	0.910397	2.046319
H	2.639101	0.0	0.0
