15

C	-0.532433	-0.034834	-1.425305
C	0.0	0.0	0.0
Cl	0.373156	1.071618	-2.52885
H	1.088235	0.0	0.0
H	-0.301573	-0.899964	0.536723
C	-0.311028	-1.394099	-1.934345
N	-0.242787	-2.485432	-2.365721
C	-2.019701	0.289902	-1.552403
H	-2.343542	0.173374	-2.588469
H	-2.594979	-0.388703	-0.916289
H	-2.183176	1.318069	-1.235201
N	-0.448625	1.12433	0.778685
O	-0.572125	2.229505	0.221374
O	-0.545548	0.954625	2.006707
H	2.517228	0.0	0.0
