15

C	-0.469086	-0.059492	-1.439079
C	0.0	0.0	0.0
Cl	0.268025	-1.439225	-2.336722
H	1.091086	0.0	0.0
H	-0.302881	0.946615	0.450495
C	-1.923973	-0.181477	-1.562988
N	-3.094008	-0.19553	-1.673135
C	0.025725	1.222562	-2.109951
H	-0.455603	2.09098	-1.652866
H	-0.198899	1.206004	-3.177185
H	1.105957	1.27665	-1.951225
N	-0.502798	-1.050169	0.874545
O	-0.400066	-0.838972	2.088151
O	-0.918367	-2.105245	0.380156
H	2.617146	0.0	0.0
