15

C	-0.518998	0.078433	-1.428231
C	0.0	0.0	0.0
Cl	0.441201	1.216227	-2.452077
H	1.101566	0.0	0.0
H	-0.300449	-0.937758	0.466303
C	-0.344188	-1.253416	-2.020645
N	-0.282705	-2.325998	-2.496612
C	-1.99033	0.474304	-1.549488
H	-2.110435	1.484405	-1.163409
H	-2.602877	-0.218653	-0.967315
H	-2.304148	0.441796	-2.594254
N	-0.435947	1.062768	0.854772
O	-0.503913	2.21623	0.385914
O	-0.559986	0.80066	2.068208
H	2.4758	0.0	0.0
