16
Coordinates from ORCA-job run
  C   0.86054901298674      0.40303427446079     -0.17879093943757
  C   -0.61899593561349      0.01609718383497     -0.34018249692038
  Br  1.55474755341022      0.88168830814341     -2.04684723539391
  H   -1.12545467683423      0.93043652562536     -0.69540203607697
  C   1.66883043214232     -0.74080293640634      0.23674773109469
  N   2.32570011756967     -1.63140876832993      0.63122234572854
  N   1.02269564606333      1.47551632128355      0.72514967479302
  H   0.51069242116064      2.29379448075789      0.41778032524405
  H   1.99523246676254      1.71621741798164      0.86809747796640
  C   -1.19834657065249     -0.39161977550844      1.00960687969497
  H   -2.26894055712243     -0.58725346988709      0.90006406201122
  H   -1.06171311137720      0.38888309904947      1.75585550665936
  H   -0.71634031456293     -1.30793995235309      1.35786161795235
  N   -0.72343801900025     -1.10620859380294     -1.25336112348312
  H   -0.58461863494760     -0.81323479971257     -2.21190242098895
  H   -1.64059982998484     -1.52719931513668     -1.17689936884371
