16
Coordinates from ORCA-job run
  C   0.89494738439674      0.37394593742426      0.13456212906817
  C   -0.61113421234240      0.05975799082127      0.02305564858507
  Br  1.90120869054530     -1.04119829935061     -0.97866909694393
  H   -1.07071409268558      0.83003531022666      0.65466049899524
  C   1.39630847267007      0.16559050936747      1.49040476583123
  N   1.77570305354153      0.02968892034556      2.59446553153920
  N   1.13630519852295      1.68117415759062     -0.30331221434073
  H   0.67018944275628      1.82502921072119     -1.19298213497974
  H   2.11627019276055      1.92682107520965     -0.33464078818381
  C   -1.00752112418933     -1.31258952772155      0.54900436933574
  H   -0.60551477256516     -2.10511187335562     -0.08422974605321
  H   -2.09750747253608     -1.39200217036035      0.55019745989536
  H   -0.65563238450040     -1.47419922799147      1.57079741098897
  N   -1.00858522168681      0.34567973396546     -1.35146982268876
  H   -1.99813952547114      0.55435564883275     -1.38887802320593
  H   -0.83518362921650     -0.46597739572529     -1.93396598784286
