16
Coordinates from ORCA-job run
  C   0.89182111918226      0.23211792168273      0.03093897089548
  C   -0.60945720591834     -0.06567858118380     -0.12315480651264
  Br  1.98183961064774     -1.34530938229845     -0.36063596879467
  H   -1.08282321625047      0.90747102997484      0.11766547009873
  C   1.18664075028449      0.60815062304455      1.42164025101467
  N   1.37467427112280      0.97495197571498      2.52329453392224
  N   1.26384049577181      1.26139645021946     -0.92699272572208
  H   0.83968350360275      2.14024521519797     -0.64161400898534
  H   2.26997208351947      1.38663001717108     -0.93632125535144
  C   -1.12905954151186     -1.09953753878958      0.86050322453983
  H   -0.66946646534660     -2.06751451133458      0.65837558793777
  H   -0.93575617651067     -0.81008591919718      1.89534281569157
  H   -2.21059869627280     -1.20390664103753      0.73958396117024
  N   -0.85258269124252     -0.50404350320017     -1.48328774788905
  H   -0.46677990327407      0.16981618903948     -2.13356600041986
  H   -1.84894793780400     -0.58570334500379     -1.64277230159544
