16
Coordinates from ORCA-job run
  C   0.80916229139709      0.58786654393055     -0.20090560651029
  C   -0.56538315962193     -0.09115163714681     -0.40667183302187
  Br  0.70371240391134      2.49323884896616     -0.68076233776807
  H   -0.86144523667252      0.10625313690144     -1.44634874162063
  C   1.75998624543633     -0.00166794256699     -1.16136367371520
  N   2.50589731675430     -0.54195626959344     -1.89325207774054
  N   1.20742390814943      0.46675287157866      1.17073122364210
  H   2.16556422837485      0.76668144877416      1.30429213237024
  H   1.11458673121715     -0.51554229308342      1.41709857541298
  C   -1.62667279488820      0.44954275309942      0.53711423539697
  H   -1.36355278945624      0.22870246035433      1.57157310487542
  H   -1.74198267219728      1.52713934041467      0.43063628789267
  H   -2.58727653718842     -0.01895811741363      0.30458853977727
  N   -0.34274054216255     -1.51116909059420     -0.12760343583459
  H   -1.21533291449316     -1.96009301348264      0.12030113083523
  H   0.03505352143982     -1.98563904013824     -0.93942752399169
