16
Coordinates from ORCA-job run
  C   0.77449876323374      0.59446601831378     -0.29529512650196
  C   -0.56874128413649     -0.16773601595253     -0.37491362049424
  Br  0.56254643543173      2.41838573682087     -1.00488578693895
  H   -0.89767841072001     -0.11801350006673     -1.42218466701130
  C   1.73108546948252     -0.06440123823327     -1.20318893597541
  N   2.48634510121038     -0.65496638266037     -1.88496556569297
  N   1.21067506992928      0.66453016124258      1.06794248772621
  H   1.16841494847274     -0.28175838119047      1.43789821491970
  H   2.15667763876440      1.02002465516744      1.13481141157336
  C   -1.63454760393985      0.43803869924684      0.52310201837995
  H   -1.80937247751572      1.48545261332884      0.28196188118813
  H   -1.33638813971940      0.36739546249639      1.56919054746244
  H   -2.57389625421602     -0.10408060387617      0.38185982270697
  N   -0.26982160316774     -1.52939513364796      0.07354645974180
  H   -1.11389168943789     -1.98328805264217      0.39907626610201
  H   0.11309403632831     -2.08465403834708     -0.68295540718574
