16
Coordinates from ORCA-job run
  C   0.90671354120525      0.13004569930044     -0.08732747682183
  C   -0.62604348148272      0.01179210689627     -0.03339817073297
  Br  1.73131530695460     -1.50800678253540     -0.76979387734254
  H   -0.93904305086391      1.00149520693710      0.35583275550997
  C   1.44153935118473      0.33240102345664      1.26813759962500
  N   1.85077456428915      0.57652713899278      2.34350374296953
  N   1.25975147767232      1.20381300511144     -1.00206294053374
  H   0.98610629140512      2.08977329482721     -0.58491791833553
  H   2.26253869610280      1.22340274429821     -1.15157481780826
  C   -1.11960093664911     -1.05246263921280      0.93119746642249
  H   -2.21187237037114     -1.02904830835102      0.96975723065241
  H   -0.81298935701320     -2.03920577154722      0.58314833608448
  H   -0.74687209663794     -0.88807472119375      1.94408863614254
  N   -1.11275503189868     -0.26196248400666     -1.37097899992661
  H   -2.12420827995096     -0.21967087042550     -1.38142873055028
  H   -0.74535462394631      0.42718135745227     -2.01618283535469
