17
Coordinates from ORCA-job run
  C   -0.57077359992403     -0.36610537799750     -0.22630306154899
  C   0.75977854099302      0.32473150419156      0.12288480287663
  Cl  -0.37254624487595     -1.41491088083235     -1.63112492868730
  H   0.51842224359887      1.04809607798751      0.91147743131545
  C   -1.69545815660159      0.62015743237249     -0.46519185033505
  H   -1.85354024369439      1.21846593405502      0.43550715007853
  H   -2.61461117902418      0.08729385292762     -0.71302941133626
  H   -1.41178581150599      1.27326357873209     -1.28831331992127
  N   -0.99744988724413     -1.22082275256781      0.96808886337297
  O   -1.62473407427843     -2.25000573663178      0.77424349480459
  O   -0.73840504458389     -0.73456617901141      2.06976435170264
  N   1.18289691780500      1.07870460650459     -1.03313749700773
  H   1.86428292381553      1.77684587458406     -0.76517670796990
  H   1.60336396285400      0.45282817370105     -1.71052967246765
  N   1.73631994307811     -0.67282369380335      0.54029265450731
  H   1.55628452866485     -0.96501293825647      1.49383296269400
  H   2.65895518092318     -0.25713947595532      0.51471473792205
