17
Coordinates from ORCA-job run
  C   -0.63099785361271     -0.55766733466697      0.01557877516495
  C   0.88164356186422     -0.29056961641772      0.10152937603876
  Cl  -0.93070716297409     -2.21244169204470     -0.55073902379990
  H   1.29683824575424     -1.10802934898785      0.69289543756079
  C   -1.37859197582935      0.42432048957568     -0.84989278197155
  H   -2.44595106641211      0.21180887098207     -0.83224512572987
  H   -1.02091710485383      0.32599808599647     -1.87535450556855
  H   -1.23202844693888      1.44197953088740     -0.48537620195277
  N   -1.14145041566035     -0.50154978345346      1.45333576003831
  O   -0.56080723473655     -1.21346296548244      2.26192299752945
  O   -2.08074603998421      0.24670869689964      1.69583662766947
  N   1.04775716536238      0.93901703837242      0.86814189447009
  H   1.03390533989455      1.74945722414995      0.26097983148141
  H   1.92845680291195      0.93432286946492      1.36538351654177
  N   1.45406962000371     -0.35862371638293     -1.22842970700695
  H   1.33301357723071      0.52000936234772     -1.71774980457017
  H   2.44551298798031     -0.55127771124020     -1.17481706589524
