15

C	-0.372116	0.048877	-1.489808
C	0.0	0.0	0.0
Br	-0.244292	-1.955598	-2.115876
H	1.094003	0.0	0.0
H	-0.37709	-0.897367	0.488784
C	-1.805629	0.424813	-1.804634
H	-1.975175	1.45478	-1.478999
H	-2.501606	-0.238622	-1.28985
H	-1.991862	0.352525	-2.878455
N	0.551622	0.864029	-2.140257
H	0.454141	0.877588	-3.146185
H	1.513838	0.686548	-1.852123
C	-0.496948	1.187654	0.68846
N	-0.940917	2.126668	1.237464
Cl	3.355449	0.0	0.0
