15

C	-0.303221	-0.036418	-1.491736
C	0.0	0.0	0.0
Br	-2.272709	-0.067942	-1.816093
H	1.097655	0.0	0.0
H	-0.349422	0.933857	0.443725
C	0.235779	1.229534	-2.145316
H	-0.231412	2.126338	-1.734702
H	1.312081	1.262028	-1.952023
H	0.056788	1.2072	-3.222376
N	0.241037	-1.260203	-2.01669
H	0.21984	-1.239633	-3.030894
H	1.21262	-1.32313	-1.709241
C	-0.523501	-1.133797	0.744653
N	-0.931211	-2.036177	1.374683
Cl	3.349368	0.0	0.0
