15

C	-0.529048	-0.068161	-1.441708
C	0.0	0.0	0.0
Br	-0.09339	1.63424	-2.333492
H	1.092966	0.0	0.0
H	-0.29704	-0.942681	0.48141
C	0.194287	-1.184017	-2.17171
H	-0.119417	-1.211215	-3.215651
H	-0.059639	-2.141665	-1.69965
H	1.273694	-1.040704	-2.094521
N	-1.96693	-0.231894	-1.56703
H	-2.215095	-1.120175	-1.139698
H	-2.436326	0.503322	-1.04661
C	-0.586387	1.089278	0.766118
N	-1.127619	1.951234	1.352314
Cl	3.372506	0.0	0.0
