15

C	-0.292072	-0.027444	-1.498094
C	0.0	0.0	0.0
Br	-2.251665	-0.317034	-1.81089
H	1.097232	0.0	0.0
H	-0.342614	-0.929603	0.458811
C	0.070411	1.292597	-2.16089
H	-0.090465	1.22804	-3.239943
H	1.132379	1.473047	-1.962521
H	-0.51735	2.123753	-1.767537
N	0.404951	-1.175649	-2.017035
H	1.364546	-1.14178	-1.668775
H	0.429739	-1.13585	-3.029717
C	-0.549543	1.149012	0.696478
N	-1.00723	2.075482	1.254233
Cl	3.330569	0.0	0.0
