15

C	-0.493801	0.015146	-1.445343
C	0.0	0.0	0.0
Br	-0.020997	-1.86247	-2.181547
H	1.093899	0.0	0.0
H	-0.336311	-0.90547	0.509678
C	-2.002554	0.103163	-1.590836
H	-2.294224	0.041382	-2.641799
H	-2.34504	1.055633	-1.176721
H	-2.480975	-0.719208	-1.055967
N	0.170571	1.039529	-2.133927
H	1.174445	1.005722	-1.976272
H	-0.037647	1.047897	-3.123226
C	-0.505214	1.167407	0.718512
N	-0.947741	2.08728	1.299473
Cl	3.355973	0.0	0.0
