21

C	0.0	0.0	0.0
C	-0.273257	-0.041374	-1.553967
Br	1.990347	0.0	0.0
H	0.53722	-0.646509	-1.975463
C	-0.590886	1.206387	0.693507
H	-1.681231	1.08835	0.544531
H	-0.365148	1.177861	1.764376
H	-0.229396	2.151594	0.286321
C	-0.510617	-1.259207	0.674498
H	-0.190564	-1.295594	1.720508
H	-0.161413	-2.162912	0.168261
H	-1.607134	-1.174141	0.618894
C	-0.173429	1.350143	-2.179946
H	-0.153187	1.257647	-3.271179
H	0.732439	1.880706	-1.871364
H	-1.047884	1.950524	-1.91372
C	-1.581159	-0.707999	-1.986585
H	-1.693413	-0.559449	-3.068612
H	-1.538126	-1.787533	-1.809928
H	-2.44593	-0.320404	-1.419775
F	-3.299677	0.0	0.0
