15
Coordinates from ORCA-job run
  C   0.70595313058671      0.04876989634361     -0.62519668763002
  C   -0.48973550079172     -0.49586873084121      0.18037537397109
  H   0.84603505780715     -0.52942005469610     -1.54300976996097
  H   -0.23396997527377     -1.52867094013297      0.44709927802758
  N   1.95398347255092     -0.18298508715618      0.19058546629905
  O   2.23303851712216     -1.36569367985115      0.36237438311292
  O   2.56550007137531      0.78328034997079      0.62180639117154
  C   0.54010302019054      1.46313034803491     -0.92989670336091
  N   0.37223243868861      2.59766116791345     -1.17935553448809
  N   -1.66615925451007     -0.36669228031506     -0.67177280287111
  H   -1.62371499760504     -1.01189034003063     -1.45396385994650
  H   -2.49409681483849     -0.59083173899188     -0.13249011262090
  N   -0.58356588649707      0.25931386597352      1.39942888932414
  H   -1.02295968721537      1.15695859253616      1.22711136635899
  H   -1.10464359158987     -0.23906136875726      2.10790432261318
