15
Coordinates from ORCA-job run
  C   0.63950592517067      0.37217037158923     -0.49142900166916
  C   -0.49992975933215     -0.07519712690355      0.43763133463420
  H   0.33834504571032      0.29445710795880     -1.53993403392985
  H   -0.13468477161193      0.04127068967088      1.46111675148993
  N   1.79006436806026     -0.58561967772817     -0.32303296040179
  O   2.32106269683098     -0.60056455977110      0.78020392456284
  O   2.07696269545087     -1.27933032157095     -1.29057799227251
  C   1.08895161637247      1.72504905789788     -0.18889467037271
  N   1.46633939704311      2.81024434882793      0.05100520288231
  N   -0.71101473964996     -1.49142369177023      0.21044582778347
  H   -1.17933634720167     -1.65499757182869     -0.67383091229247
  H   -1.27228298436044     -1.89516400604382      0.94912464011497
  N   -1.58907312450267      0.86367645530519      0.24322378111630
  H   -2.07625107243007      0.67350819762002     -0.62519672968401
  H   -2.25765894554978      0.80192072674658      1.00014483803847
