15
Coordinates from ORCA-job run
  C   0.72068426692796      0.05704992580798     -0.50391244349354
  C   -0.66658050177636     -0.00922401413049      0.14759109695523
  H   1.03416660621573     -0.94609944646295     -0.79917955206378
  H   -1.00563299501871      1.01893460579650      0.32223370551721
  N   1.75515010728647      0.52726263326932      0.48954396832934
  O   1.41970321557011      1.44425684069813      1.23555876690538
  O   2.84499192025161     -0.03079440066567      0.46439338948134
  C   0.73868578139886      0.96968632547830     -1.64139418079371
  N   0.75553861855936      1.72222728898130     -2.54227606715783
  N   -0.54223275994405     -0.80715794453360      1.36382529897923
  H   -0.12500397698159     -0.25750825292705      2.10716854305586
  H   -1.46940540957146     -1.07513524240973      1.67185007037339
  N   -1.53415162340885     -0.61095685540949     -0.83368212747770
  H   -2.50416598900262     -0.38541827868182     -0.66054793198155
  H   -1.41974726050648     -1.61812318481073     -0.82217253662886
