14
Coordinates from ORCA-job run
  C   0.91071144727037     -0.29580098048198      0.28867360478452
  C   -0.57972728396311     -0.09941713944827      0.13528549605318
  F   1.11669243972664     -1.17189575261084      1.30836204078623
  H   -1.10498801172784     -1.02155147586243     -0.09870042070093
  H   1.45173867292648      0.62991393771950      0.46702074797578
  N   1.47765863100703     -0.92405623127838     -0.95603396661420
  O   0.71857993547642     -1.62271947585321     -1.62274057448353
  O   2.66912026436746     -0.72326225075053     -1.15442878408284
  N   -0.89068780774141      0.90823047626867     -0.92888469889857
  O   0.06211077658194      1.42657762271156     -1.50296009303777
  O   -2.08074577744513      1.12392395797675     -1.11390875901500
  N   -1.12253970125513      0.45269751379630      1.41934152671358
  O   -2.00482406915658     -0.19233604999323      1.97043709233849
  O   -0.62009951606714      1.50969584780609      1.78953678818104
