14
Coordinates from ORCA-job run
  C   0.95720739299672     -0.24950312381380      0.14804692517223
  C   -0.53898917020427     -0.07240808859479      0.26423748946658
  F   1.38557068964625     -0.94308795130488      1.23662707554871
  H   -1.07542138830504     -1.01663350467035      0.30112691576861
  H   1.49623954555332      0.69019833057122      0.05956680577315
  N   1.28420127103843     -1.08020898042785     -1.06360415218690
  O   2.41869652169559     -0.94599912241309     -1.50444669136452
  O   0.41583374035922     -1.85145166349171     -1.46378864867720
  N   -1.08152943718534      0.73843141985854     -0.87205155087737
  O   -0.27186854219846      1.17369430649016     -1.68525452723502
  O   -2.29463384095599      0.89953676467314     -0.86799230250659
  N   -0.83167790710911      0.69707358817630      1.51770990280581
  O   -0.29688250487088      1.79931113669168      1.59410567180832
  O   -1.56674637046044      0.16104688825543      2.33671708650421
