14
Coordinates from ORCA-job run
  C   0.98016618387496     -0.06493103638924      0.18683996819632
  C   -0.52524886794160     -0.18635417190454      0.23419608183998
  F   1.48937724783939     -0.70606208139141      1.27279111908629
  H   -0.86795330630956     -1.21727987131029      0.21226422089705
  H   1.32815398179504      0.96432909570666      0.15514001875315
  N   1.51480822197653     -0.76628057170510     -1.03277563856012
  O   2.61773010324780     -0.39498960189264     -1.41361786993664
  O   0.83332032049969     -1.67621460091123     -1.49808878145871
  N   -1.16741276853178      0.55159623987116     -0.90001797670792
  O   -0.42450750884777      1.16412707558907     -1.66097587851972
  O   -2.38803095976123      0.47868822373209     -0.94751339157214
  N   -1.01571032439815      0.45799808115650      1.49634602514767
  O   -0.71259037478976      1.63945304213046      1.63431814037127
  O   -1.66310194865357     -0.24507982268148      2.26109396246351
