14
Coordinates from ORCA-job run
  C   0.75636006785344     -0.63977389282183      0.16743149669146
  C   -0.28830889414180      0.45898539939652      0.20580876658950
  F   0.19357497500070     -1.83721041784271     -0.06153697076786
  H   0.13937530821349      1.43787179962588     -0.00168451713148
  H   1.33971441309808     -0.66307286911140      1.08840840886063
  N   1.74669956537750     -0.32514094991755     -0.94232594363920
  O   1.92664111127272     -1.16889834388012     -1.80204292612113
  O   2.29807606160903      0.76181486332889     -0.81934840815798
  N   -0.98066694246982      0.53130002158348      1.52831910920173
  O   -1.60185213570387      1.56858173055898      1.72856071655252
  O   -0.88580198362635     -0.43863016872990      2.27376693109576
  N   -1.32031452604504      0.17660384602763     -0.85877160108792
  O   -0.87063791204144      0.24890376823927     -1.99494060308677
  O   -2.45385910839662     -0.11033478645713     -0.51064445899926
