14
Coordinates from ORCA-job run
  C   0.97290772170557     -0.18028962291699      0.14264096719660
  C   -0.52950948216415     -0.09215687768421      0.27683899385536
  F   1.46120137763857     -0.78690385597119      1.25774313201915
  H   -1.00437275750025     -1.06497653130092      0.37060754393175
  H   1.44964758097114      0.78540660646222     -0.00434250948190
  N   1.33471458844461     -1.05187340085869     -1.03002634873634
  O   0.51023757200284     -1.89387570217270     -1.37666212296577
  O   2.45318710865965     -0.87221306772493     -1.49483767608388
  N   -1.13957139184615      0.62403865220468     -0.88876073055545
  O   -0.37182045543366      1.06402929201706     -1.73905713807689
  O   -2.36008419087542      0.71044670623585     -0.86913617291945
  N   -0.85176427128165      0.72090428159750      1.49527960698603
  O   -0.38975393062749      1.85804422319491      1.50476363596685
  O   -1.53601946969362      0.18141929691741      2.35494881886394
