14
Coordinates from ORCA-job run
  C   0.90639977205320     -0.32229880326845      0.27316175800963
  C   -0.57951977348379     -0.07431008414704      0.15671484451775
  F   1.11268599186177     -1.17213287885162      1.31464465226781
  H   -1.14906400245011     -0.98161392979070     -0.02476505799140
  H   1.48499625752549      0.58830697932762      0.40531569078276
  N   1.41219621561382     -1.00956138190896     -0.96677364734219
  O   2.61468076355549     -0.90533663065467     -1.17277413892291
  O   0.59684486951713     -1.65261696387442     -1.62309054197718
  N   -0.88454795454237      0.90443676522845     -0.93515435090304
  O   -2.07351515280728      1.12430409424442     -1.12395227706830
  O   0.07085483363155      1.40209668178597     -1.52318657829827
  N   -1.05981326146974      0.54697954208368      1.43508621515037
  O   -1.94523731426516     -0.04489524739653      2.03842208245545
  O   -0.50796124474000      1.59764185722224      1.74835134931951
