14
Coordinates from ORCA-job run
  C   0.94629181148721     -0.27381487852011      0.30928171558355
  C   -0.33278520459292      0.51545920590755      0.10523820532621
  F   0.73196258731095     -1.41420388638938      0.98527986355829
  H   -0.13521807614021      1.52378324803160     -0.24961676348493
  H   1.67537289972139      0.34052042937836      0.84182080874155
  N   1.55255588444999     -0.57510603072330     -1.04407399550186
  O   1.55642789432506      0.38380509794225     -1.81013819220379
  O   2.01430103799912     -1.68601292454548     -1.22754955158523
  N   -1.00512629540715      0.63094074773761      1.45208763325007
  O   -0.36722508889871      1.29503570860973      2.25951567096902
  O   -2.06915125259496      0.05786407960500      1.62181194900573
  N   -1.28695304920583     -0.11928090677391     -0.85207413673823
  O   -2.16889058409523      0.62320037455244     -1.26658281044149
  O   -1.11156256435873     -1.30219026481240     -1.12400039647892
