14
Coordinates from ORCA-job run
  C   0.82288342051891     -0.54415584074404      0.29828904118390
  C   -0.22120370360604      0.54992093653846      0.18572890526759
  F   0.28936866581883     -1.70771675974948      0.70436710202698
  H   0.23056483331879      1.52949735219437      0.05186466434943
  H   1.60567503134464     -0.23307210669792      0.99354010539940
  N   1.49451750734301     -0.71845425074592     -1.04663889067295
  O   1.78903355398591      0.33872907560116     -1.59583379208885
  O   1.72359882548968     -1.85202234287080     -1.42552214434996
  N   -0.98194111358353      0.57353754980984      1.48945304401648
  O   -0.30304085187658      0.93321756505400      2.44337614102988
  O   -2.15043624805363      0.22130579227194      1.48693484784308
  N   -1.19229545766076      0.34602556728821     -0.93066455537317
  O   -1.87028775824120      1.32874986487155     -1.20513805489819
  O   -1.23543670479804     -0.76456240282136     -1.44875641373363
