14
Coordinates from ORCA-job run
  C   0.91166523575035     -0.44791354124511      0.24665929524675
  C   -0.54728140691889     -0.04230907370431      0.25419332419618
  F   1.08965707835900     -1.40028323415366      1.18526394491945
  H   -1.20470923163208     -0.90313867368992      0.14387321143107
  H   1.58895631234474      0.38926596151664      0.40049983906580
  N   1.20111616433299     -1.03494141337529     -1.11400444163895
  O   1.67966402699535     -0.25202231602643     -1.92844726098569
  O   0.89949487670036     -2.20836986833344     -1.28163445472296
  N   -0.82394957166399      0.91747066557980     -0.86734741216810
  O   -0.46224022058081      2.07457409825397     -0.69281632035259
  O   -1.35295541486341      0.43209062206204     -1.85998474220384
  N   -0.89828933513266      0.65114270156671      1.53696546298090
  O   -2.09496310316773      0.65913751208798      1.80375995044325
  O   0.01283458947677      1.16729655946103      2.17301960378874
