14
Coordinates from ORCA-job run
  C   0.87112653679465     -0.42897728304443      0.23966663934662
  C   -0.57623240428108      0.00119844678766      0.18291677888936
  F   1.01541342597977     -1.28540326284538      1.28644155384663
  H   -1.26000957798041     -0.83157285738295      0.04273388676658
  H   1.56469773257141      0.40290351377020      0.33078343822891
  N   1.23064858427291     -1.19003902298856     -1.00801634134513
  O   2.42308625857566     -1.21634975848243     -1.28504266559569
  O   0.31580582974445     -1.75842106494937     -1.59881021243578
  N   -0.80669464923775      0.99565415959830     -0.91280522589024
  O   0.17368665570837      1.35155474708944     -1.55988313890610
  O   -1.96422469289070      1.36951733058394     -1.04627548590597
  N   -0.91835972510623      0.69355437051621      1.46872516624706
  O   -1.84405959762912      0.22616159270372      2.11907674181391
  O   -0.22588437652192      1.67021908864358      1.73948886493990
