14
Coordinates from ORCA-job run
  C   0.66868479460315     -0.90770383520935      0.12053906716616
  C   -0.65386929234462     -0.19900721082446      0.34476600846670
  F   0.42763909175034     -2.06057366387334     -0.53779244774438
  H   -1.32764672174819     -0.86572483570542      0.88333783722248
  H   1.14864342465370     -1.10881841025603      1.07953360351650
  N   1.65221963940532     -0.06906938793970     -0.66658218397041
  O   1.81466826816045      1.05452328132533     -0.20718866708751
  O   2.21398208361998     -0.58730910826474     -1.61297285876917
  N   -1.34588270525707      0.17683083742627     -0.92498763204939
  O   -2.56925481548051      0.21059359055369     -0.85840886402216
  O   -0.64232934780914      0.43435797710525     -1.89512930294757
  N   -0.49708449343202      1.02906122213831      1.20701818368583
  O   -0.85977427459869      2.10137439528958      0.75426311557770
  O   -0.03099565152270      0.79146514823465      2.31260414095526
