14
Coordinates from ORCA-job run
  C   0.96543279696689     -0.15161927281502      0.21531470902645
  C   -0.54525502462335     -0.12832102493653      0.22756332063113
  F   1.38662782160495     -0.80251771887816      1.33279106618504
  H   -0.98500386892639     -1.12188165955563      0.23327189294325
  H   1.41079014286723      0.83839097165547      0.16159655170014
  N   1.45778789654146     -0.93973110612989     -0.96858399601388
  O   2.60356410932136     -0.69523120026923     -1.32468756078122
  O   0.69860633168170     -1.78739245596403     -1.43135986129821
  N   -1.08793204077144      0.62452267040220     -0.94799654280163
  O   -0.27316777453821      1.15211779391016     -1.69902783465083
  O   -2.30838357279128      0.65092787479298     -1.03453411031363
  N   -1.00078889741417      0.60652509878385      1.45334284956139
  O   -0.58536591428452      1.75655360120630      1.56092026809214
  O   -1.73491200563422     -0.00134357220243      2.22138924771993
