14
Coordinates from ORCA-job run
  C   0.63709028104049     -0.92699634425923      0.14041023751758
  C   -0.65930305701709     -0.16765288957074      0.35141904956879
  F   0.35386514479295     -2.08475667699833     -0.49208301557530
  H   -1.35372209044735     -0.79733366707570      0.90804674737183
  H   1.11294912937626     -1.12379799009410      1.10231123476549
  N   1.64732476306314     -0.14094033220934     -0.66701476701498
  O   1.85362385801568      0.98453033282852     -0.23040920643830
  O   2.18431087440512     -0.69763534409136     -1.60599003519873
  N   -1.34202288907496      0.19963064804195     -0.92573200613612
  O   -0.63225123364129      0.41855283798367     -1.90079976396782
  O   -2.56413459018892      0.26705406352040     -0.86019869938311
  N   -0.45713650682741      1.07462036377900      1.18239784878408
  O   -0.78514967837723      2.14731966130998      0.70447025501046
  O   0.00455599488065      0.84840533683525      2.29217212069613
