14
Coordinates from ORCA-job run
  C   0.52279889892920     -0.98459489478455      0.20639374976861
  C   -0.66218630985965     -0.05306040149721      0.37925589739767
  F   0.07744665141653     -2.14864722163425     -0.31062453739384
  H   -1.40934902244450     -0.54203312529142      1.00474135358685
  H   1.00356964480162     -1.15434769885666      1.17106574517155
  N   1.59257213590164     -0.40491924448712     -0.69296976417854
  O   2.02695845600275     -1.10526920879017     -1.58772394117541
  O   1.95056323417724      0.71934049226086     -0.36443123796887
  N   -1.33790842289215      0.29113773620804     -0.90792796660286
  O   -2.53629807693518      0.53114486249736     -0.81635970454434
  O   -0.64426757017900      0.32071345325195     -1.91816726995575
  N   -0.27999266084843      1.21926982685661      1.09449257911502
  O   -0.48570428305611      2.28092824300364      0.53145281794830
  O   0.18279732498598      1.03033718126293      2.21080227883159
