14
Coordinates from ORCA-job run
  C   0.75631350134284     -0.64421676414303      0.14875636780663
  C   -0.26778369526999      0.47314147080075      0.20165310232097
  F   0.16246785094720     -1.84096691946158      0.01283441177276
  H   0.15886985636121      1.43367314872411     -0.08024479446425
  H   1.39716285720006     -0.63567758413008      1.03097799801036
  N   1.67792716689668     -0.39877201321321     -1.03500225866730
  O   1.79072580405187     -1.28474820196373     -1.86309696450219
  O   2.24849473808201      0.68472567132000     -1.00113215674950
  N   -0.87149809246653      0.61947544643692      1.56077831485025
  O   -0.74516070947746     -0.31707669154100      2.34332405052786
  O   -1.46090773406115      1.67702120891667      1.75123757417127
  N   -1.37096110413247      0.15864469683660     -0.77969160074651
  O   -0.99357582463327      0.16402891203825     -1.94408762653854
  O   -2.48407461484099     -0.08925238062067     -0.34630641779178
