17

C	-0.345236	-0.000894	-1.504415
C	0.0	0.0	0.0
Cl	-2.147799	-0.000295	-1.708302
H	1.098966	0.0	0.0
C	0.22026	1.253572	-2.14589
H	1.300549	1.270353	-1.97397
H	-0.225563	2.152971	-1.717563
H	0.019234	1.241773	-3.218985
C	0.218504	-1.256759	-2.145008
H	0.018997	-1.245025	-3.218345
H	1.298563	-1.275523	-1.971835
H	-0.229738	-2.155074	-1.717091
C	-0.478711	-1.198139	0.684844
N	-0.849216	-2.170077	1.230594
C	-0.478273	1.199269	0.683284
N	-0.848575	2.172724	1.226457
Br	3.382655	0.0	0.0
