17

C	-0.480784	-0.015846	-1.474941
C	0.0	0.0	0.0
Cl	0.178374	1.471745	-2.246824
H	1.096744	0.0	0.0
C	0.127129	-1.221502	-2.175123
H	1.211919	-1.218205	-2.039603
H	-0.284791	-2.144037	-1.755394
H	-0.107907	-1.187805	-3.2415
C	-1.996054	0.036258	-1.587111
H	-2.388117	0.936214	-1.10809
H	-2.289324	0.050044	-2.639167
H	-2.438271	-0.843275	-1.109269
C	-0.479739	-1.197105	0.690847
N	-0.871905	-2.179563	1.203843
C	-0.470147	1.189041	0.712404
N	-0.870493	2.152276	1.251907
Br	3.364998	0.0	0.0
