19

C	0.0	0.0	0.0
C	-0.354784	0.04056	-1.528189
Cl	1.802616	0.0	0.0
H	0.428553	0.652172	-1.995092
N	-0.466671	1.158476	0.71762
H	-0.420926	1.953147	0.091599
H	-1.469052	1.001679	0.86731
C	-0.494988	-1.234493	0.726879
H	-0.221126	-1.142373	1.781677
H	-0.058517	-2.148613	0.324728
H	-1.58697	-1.258542	0.636851
N	-1.617801	0.741618	-1.727715
H	-2.361861	0.403489	-1.071465
H	-1.953422	0.536651	-2.663879
C	-0.292947	-1.343217	-2.175076
H	0.660718	-1.846303	-1.988605
H	-1.110165	-1.967868	-1.813219
H	-0.409694	-1.235149	-3.25827
H	-3.518277	0.0	0.0
