19

C	0.0	0.0	0.0
C	-0.332827	-0.016514	-1.515965
Cl	1.831098	0.0	0.0
H	0.416148	-0.677999	-1.978532
N	-0.508899	1.153426	0.646991
H	-1.121854	1.64706	0.010043
H	-1.03166	0.897977	1.471134
C	-0.430022	-1.280167	0.689974
H	-0.049006	-1.283203	1.715205
H	-0.04693	-2.16906	0.185141
H	-1.525233	-1.303896	0.704541
N	-0.220065	1.361632	-2.0104
H	-0.429868	1.367949	-3.001744
H	0.737047	1.681456	-1.887443
C	-1.71893	-0.556567	-1.8326
H	-1.725537	-1.647154	-1.7414
H	-1.971246	-0.314768	-2.874315
H	-2.525083	-0.175659	-1.18291
H	-4.039958	0.0	0.0
