19

C	0.0	0.0	0.0
C	-0.523091	0.106769	-1.444509
Cl	1.798797	0.0	0.0
H	-1.597807	0.287837	-1.269269
N	-0.493708	1.071186	0.837937
H	-1.519487	0.937669	0.821792
H	-0.30503	1.961761	0.387502
C	-0.454226	-1.30471	0.628765
H	-1.550455	-1.320295	0.567171
H	-0.146981	-1.314037	1.676288
H	-0.014481	-2.156539	0.109727
N	-0.318806	-1.150243	-2.184791
H	-1.065547	-1.779586	-1.903168
H	-0.483706	-0.95645	-3.168144
C	0.080588	1.247713	-2.245379
H	-0.512084	1.414459	-3.15192
H	0.087376	2.185312	-1.685272
H	1.107092	1.008773	-2.534717
H	-3.258923	0.0	0.0
