19

C	0.0	0.0	0.0
C	-0.365799	-0.303362	-1.500946
Cl	1.803221	0.0	0.0
H	0.401004	0.226047	-2.077411
N	-0.471125	1.334051	0.308928
H	-0.210736	1.547064	1.268286
H	-1.49506	1.250165	0.29561
C	-0.488929	-1.039478	0.993746
H	-0.200537	-0.738499	2.006582
H	-0.082432	-2.03332	0.799581
H	-1.584133	-1.050312	0.92435
N	-1.648831	0.187364	-1.961907
H	-2.406717	-0.042157	-1.287872
H	-1.612622	1.201158	-1.970052
C	-0.265385	-1.791559	-1.818357
H	0.680136	-2.228975	-1.486639
H	-1.094179	-2.329205	-1.350963
H	-0.357679	-1.918005	-2.899285
H	-3.483122	0.0	0.0
