19

C	0.0	0.0	0.0
C	-0.440144	0.058585	-1.516601
Cl	1.810645	0.0	0.0
H	0.443308	0.33616	-2.100765
N	-0.444504	1.127543	0.780262
H	-1.442501	0.949739	0.940797
H	-0.43052	1.938703	0.166961
C	-0.438139	-1.255343	0.737843
H	-0.02292	-2.159248	0.292581
H	-0.090265	-1.174383	1.769318
H	-1.532285	-1.283599	0.720881
N	-1.416035	1.142764	-1.676299
H	-1.68315	1.16601	-2.656222
H	-2.260726	0.853844	-1.142304
C	-0.972169	-1.276632	-2.048936
H	-1.187213	-1.165315	-3.117934
H	-1.912164	-1.509405	-1.5413
H	-0.268242	-2.110429	-1.936089
H	-3.351793	0.0	0.0
