19

C	0.0	0.0	0.0
C	-0.341507	-0.067467	-1.531787
Cl	1.860649	0.0	0.0
H	0.430535	0.543767	-2.010165
N	-0.460984	1.268281	0.508537
H	-1.486064	1.191621	0.471252
H	-0.211387	1.328515	1.491857
C	-0.466355	-1.1832	0.823049
H	-1.562407	-1.1904	0.757073
H	-0.176292	-1.039852	1.868783
H	-0.053444	-2.131112	0.474449
N	-1.620925	0.491739	-1.923211
H	-1.583988	1.494929	-1.771083
H	-2.381127	0.16132	-1.295364
C	-0.239744	-1.487582	-2.074237
H	0.703068	-1.971874	-1.806086
H	-0.323605	-1.444511	-3.161671
H	-1.072411	-2.088523	-1.702189
H	-3.439414	0.0	0.0
