19

C	0.0	0.0	0.0
C	-0.240397	-0.000721	-1.548183
Cl	1.836908	0.0	0.0
H	0.433076	-0.768425	-1.958101
N	-0.512977	1.134922	0.685611
H	-0.425379	1.927791	0.054334
H	-1.5158	0.961374	0.816625
C	-0.470471	-1.275498	0.660914
H	-0.087221	-2.152309	0.133677
H	-1.567146	-1.28201	0.651155
H	-0.115113	-1.296481	1.693719
N	0.113366	1.334348	-2.052673
H	-0.298992	1.462218	-2.967804
H	1.119156	1.412025	-2.143154
C	-1.655931	-0.347748	-1.967976
H	-1.900491	-1.381073	-1.721794
H	-2.425747	0.238545	-1.45764
H	-1.739615	-0.23937	-3.058162
H	-3.781142	0.0	0.0
