13
Coordinates from ORCA-job run
  C   -0.77257478381110     -0.26338230203366      0.01506377058894
  C   0.50991147815558      0.19216546546783     -0.08015813871463
  N   -1.23140807836362     -0.69068243974308      1.25639411235053
  H   -2.05423708799755     -1.27366982812612      1.21411826984184
  H   -0.48716893282156     -1.08220852180026      1.82341066216173
  C   -1.74387219703900     -0.22000951769200     -1.02968152643276
  N   -2.64817564978808     -0.25139423496280     -1.78350821526914
  N   1.33467104512103      0.18054236340136      1.03912695083556
  H   1.02328682426971      0.83018225169095      1.75302235312207
  H   2.29614239625334      0.36438167869216      0.78393655185562
  N   1.09431340292553      0.62944260893788     -1.34117086190117
  O   0.39979523813691      0.60592412054556     -2.35342767136690
  O   2.27831634495880      0.97770835562219     -1.29612625707168
