13
Coordinates from ORCA-job run
  C   -0.76669331019998     -0.28983395661382      0.06472645644628
  C   0.49307882501245      0.20456033162990     -0.10644841925391
  N   -1.01970474000631     -1.12509294434682      1.14091347982510
  H   -1.99070087781057     -1.18238952062872      1.40950445793175
  H   -0.38443175808142     -0.95720093899316      1.91322309809045
  C   -1.85213551683393     -0.11495016664307     -0.84891050738538
  N   -2.83791558115449     -0.05074618981813     -1.48946439051123
  N   1.48259956414372     -0.09104304582522      0.83158625223794
  H   2.24182931763288      0.57528876369109      0.77143769956976
  H   1.84234210872433     -1.03316613706846      0.72190437123852
  N   0.83434403243055      1.11241946548540     -1.19595566006529
  O   1.96256454597992      1.61102130876452     -1.14763681326873
  O   -0.00517660983714      1.34013303036648     -2.06288002485525
