13
Coordinates from ORCA-job run
  C   -0.72311954118372     -0.38001389367594     -0.02147875266904
  C   0.47602437235658      0.27006902308714     -0.05544323384138
  N   -1.10411706396794     -1.00311449477536      1.16180190675909
  H   -2.09190189759470     -1.20106750128672      1.22456955258153
  H   -0.73426008060236     -0.52714528479006      1.97760326898244
  C   -1.57762837105740     -0.59512945257856     -1.14440324633517
  N   -2.38075925312865     -0.84999052897650     -1.96722134034889
  N   1.26120515589035      0.33472513764194      1.09075964330914
  H   1.63085330336881     -0.57194303080874      1.35530764715168
  H   2.01020942695934      1.00563843880480      0.97952115315819
  N   0.94939057152328      0.98007943705432     -1.23631181262104
  O   2.03034881159685      1.56548433498497     -1.11761065088934
  O   0.25375456583956      0.97340781531870     -2.24809413523721
