13
Coordinates from ORCA-job run
  C   -0.73794485417829     -0.30085468326523      0.18931996937640
  C   0.47168231104361      0.30284224714353     -0.06902748087778
  N   -1.18622597982590     -1.55144433131879     -0.19793381873771
  H   -0.71862582741721     -1.92819812956172     -1.00786419161280
  H   -2.18991408554654     -1.64632786574009     -0.20129359954266
  C   -1.58264192217418      0.41324122214242      1.09520430881566
  N   -2.25716822745380      1.02867339082339      1.84005353298475
  N   0.84734616937080      1.55985155452435      0.38026594302006
  H   1.84656028640134      1.69459154948307      0.32440364968141
  H   0.46354247639345      1.81014933300426      1.27984755414999
  N   1.42332557164958     -0.30126278275787     -0.97307070566828
  O   1.11345426102143     -1.35323050926812     -1.54717504761911
  O   2.50760982071572      0.27296900479080     -1.11273011396993
