13
Coordinates from ORCA-job run
  C   -0.77507507257079     -0.24267459594730     -0.08085411909949
  C   0.51948168332486      0.18451010639084     -0.01752020858661
  N   -1.35329585947189     -0.76252357356189      1.07291362384318
  H   -0.67295173702041     -1.22750912632999      1.66376974281558
  H   -2.18488848502175     -1.30978481459440      0.90678400340603
  C   -1.64272437156420     -0.08535948816929     -1.20215163959243
  N   -2.46728255695710     -0.02613221871254     -2.04126266016228
  N   1.23246620270792      0.05451719988875      1.16954163878688
  H   2.21425412891208      0.25303179023620      1.02523022116943
  H   0.85263862718789      0.63526460425802      1.90968094348738
  N   1.22993267134734      0.71176294482461     -1.17332265814492
  O   2.41081597118242      1.02289694080056     -0.98637263529605
  O   0.63662879794360      0.79100023091642     -2.24543625262670
