13
Coordinates from ORCA-job run
  C   -0.69785111722662     -0.32985293292578      0.25211182813244
  C   0.51505541946164      0.25886463539196     -0.02213485417129
  N   -1.15141325840781     -1.59028302941044     -0.09646318459550
  H   -2.15226575711362     -1.65327842179024     -0.20657394355164
  H   -0.61456683314224     -2.03405723626525     -0.82655103201217
  C   -1.55140485600801      0.41756509340779      1.12406796811639
  N   -2.24460636051638      1.06868709646993      1.81994312387234
  N   1.03582540789676      1.37886923035655      0.60288233864542
  H   1.53776759599606      1.98427794408884     -0.03118176214900
  H   0.37528414922860      1.87104234951926      1.18689901614381
  N   1.41446550125495     -0.31494974289358     -0.99936126656959
  O   2.34748711817667      0.39737450153781     -1.37760149093066
  O   1.18722299040002     -1.45525948748685     -1.42403674093056
