13
Coordinates from ORCA-job run
  C   -0.69611384376106     -0.37748290180929      0.20056167099897
  C   0.50015580555513      0.21548603126570     -0.08033498981089
  N   -1.82507659415164      0.06021029391422     -0.48524298532426
  H   -2.69781188747607     -0.20014602188288     -0.05018761614374
  H   -1.77036898448450      1.04572619037525     -0.71889354404397
  C   -0.87544087083274     -1.51482739433548      1.04337262691645
  N   -1.15897050656740     -2.47096540937775      1.66985673005292
  N   0.55993087073616      1.25326149155492     -1.00281160674077
  H   1.46617460149352      1.70242591594996     -0.98738354448377
  H   0.32526975721840      0.94783956325090     -1.94102114796675
  N   1.73374813703354     -0.14114118278222      0.60768381554013
  O   1.69587594318427     -1.01017746656056      1.47424498924708
  O   2.74162757205237      0.48879089043723      0.27215560175860
