13
Coordinates from ORCA-job run
  C   -0.74938953037887     -0.28345845843070      0.15943064084449
  C   0.48563164568565      0.28749616632304     -0.04712319755923
  N   -1.24410623415001     -1.48459400508131     -0.31896378231386
  H   -2.25088720275915     -1.53468921038827     -0.33856715604109
  H   -0.78471630044365     -1.82130145218032     -1.15075053649443
  C   -1.57453744728692      0.40051540095518      1.10579575846848
  N   -2.22756193220643      0.99482540774775      1.88611936391364
  N   0.90489649820404      1.50300578415546      0.47215359543251
  H   1.91193761342746      1.57069891444504      0.50424068167582
  H   0.46419526126694      1.75314541805832      1.34541383685412
  N   1.43119385006826     -0.30464997305811     -0.96588745612459
  O   1.08480212324084     -1.29777358632878     -1.61821343534932
  O   2.54754165533184      0.21777959378268     -1.03464831330652
