13
Coordinates from ORCA-job run
  C   -0.77904939194960     -0.19666440982349      0.07472916737952
  C   0.52324939773456      0.23541149467769     -0.01726762374766
  N   -1.31233513265987     -1.42913432828630     -0.26394929982178
  H   -0.77144913508692     -1.94581190009318     -0.93953233491554
  H   -2.30603967352305     -1.41742025098092     -0.43136751376902
  C   -1.68053840583055      0.71584330739666      0.70533309284164
  N   -2.40743890368930      1.48995123785386      1.21658737285122
  N   0.97887781335606      1.50899835827622      0.27982260660998
  H   1.91916183967208      1.51021212621947      0.64880616047105
  H   0.33912218858616      2.07421004437819      0.81735626715684
  N   1.55519277075338     -0.62180150451783     -0.55857585394626
  O   2.72028709193988     -0.23762709601169     -0.43822645130009
  O   1.21995954069718     -1.68516707908866     -1.09471558980991
