13
Coordinates from ORCA-job run
  C   -0.70997754029912     -0.30774071236859      0.01113706045025
  C   0.53410053732496      0.24422676059409     -0.08555788799616
  N   -1.14507190028932     -0.60889455844836      1.32761980466998
  H   -1.34373608528484      0.23184820132819      1.85977599982550
  H   -1.95381922547320     -1.21436815397738      1.32935159985748
  C   -1.54882475017871     -0.65337250320468     -1.08273160671789
  N   -2.33593937043615     -1.02354815572078     -1.87905270915388
  N   1.30179352171142      0.52871181577443      1.01138195299688
  H   1.10832908718675     -0.09950439787092      1.78247324282164
  H   2.28031260121261      0.65289515936101      0.79373838632471
  N   1.11349321926804      0.64733995201893     -1.36451277536762
  O   0.38091368167662      0.69281065288011     -2.34865753694521
  O   2.31942622358094      0.90759593963394     -1.35396553076569
