13
Coordinates from ORCA-job run
  C   -0.78425843814348     -0.22652127019832     -0.02143580684096
  C   0.51340355738381      0.19435120940627     -0.04285667387374
  N   -1.15372122682273     -1.18119345104290      0.92010349039183
  H   -0.60784378343665     -1.10683888047197      1.77177396666354
  H   -2.14826658528526     -1.23567741597619      1.08370037012317
  C   -1.78349496315822      0.12948898385271     -0.97637082126115
  N   -2.70690362711982      0.33056587956919     -1.67919529546957
  N   1.41710198549904     -0.29889582709793      0.89168057582746
  H   2.27813037817262      0.23201908789725      0.88025420076933
  H   1.60386739191289     -1.28724551765468      0.76165849444026
  N   0.99170815945743      1.21461595343548     -0.96643285076585
  O   2.17893078121588      1.53450215784374     -0.85074681052671
  O   0.20134637032450      1.69982909043737     -1.77113283947762
