13
Coordinates from ORCA-job run
  C   -0.73388485624234     -0.30424505685079      0.24547374347706
  C   0.46881082462911      0.30006224945844     -0.02144562215605
  N   -1.23076473330483     -1.47428235935812     -0.23736195379282
  H   -0.76162375344618     -1.86866182952116     -1.03789058662816
  H   -2.21684181194267     -1.63970377080437     -0.12596555996863
  C   -1.55931819438281      0.33366165918038      1.23831874895590
  N   -2.31332465077547      0.78280285689137      2.02128293448108
  N   0.84915935896436      1.46563413227757      0.65303550382150
  H   1.05708683288071      2.21185725946399      0.00044467994263
  H   1.67560754460655      1.31221701199616      1.21901502918589
  N   1.35247294625064     -0.23618739819881     -1.04599336423795
  O   2.38504784056136      0.39484438527283     -1.27535186666577
  O   1.02757265220160     -1.27799913980748     -1.63356168641467
