13
Coordinates from ORCA-job run
  C   -0.76078580572004     -0.27394256295190      0.13765922255634
  C   0.48932488567583      0.27859801585369     -0.02418132676255
  N   -1.30167754911940     -1.39500115886089     -0.46683878538946
  H   -2.06269185424278     -1.81218082123187      0.04661367087200
  H   -0.61555383957391     -2.04590877085982     -0.81618971051789
  C   -1.65916714942644      0.49841101561728      0.93881032562095
  N   -2.37198025816774      1.15519540687758      1.60887439400083
  N   0.94026742047978      1.42590425168357      0.61101486319218
  H   0.22420368608626      2.12081046499431      0.76493723895106
  H   1.76454686523133      1.80065534250996      0.16399097210028
  N   1.51035541075529     -0.40584817035246     -0.78402497881155
  O   1.24638052375739     -1.51161262823716     -1.27384099643970
  O   2.59777766426442      0.16591961495771     -0.90682488937250
