13
Coordinates from ORCA-job run
  C   -0.66981770785137     -0.32273513652859      0.12157790103084
  C   0.57051860171163      0.21132404260352     -0.07174994528888
  N   -1.68729078467239      0.17197674170757     -0.75778569179294
  H   -2.56761640515402      0.24934766350754     -0.26352354841638
  H   -1.82570252603237     -0.46604175894187     -1.53618449715545
  C   -1.00900138059467     -1.29082684171839      1.10687144531500
  N   -1.44550118944325     -2.08595034740453      1.86063239372711
  N   0.86842431157852      1.10011152863067     -1.05670912033692
  H   1.66747836857894      1.68578856987957     -0.86551892197569
  H   0.04066367996896      1.55898892059502     -1.41591132823253
  N   1.72318852368655     -0.18082357466847      0.75043345114603
  O   1.64981744048804     -1.22060779668778      1.39740130872914
  O   2.68483906773543      0.58944798902574      0.72946655325068
