13
Coordinates from ORCA-job run
  C   -0.77444789403558     -0.22853872405733      0.08696019738652
  C   0.48364151319354      0.30021950621260     -0.08974071542992
  N   -1.35126648544330     -1.32524110630870     -0.52947687056085
  H   -2.05324087041704     -1.79110678507468      0.02528464171703
  H   -0.69247119593556     -1.93838164367292     -0.98543673111395
  C   -1.64306466724868      0.53982018598305      0.92506895214126
  N   -2.32546366654212      1.17911957065945      1.64234528537841
  N   0.89877939517295      1.55968918007384      0.30714965499183
  H   1.85500834347140      1.57575014845916      0.63158213227430
  H   0.25729243838851      2.02948304647212      0.92958775587048
  N   1.50508620994911     -0.43566229866828     -0.80232720600506
  O   1.18201338797911     -1.45412545773305     -1.42729418672850
  O   2.65913349146766     -0.01002562234527     -0.71070290992154
