13
Coordinates from ORCA-job run
  C   -0.77068105827959     -0.24843725367089      0.10714599257329
  C   0.50564599834008      0.25574062295839      0.00065541954861
  N   -1.32316681862984     -1.35536327066889     -0.51459348526530
  H   -0.64809130382470     -2.03713520698222     -0.82437716012366
  H   -2.12523869529050     -1.73694155104880     -0.03756421787146
  C   -1.67550484674109      0.56190285661381      0.86098360138222
  N   -2.39115542248247      1.25202185517005      1.49381869835722
  N   0.98412521866172      1.37512012652611      0.66371197796111
  H   1.78488009302211      1.77846726289374      0.19923029251849
  H   0.27412358393149      2.05505777825230      0.89322016125728
  N   1.52295747435134     -0.45158637295969     -0.74430350187269
  O   1.24172214246973     -1.55066273335880     -1.23896582426741
  O   2.62038363447172      0.10181588627490     -0.85696195419770
