13
Coordinates from ORCA-job run
  C   -0.77682175884445     -0.17934850151888     -0.03632491100096
  C   0.53213971576096      0.21194859082567     -0.04870955161771
  N   -1.28931127998000     -1.07859056547908      0.90625164481468
  H   -2.15513072546767     -0.79792217128214      1.34151869133982
  H   -0.62392972987556     -1.45835514291427      1.55942974642465
  C   -1.74550363765924      0.24448215270971     -0.99621580602770
  N   -2.65868308714622      0.52591868601846     -1.68481826602015
  N   1.44576699491742      0.02877360930686      0.96265678166799
  H   2.35561882849962     -0.30941983331827      0.69398434290940
  H   1.09501484402136     -0.30837222486922      1.84153593159023
  N   1.11307742993465      0.87897327658444     -1.21644310895833
  O   0.36630910754116      1.42206732291132     -2.02422306636441
  O   2.34145329829796      0.81984480102540     -1.30064242875750
