13
Coordinates from ORCA-job run
  C   -0.73473806472724     -0.28685898270979      0.20370243755217
  C   0.50541017870849      0.25229573864138     -0.00190628730954
  N   -1.83343253555577      0.26885034241233     -0.39725254301470
  H   -2.64481754489046     -0.29906268539341     -0.52911463535095
  H   -1.66748587178923      1.03343909591227     -0.99671808187519
  C   -0.96683116849998     -1.45658583908579      0.98703710964789
  N   -1.25390391683832     -2.46347002409909      1.52471153872418
  N   0.70587206934648      1.17210678883940     -0.96036023174142
  H   0.45064064483551      0.91808427417335     -1.89234278144846
  H   1.58347529498597      1.63569564877967     -0.90984753307051
  N   1.65284871919875     -0.17073052906682      0.78053176586633
  O   2.75345507866304      0.23954112669242      0.40266836491018
  O   1.44950711656278     -0.84330495509591      1.78889087711000
