13
Coordinates from ORCA-job run
  C   -0.73476116890810     -0.20628199200985      0.17259002380359
  C   0.50445154478709      0.28844663135624     -0.06982449986013
  N   -1.08363631208702     -1.50456753323811     -0.28817794285537
  H   -1.55519631873103     -2.02971755322566      0.43590523268738
  H   -1.67650186804537     -1.46727153049275     -1.10926144086331
  C   -1.65002849238203      0.63052795383675      0.88359756202862
  N   -2.38360212304002      1.32993838291930      1.48567093822536
  N   1.00463394273304      1.53810350013366      0.16010026290921
  H   0.41110873447720      2.16173819896024      0.68710061522795
  H   1.97534429337983      1.56073759223654      0.43669958723567
  N   1.47450816342848     -0.57108815918299     -0.76111079401480
  O   1.26222985733729     -0.82531407263555     -1.93958988129149
  O   2.45244974705066     -0.90425141865784     -0.09369966323267
