13
Coordinates from ORCA-job run
  C   -0.72263024628234     -0.30064573024140      0.19722655242538
  C   0.48759878632399      0.29350141385662     -0.07982998537989
  N   -1.18943719168185     -1.54828209201721     -0.17756135540431
  H   -0.72019537922362     -1.94120077471842     -0.97987515235460
  H   -2.19516652646269     -1.62504760822291     -0.19607734886737
  C   -1.56458667719378      0.43744780611342      1.08781960431216
  N   -2.23680340611504      1.06998967742533      1.82073120660899
  N   0.85451129067427      1.58434817062156      0.26899846745796
  H   0.26608252267174      1.99664452281199      0.97875933413863
  H   1.83819665238823      1.65840179046259      0.48670139275284
  N   1.46092350006427     -0.36461104670875     -0.92280255408615
  O   2.57039526295442      0.16712050619542     -1.01097506041381
  O   1.14911141188240     -1.42866663557824     -1.47211510118982
