13
Coordinates from ORCA-job run
  C   -0.74201426631860     -0.28330515012338      0.16005340365547
  C   0.45300913336454      0.33611442313882     -0.12587925482493
  N   -1.32379478899015     -1.37647803254789     -0.45796646396471
  H   -0.68851334271817     -1.91864630170677     -1.02396233691793
  H   -1.93028830208213     -1.91618520122772      0.14030510814851
  C   -1.54894438851819      0.37418086769419      1.14184582733992
  N   -2.18129915726089      0.92048063648687      1.97257306839127
  N   0.83843782080380      1.59500271434716      0.30064215027508
  H   0.23694261984172      1.99605861210767      1.00550967709056
  H   1.81978465358717      1.65084298162732      0.53304285766440
  N   1.42436423663858     -0.29024314486395     -0.99620398654173
  O   1.09001826688711     -1.29165959905854     -1.64243276238591
  O   2.55429751476520      0.20383719412622     -1.00952728793002
