13
Coordinates from ORCA-job run
  C   -0.70764778423019     -0.33185730128382      0.20120177184149
  C   0.54294923489602      0.15663168541090     -0.06293634993158
  N   -1.84923580275730      0.17013786540834     -0.43042569269084
  H   -1.70785521556038      0.97224652987490     -1.02137898168874
  H   -2.48046683951893     -0.51500255097391     -0.81588968885116
  C   -0.98212847152514     -1.37332952009148      1.13761149653958
  N   -1.35932065436255     -2.24257258719245      1.83745972921047
  N   0.87190913322119      0.96055237637472     -1.12047623749887
  H   1.51967603801808      1.71423968295963     -0.97219656561350
  H   0.24680794339518      1.01833998378158     -1.90259152744124
  N   1.67509018072779     -0.11988654086390      0.82428731043126
  O   2.65962209796641      0.60637250604664      0.67105349693574
  O   1.57260013972983     -1.01687212945114      1.65528123875740
