13
Coordinates from ORCA-job run
  C   -0.79878671397215     -0.19764394023619      0.06525213199092
  C   0.50487097986459      0.23959270963526      0.03549335185368
  N   -1.34318626715341     -1.33490813228802     -0.49195831182281
  H   -0.81100045428173     -1.72661171680629     -1.25385393757585
  H   -2.34132537191024     -1.30002935430918     -0.62747617395160
  C   -1.66832021559707      0.54782352362853      0.92588382099950
  N   -2.39072269890897      1.16013135931251      1.62620536846152
  N   0.96280802246472      1.33710635518469      0.75291958173035
  H   1.93359284336220      1.52751296747663      0.54940359928219
  H   0.78272579294152      1.28624563246857      1.74512147543691
  N   1.46590638614211     -0.36053443653210     -0.86516017157461
  O   1.10798612824856     -1.31477000284233     -1.56829891385763
  O   2.59645156879986      0.13508503530794     -0.89453182097257
