13
Coordinates from ORCA-job run
  C   -0.67079285680021     -0.42141146682589      0.19201122408545
  C   0.51421655037679      0.21486775328174     -0.06093236084619
  N   -1.81972474532119     -0.17554721156256     -0.56712757370328
  H   -1.69305260897311      0.37384025793385     -1.40058199113058
  H   -2.65392262719685      0.05408187230001     -0.04960741196356
  C   -0.87027990006822     -1.33424485627133      1.27007977305248
  N   -1.19761893769369     -2.04771649078336      2.14978198529344
  N   0.67515659944478      1.31136081374407     -0.86262655932385
  H   -0.13556165047554      1.77445973226092     -1.22563516312231
  H   1.53346620750624      1.40229701474036     -1.37550020383371
  N   1.77661621704038     -0.26115488871295      0.51077847695028
  O   2.79364977530386      0.32602739999442      0.13455142306630
  O   1.74784797685675     -1.21585993009928      1.28380838147553
