13
Coordinates from ORCA-job run
  C   -0.76612772957561     -0.24340048841348      0.10734006825047
  C   0.54591138072426      0.17071856305223      0.08250631266531
  N   -1.33958850132178     -1.35101510685978     -0.49401449601430
  H   -2.31516641296336     -1.23573383162311     -0.72347487924295
  H   -0.77742528970553     -1.75868705790253     -1.22591925492864
  C   -1.62113162752642      0.49876474486362      0.98250298875058
  N   -2.30949178502140      1.14689276484834      1.68588133260744
  N   1.12614533556030      1.08499778748453      0.94381875700186
  H   1.79456150649934      1.69006018182363      0.48879134625651
  H   0.46797880751546      1.58071227905487      1.52746781475677
  N   1.48370833360152     -0.39052365450819     -0.86555768974005
  O   2.55629739782376      0.20346400929914     -0.99994798798835
  O   1.15432858438946     -1.39525019111926     -1.50939431237465
