13
Coordinates from ORCA-job run
  C   -0.75051069638447     -0.23050480272842      0.07753668027805
  C   0.52142544448343      0.26722892476197      0.00648908416262
  N   -1.20786380302973     -1.41063091291743     -0.53067502563802
  H   -0.69449512473698     -2.24029767007101     -0.27388276864737
  H   -2.20245957327860     -1.52655142320541     -0.43144370349448
  C   -1.68473621936129      0.56647843462520      0.80425751632608
  N   -2.43362379548820      1.25327403245634      1.40309582909778
  N   1.03206302468878      1.34964225901327      0.69094889657543
  H   1.74620714339577      1.83530395511642      0.16566545760780
  H   0.32547393310725      1.96788572014152      1.06716224566608
  N   1.52210537853364     -0.43520545898863     -0.78627279872172
  O   2.39365645423080      0.26477241497928     -1.30735809770815
  O   1.43075783383958     -1.66039547318309     -0.88552331550409
