13
Coordinates from ORCA-job run
  C   -0.77722227332000     -0.24774527718174      0.16263607095165
  C   0.49455892975629      0.25250741417988      0.03967635051129
  N   -1.33947095509663     -1.32076137556223     -0.45494117476489
  H   -2.34285201704726     -1.39274568041994     -0.43492992153087
  H   -0.84409163022345     -1.69550021856180     -1.24897479762414
  C   -1.61857987857758      0.38961582121103      1.14260014886656
  N   -2.38844230448853      0.84889258338788      1.90391737230182
  N   0.92446017957838      1.31880292740804      0.83750882409768
  H   1.68988286390222      1.04229388516010      1.44153303326574
  H   1.24638076435509      2.09219009953102      0.26792863320848
  N   1.40742389225730     -0.29009585182043     -0.95536600435770
  O   2.51094366254417      0.24866007455225     -1.04986858374716
  O   1.03700876636001     -1.24611440188406     -1.65171995117847
