13
Coordinates from ORCA-job run
  C   -0.67694151174782     -0.37676102465685      0.19190162366151
  C   0.54159159235036      0.17735719218521     -0.09196029940205
  N   -1.83669244816930     -0.06519852854078     -0.52358697020072
  H   -2.64329508523412      0.16129658965147      0.04183994406517
  H   -1.71897633631834      0.55171808829470     -1.31396800638202
  C   -0.88324324983562     -1.32840644253779      1.23700254815284
  N   -1.17276425029143     -2.08048646286433      2.09515221162254
  N   0.73114132579872      1.32995002831100     -0.81241391306987
  H   -0.07966172229065      1.89666359559318     -0.98284277061678
  H   1.41262332080205      1.32263625603153     -1.55652720772514
  N   1.78358240490775     -0.37904270990310      0.45819265013213
  O   1.73978564616200     -1.49432957862760      0.97324146105466
  O   2.80385031386641      0.28560299706336      0.28396872870774
