13
Coordinates from ORCA-job run
  C   -0.78726481942707     -0.19123228595075      0.04773537767007
  C   0.50106129773813      0.28396983976281     -0.03864223701423
  N   -1.43016826145973     -1.11279643163647     -0.76082901142017
  H   -0.80868389125854     -1.66797351094980     -1.32966934523295
  H   -2.15848922674397     -1.63274573409173     -0.29515509877944
  C   -1.60842628815731      0.45468952944509      1.02538697127024
  N   -2.25262007361314      0.98430710896448      1.85799425743919
  N   0.99416927186382      1.41660395799920      0.58598566994022
  H   0.37712772144251      1.80406866769724      1.28508290692583
  H   1.94438324495280      1.30530709589693      0.90963864989453
  N   1.47783370735825     -0.36906546037857     -0.88286033045489
  O   1.09347459273158     -1.22630948192959     -1.68877259503806
  O   2.65660272457268     -0.04682329482884     -0.71589521520035
