13
Coordinates from ORCA-job run
  C   -0.74634997957295     -0.29868427245352      0.21123153426539
  C   0.45957174042411      0.30767697283396     -0.04808216970182
  N   -1.32485399012478     -1.37964729534298     -0.41295861750524
  H   -2.03266195764008     -1.85453309002465      0.12478947874224
  H   -0.68024643953917     -1.97365991582571     -0.91177486484061
  C   -1.58688537804015      0.38881869127707      1.14903631719539
  N   -2.29833684677838      0.92488274822453      1.91929802380464
  N   0.83537014561349      1.51054750917336      0.53972480088734
  H   0.34641210217121      2.31675189166163      0.17217255614089
  H   1.83722847805066      1.63351711577773      0.49462436018588
  N   1.45882932120844     -0.34813975730759     -0.86874043179192
  O   2.57233623113728      0.18214557557329     -0.93358299534412
  O   1.16158657309032     -1.40867617356711     -1.43573799203805
