13
Coordinates from ORCA-job run
  C   -0.78134109152241     -0.25088692389663      0.10644390339986
  C   0.50646080660507      0.23104749102346      0.05022591243369
  N   -1.42745544952960     -1.10587759590883     -0.76625443049072
  H   -0.80923839499448     -1.69562071186704     -1.30362261931537
  H   -2.22352717403549     -1.57465448868836     -0.35978424938570
  C   -1.60910568374503      0.36099716965885      1.10285007131285
  N   -2.28814979729102      0.87657827069488      1.91515169613105
  N   1.00040285556339      1.20850525501542      0.89891812936613
  H   1.98312455215199      1.37865674684819      0.74552555113589
  H   0.45313097279408      2.05532039385063      0.93028016903749
  N   1.47049986519086     -0.34160832974080     -0.86653851301948
  O   1.10284755756346     -1.24442049855370     -1.62966215197528
  O   2.62235098124918      0.10196322156393     -0.82353346863040
