13
Coordinates from ORCA-job run
  C   -0.76774650964670     -0.25603787279299      0.10112386400392
  C   0.50306708112561      0.26284068534573     -0.00103384306910
  N   -1.30009544142576     -1.38063151638177     -0.50609433890773
  H   -0.61326282960580     -2.05618745614596     -0.80353904926766
  H   -2.09831836703898     -1.76741223619094     -0.02669761514486
  C   -1.68993048967225      0.55145663158647      0.83669782082591
  N   -2.42055928350640      1.23927181380186      1.45475086805070
  N   0.96472199927173      1.39409801911195      0.65365113422077
  H   1.74854044732495      1.81716623797541      0.17768193208429
  H   0.24182572828158      2.05447347270295      0.89920309632149
  N   1.53481167506942     -0.43966682988918     -0.72992716541649
  O   2.62623509559969      0.12612440636030     -0.83899847872788
  O   1.27071089422291     -1.54649535548383     -1.21681822497336
