13
Coordinates from ORCA-job run
  C   -0.75639315591272     -0.26509776378216      0.19754319505771
  C   0.42660908468404      0.31802963102080     -0.19512161123166
  N   -1.24886452533911     -1.52577283152739     -0.09334937116732
  H   -0.56173495177060     -2.16276071734903     -0.46500871731472
  H   -1.83845671837575     -1.91570920900944      0.62699035193802
  C   -1.63874965231955      0.60004731760479      0.91787503043459
  N   -2.32086288876435      1.33669914294286      1.53523893581447
  N   0.74108614303159      1.66172625183352     -0.07315783176186
  H   0.26262387134107      2.13119087924830      0.68368985908871
  H   1.73871199388048      1.81301993198892     -0.06190393037993
  N   1.45282553886559     -0.45746308746233     -0.85667352452364
  O   2.55668439520506      0.07539298782292     -0.99935385851626
  O   1.18452086547427     -1.61130253333175     -1.21776852743811
