13
Coordinates from ORCA-job run
  C   -0.73300124382335     -0.25515303257130      0.09020183603611
  C   0.49806918602803      0.29128383783580     -0.17841410027412
  N   -1.17324520394141     -1.55335370270707     -0.14026662167855
  H   -0.48509056908101     -2.25520139984408      0.07888187815693
  H   -2.08285679731479     -1.74957977447029      0.24662509777762
  C   -1.71173627564510      0.67436172537084      0.56618576050498
  N   -2.49557338872538      1.45491275527528      0.97474113530622
  N   0.81738055653543      1.63802686887784     -0.10578495233602
  H   1.65440150939668      1.87069539640055      0.40970514549129
  H   0.04364533611371      2.24724823839158      0.10979486007335
  N   1.59804718143434     -0.56328945240481     -0.58836114513786
  O   2.56933567582881     -0.02950631550475     -1.12168323578494
  O   1.50062403319403     -1.77144514464960     -0.33962565813502
