13
Coordinates from ORCA-job run
  C   -0.79574028538628     -0.15643679507167      0.03222012478446
  C   0.51384728689342      0.26137805356543     -0.02924763314578
  N   -1.45958365305475     -1.05885713457099     -0.78053284872649
  H   -0.85112241986831     -1.64481477925113     -1.33231390124123
  H   -2.22092099998380     -1.54128500929205     -0.32772216757369
  C   -1.60965742483653      0.53440033479346      0.98492394210085
  N   -2.24967426319076      1.09839326070187      1.79793824261561
  N   1.04161450334344      1.37842318407068      0.59540254865901
  H   1.98031572591036      1.23013913985368      0.93743351064268
  H   0.42890454597919      1.79662169762375      1.28074360386195
  N   1.47928231476630     -0.44075212462005     -0.84660064390365
  O   1.07573302693941     -1.28927252831607     -1.65249356533462
  O   2.66700164248833     -0.16593729948691     -0.65875121273908
