13
Coordinates from ORCA-job run
  C   -0.78150530020954     -0.24384517380191      0.14705991503644
  C   0.49539965503897      0.24891889176511      0.04910774072218
  N   -1.34483641467312     -1.29916004796830     -0.49953703833846
  H   -0.84441260433626     -1.65974984509576     -1.29706891275026
  H   -2.34872147420638     -1.36403350735380     -0.49107349748577
  C   -1.62762238309347      0.37661224287950      1.13365299897809
  N   -2.40014197615792      0.82381550884807      1.89944118408474
  N   0.92617738755621      1.29082499924063      0.87800057864062
  H   1.67219222139593      0.98825480865480      1.49355592481770
  H   1.27550839313225      2.06881834181316      0.33137354258626
  N   1.41383474795158     -0.27604164041713     -0.95025689620736
  O   1.04288638468706     -1.21102016920807     -1.67438879374758
  O   2.52224136291467      0.25660559064370     -1.02086674633659
