13
Coordinates from ORCA-job run
  C   -0.75965648372607     -0.30392057670556     -0.04567130781300
  C   0.49728596197921      0.22812136468710     -0.03444224447142
  N   -1.31328288343560     -0.73094423053438      1.15351260208373
  H   -2.07876281296917     -1.38048847264415      1.05210100635413
  H   -0.60677971841392     -1.02958285329656      1.81720589150413
  C   -1.62472270518319     -0.35162739676307     -1.18118968303166
  N   -2.44378550012682     -0.47145386128286     -2.01832613786219
  N   1.21063714514113      0.28503631354275      1.16141310077005
  H   0.84265306997051      0.98889267676280      1.79216142193503
  H   2.19036798842588      0.46258339873882      0.98199603188514
  N   1.17488151945684      0.66110763805845     -1.25012962192327
  O   0.57525881591366      0.58799526621251     -2.31938144072894
  O   2.33690560296754      1.05628073322414     -1.11024961870174
