13
Coordinates from ORCA-job run
  C   -0.81626797871180     -0.11602944293082     -0.02273925381527
  C   0.52604894136594      0.12753242851699     -0.02555572536750
  N   -1.38176721712758     -0.76389809839434      1.06024740699566
  H   -2.25727748866110     -1.22750997206576      0.86925757323559
  H   -0.70625788910848     -1.31908554416539      1.57177394259562
  C   -1.74269360583003      0.34142986263994     -1.01226002179012
  N   -2.62434800782832      0.61897579484910     -1.74144665083978
  N   1.31253190638028     -0.33948986607557      1.02997639517446
  H   1.29029884990497      0.28101145648084      1.83228288191248
  H   2.27114459262874     -0.45649301475106      0.72732277559248
  N   1.19286445274789      0.78920175104615     -1.14254772693927
  O   2.42631251927389      0.80725988046193     -1.09895442980446
  O   0.50941092496558      1.25709476438798     -2.04835716694987
