13
Coordinates from ORCA-job run
  C   -0.70124683497196     -0.34129734890450      0.27995696787900
  C   0.43328230066471      0.33721006075888     -0.08741024412007
  N   -1.29920989585996     -1.41561899907461     -0.32642272994236
  H   -1.94127335999670     -1.93490663818789      0.24969538736071
  H   -0.70234742914990     -1.95301154754121     -0.93378283711814
  C   -1.43495429176069      0.22309526631779      1.37793962906759
  N   -2.03086105284788      0.63189720120158      2.30631215342212
  N   0.78851156886045      1.54685981431716      0.49682613043841
  H   1.78584667673897      1.69841966942045      0.47344675855113
  H   0.29180455608808      2.34570599512240      0.12132377846723
  N   1.34453070669222     -0.21748105979264     -1.08001716324985
  O   2.42142574628974      0.36388739831847     -1.23990763338690
  O   1.04449130925293     -1.28375981195589     -1.63896019736888
