13
Coordinates from ORCA-job run
  C   -0.79226607918495     -0.22492997911605      0.11643965193389
  C   0.48029645015718      0.27993364691629      0.02492271731895
  N   -1.40645581723127     -1.14847902586833     -0.67089293760511
  H   -0.81174393252030     -1.68834715889010     -1.28027469654208
  H   -2.24191295218879     -1.57831019123552     -0.31068361433186
  C   -1.63611963087412      0.36012030625465      1.12616387549545
  N   -2.39815703047689      0.76047134125650      1.92761682641393
  N   0.90382251934927      1.31138807082332      0.86989933034531
  H   1.74719089562719      1.05142633623116      1.36676225782353
  H   1.10002242271000      2.15916443811332      0.35093612219885
  N   1.42945243958746     -0.28011198596823     -0.92603538161080
  O   1.05384571621262     -1.18184258029451     -1.68877724041180
  O   2.57202499883262      0.17951678177751     -0.90707691102824
