13
Coordinates from ORCA-job run
  C   -0.73719170799266     -0.31089892192297      0.22667990866196
  C   0.42883436310903      0.34755363332086     -0.07276949759868
  N   -1.22128974962391     -1.47279344939879     -0.28729704087999
  H   -1.96327212139271     -1.92906506382753      0.21594401942072
  H   -0.57485403083810     -2.03829329644309     -0.81500920883919
  C   -1.62454663552171      0.35425039972025      1.14546081767872
  N   -2.41102005290487      0.80714343787693      1.89359895285391
  N   0.71157710577233      1.59595656349409      0.49203912292268
  H   0.75213398856270      2.32156818996546     -0.21401579554733
  H   1.60266237536642      1.58381206127685      0.97338751838388
  N   1.41375083671444     -0.26117517622958     -0.95496603882406
  O   1.15971850764750     -1.35865495177586     -1.47179507330068
  O   2.46249712110156      0.36059657394337     -1.13025768493195
