13
Coordinates from ORCA-job run
  C   -0.74936755453104     -0.23550769402964      0.08851238757992
  C   0.51543181520017      0.25915536932696      0.01523196539186
  N   -1.13600611434937     -1.40805172652957     -0.60170397608761
  H   -2.09359585243601     -1.33527238508918     -0.92071873815313
  H   -1.01235793008390     -2.24306056752579     -0.03759748694396
  C   -1.66672675897847      0.50619773909650      0.89462068055882
  N   -2.42811365020700      1.14596651023582      1.52920862020991
  N   1.06197741940336      1.31042314507001      0.71520039192997
  H   0.37617093428900      1.93279198113016      1.12952250057488
  H   1.75232935098069      1.81405477944791      0.18045628354297
  N   1.52718240389106     -0.42431672837790     -0.79496804895343
  O   2.22723324116138      0.32080799100718     -1.48780503348158
  O   1.62584269566013     -1.64318841376247     -0.71195954616860
