13
Coordinates from ORCA-job run
  C   -0.81783370763642     -0.12866154395398      0.03564176683726
  C   0.52174768560478      0.10176192888730     -0.07968257699250
  N   -1.27013113169607     -1.16168390920341      0.82824279032182
  H   -2.21420419617045     -1.06556947177270      1.16990780615088
  H   -0.58886668938093     -1.45181749803992      1.51948106499849
  C   -1.83838490122114      0.56666998328571     -0.69113022321881
  N   -2.78663729422211      1.05179529374983     -1.19150444773773
  N   1.41449352599610     -0.66845127052036      0.67642672037942
  H   2.22202688452538     -0.11595703180834      0.93602144669315
  H   1.73943918053880     -1.48160160772501      0.16291836846731
  N   1.05689447908958      1.17167269879626     -0.91659137758309
  O   0.29298819208986      1.79257455296409     -1.65108649441937
  O   2.26646797248264      1.38926787534053     -0.79864484389683
