13
Coordinates from ORCA-job run
  C   -0.72025182484665     -0.30552460867182      0.21660215682564
  C   0.52385944823645      0.24160063776432      0.00159730869023
  N   -1.20018452439399     -1.54819739988536     -0.15884927934065
  H   -2.19749271871191     -1.57895054209923     -0.30656913573425
  H   -0.65006911301570     -2.00707344212870     -0.86917400743203
  C   -1.58607826500834      0.46617747237461      1.05462060630584
  N   -2.28740740174593      1.13706587373837      1.72302112192963
  N   1.05246212099528      1.34139357545141      0.65514334066272
  H   0.38103669512850      1.85921576310979      1.20345360377840
  H   1.61311335235689      1.92594727542926      0.05190148045917
  N   1.44774986459477     -0.36067800266358     -0.93434756437325
  O   2.42854852658908      0.31472904314194     -1.25581927281056
  O   1.19571383982154     -1.48670564556101     -1.38258035896090
