13
Coordinates from ORCA-job run
  C   -0.73619567476475     -0.30183747714980      0.24250924096529
  C   0.46364175641868      0.30705569842298     -0.02775232914743
  N   -1.20347007051023     -1.50369675264735     -0.18957949282448
  H   -2.18919127782746     -1.67963360425639     -0.09196462481707
  H   -0.70940368164229     -1.93115214372141     -0.95726480155796
  C   -1.59185180786388      0.37121117475635      1.18555841712849
  N   -2.36689976040707      0.84906422621140      1.92998911475077
  N   0.81376547976304      1.50849325482292      0.59785551794332
  H   1.04185316537512      2.22124020130181     -0.08481254340208
  H   1.61914066527633      1.38978914412393      1.20124372652881
  N   1.37572140533897     -0.26349716389436     -1.00797674768934
  O   2.40290828696150      0.37264522545064     -1.24780926816086
  O   1.07998151388205     -1.33868178342072     -1.54899620971745
