15

C	-0.560047	0.010159	-1.455656
C	0.0	0.0	0.0
Cl	-0.048127	1.5529	-2.20479
H	1.091396	0.0	0.0
C	0.071754	-1.099249	-2.180898
N	0.512491	-2.011256	-2.774802
N	-1.987882	-0.120165	-1.606526
H	-2.446961	0.536881	-0.984444
H	-2.264436	-1.058898	-1.335692
C	-0.521924	-1.176465	0.67969
N	-0.962993	-2.14806	1.172629
N	-0.499447	1.223937	0.720096
O	-1.708523	1.261593	0.970371
O	0.309057	2.100951	0.981867
Cl	3.163727	0.0	0.0
