15

C	-0.496219	-0.030209	-1.45871
C	0.0	0.0	0.0
Cl	0.099678	1.532156	-2.22395
H	1.091101	0.0	0.0
C	0.184696	-1.11566	-2.175642
N	0.627001	-2.00485	-2.803849
N	-1.89413	-0.230626	-1.574884
H	-2.396531	0.478182	-1.055923
H	-2.180922	-0.247072	-2.545492
C	-0.520195	-1.138747	0.743342
N	-0.921632	-2.058621	1.354008
N	-0.475929	1.253768	0.697652
O	-1.668328	1.547385	0.576567
O	0.344335	1.875487	1.35475
Cl	3.168089	0.0	0.0
