15

C	-0.500398	0.155088	-1.439173
C	0.0	0.0	0.0
Cl	-2.355993	0.453071	-1.355709
H	1.092963	0.0	0.0
C	0.03847	1.323677	-2.139969
N	0.418485	2.210013	-2.810394
N	-0.173093	-1.001593	-2.16732
H	-0.548918	-1.846683	-1.75712
H	-0.416294	-0.924697	-3.144499
C	-0.489253	-1.251562	0.556229
N	-0.875749	-2.304346	0.907624
N	-0.400885	1.139763	0.880817
O	-0.651267	0.883226	2.053978
O	-0.382	2.25479	0.373835
Cl	3.097152	0.0	0.0
