15

C	-0.328052	0.019428	-1.507895
C	0.0	0.0	0.0
Cl	0.059367	-1.682415	-2.124756
H	1.092062	0.0	0.0
C	-1.752567	0.210375	-1.800071
N	-2.88872	0.343014	-2.066517
N	0.45327	1.03613	-2.089316
H	1.424881	0.95516	-1.781864
H	0.392275	1.033598	-3.099371
C	-0.592879	-1.105772	0.725684
N	-1.066538	-2.005041	1.314406
N	-0.479107	1.301103	0.599548
O	-1.644667	1.329278	0.993956
O	0.318286	2.22883	0.629287
Cl	3.178452	0.0	0.0
