15

C	-0.320131	-0.058332	-1.49736
C	0.0	0.0	0.0
Cl	-2.060556	-0.412658	-1.818891
H	1.092982	0.0	0.0
C	-0.027232	1.221323	-2.167391
N	0.261144	2.160983	-2.813933
N	0.471025	-1.152374	-1.991523
H	0.424506	-1.185896	-3.002553
H	1.443406	-1.01152	-1.699722
C	-0.482003	-1.172921	0.70892
N	-0.867895	-2.106562	1.307893
N	-0.493174	1.222637	0.713018
O	-1.212751	2.005754	0.100043
O	-0.133319	1.329376	1.878578
Cl	3.132938	0.0	0.0
