15

C	-0.330992	-0.06093	-1.494294
C	0.0	0.0	0.0
Cl	-2.111969	-0.220481	-1.756807
H	1.096587	0.0	0.0
C	0.083762	1.137231	-2.246804
N	0.404699	1.958309	-3.024972
N	0.320062	-1.255886	-1.966407
H	1.309842	-1.202025	-1.711049
H	0.243349	-1.310619	-2.976618
C	-0.497248	-1.174515	0.695686
N	-0.897052	-2.126769	1.254717
N	-0.466989	1.236181	0.699887
O	-0.637042	2.24362	0.021986
O	-0.591033	1.161378	1.916847
Cl	3.108494	0.0	0.0
