15

C	-0.323295	0.049631	-1.50837
C	0.0	0.0	0.0
Cl	0.052118	-1.643384	-2.154408
H	1.091523	0.0	0.0
C	-1.744901	0.257403	-1.807813
N	-2.872589	0.426076	-2.09119
N	0.467686	1.070291	-2.063847
H	0.400765	1.101713	-3.072539
H	1.4387	0.97779	-1.757539
C	-0.595629	-1.11706	0.705437
N	-1.056705	-2.020379	1.297907
N	-0.479866	1.290237	0.620857
O	-1.651224	1.31677	1.000502
O	0.320014	2.21386	0.676642
Cl	3.180453	0.0	0.0
