17

C	-0.404236	-0.035037	-1.490275
C	0.0	0.0	0.0
Br	0.049199	1.690719	-2.324736
H	1.101016	0.0	0.0
C	0.366796	-1.125553	-2.232537
H	0.175372	-1.060895	-3.304598
H	0.050264	-2.110612	-1.880978
H	1.43291	-0.991006	-2.028705
C	-1.848678	-0.206213	-1.646829
N	-3.003233	-0.403963	-1.751579
C	-0.442737	-1.265561	0.748199
H	-1.52638	-1.407582	0.711362
H	0.060325	-2.141187	0.3372
H	-0.135031	-1.17531	1.791542
C	-0.534972	1.174279	0.679703
N	-1.009065	2.070924	1.273674
Br	3.467847	0.0	0.0
