17

C	-0.511182	-0.243437	-1.438792
C	0.0	0.0	0.0
Br	0.267286	-1.914913	-2.130855
H	1.107654	0.0	0.0
C	-2.031259	-0.35564	-1.534046
H	-2.380228	-1.213689	-0.958485
H	-2.335642	-0.484816	-2.573858
H	-2.486646	0.557635	-1.13903
C	-0.053541	0.825615	-2.326157
N	0.224466	1.709828	-3.04913
C	-0.448028	-1.051378	1.018825
H	-0.148058	-2.044297	0.683046
H	0.068326	-0.849823	1.959021
H	-1.5256	-1.032325	1.200891
C	-0.466204	1.321811	0.417669
N	-0.88287	2.365981	0.762921
Br	3.428749	0.0	0.0
