17

C	-0.403058	0.056702	-1.490912
C	0.0	0.0	0.0
Br	0.067094	1.82596	-2.219562
H	1.094621	0.0	0.0
C	0.362075	-0.992895	-2.296885
H	1.42797	-0.878314	-2.082506
H	0.036833	-1.994946	-2.007443
H	0.176298	-0.86154	-3.364052
C	-1.848649	-0.089411	-1.658688
N	-3.006191	-0.256172	-1.786093
C	-0.449971	-1.306132	0.670239
H	-1.536389	-1.432504	0.638316
H	-0.128797	-1.286325	1.713423
H	0.036389	-2.160979	0.197849
C	-0.527446	1.134638	0.750132
N	-0.985269	1.998154	1.402523
Br	3.462814	0.0	0.0
