17

C	-0.349354	0.090598	-1.494551
C	0.0	0.0	0.0
Br	-2.315625	0.281675	-1.751207
H	1.105441	0.0	0.0
C	0.351819	1.272965	-2.15063
H	0.005755	2.203092	-1.695165
H	1.426298	1.161327	-1.969351
H	0.147308	1.297358	-3.222208
C	0.007831	-1.155538	-2.170066
N	0.297208	-2.142896	-2.739862
C	-0.49641	-1.253812	0.710838
H	-0.143299	-1.240043	1.743244
H	-1.587183	-1.315125	0.705929
H	-0.077989	-2.137956	0.226615
C	-0.44062	1.211559	0.684091
N	-0.78869	2.178663	1.253158
Br	3.42517	0.0	0.0
