17

C	-0.351969	0.137098	-1.492336
C	0.0	0.0	0.0
Br	-2.312387	0.40063	-1.734348
H	1.108724	0.0	0.0
C	0.386408	1.31053	-2.123879
H	0.172876	1.373273	-3.192021
H	1.458217	1.15634	-1.95548
H	0.079832	2.238998	-1.638693
C	-0.051176	-1.108294	-2.196115
N	0.157158	-2.109363	-2.777082
C	-0.501474	-1.273833	0.672309
H	-0.160869	-1.28608	1.709244
H	-0.07617	-2.144928	0.170422
H	-1.592288	-1.336838	0.653083
C	-0.444994	1.189011	0.720237
N	-0.822949	2.130795	1.313342
Br	3.439883	0.0	0.0
