17

C	-0.402391	-0.056025	-1.490436
C	0.0	0.0	0.0
Br	0.046151	1.660761	-2.345763
H	1.096501	0.0	0.0
C	0.375074	-1.151686	-2.217708
H	0.063956	-2.133671	-1.853678
H	1.439923	-1.008901	-2.014582
H	0.184487	-1.102293	-3.290608
C	-1.845625	-0.233555	-1.64812
N	-2.999804	-0.433864	-1.754842
C	-0.444417	-1.2545	0.765392
H	-1.528315	-1.394852	0.731713
H	0.056162	-2.136547	0.365432
H	-0.135085	-1.151112	1.807061
C	-0.532469	1.184309	0.664268
N	-0.986778	2.090705	1.258106
Br	3.466861	0.0	0.0
