16

C	0.0	0.0	0.0
C	-0.537374	-0.15226	-1.434512
Br	2.022182	0.0	0.0
H	-1.620942	0.039854	-1.282125
C	-0.339035	1.32456	0.528681
N	-0.532	2.406155	0.945513
N	-0.501534	-1.015996	0.826336
H	-0.685809	-0.745109	1.77797
H	-0.015566	-1.894308	0.745461
C	-0.373202	-1.566494	-1.98182
H	-0.753177	-1.605914	-3.004054
H	-0.973496	-2.245	-1.375309
H	0.674812	-1.878197	-1.986687
C	0.025197	0.846714	-2.336791
N	0.457287	1.629503	-3.099442
Cl	-3.593653	0.0	0.0
