16

C	0.0	0.0	0.0
C	-0.504316	0.233208	-1.452236
Br	1.965535	0.0	0.0
H	-1.588364	0.39297	-1.311656
C	-0.356279	1.169929	0.817803
N	-0.563644	2.115227	1.484777
N	-0.49368	-1.181646	0.638748
H	-0.248103	-1.993086	0.082845
H	-1.518508	-1.080736	0.654867
C	-0.307509	-0.978928	-2.360768
H	-0.611178	-0.724555	-3.377623
H	-0.94551	-1.796029	-2.023074
H	0.73646	-1.300909	-2.381035
C	0.07586	1.433281	-2.046601
N	0.53129	2.381483	-2.571126
Cl	-3.463522	0.0	0.0
