16

C	0.0	0.0	0.0
C	-0.348483	-0.504117	-1.459418
Br	1.957909	0.0	0.0
H	0.553228	-0.344895	-2.053362
C	-0.322282	1.435612	0.120094
N	-0.542396	2.584291	0.246901
N	-0.584169	-0.82443	1.00396
H	-1.600254	-0.833538	0.825615
H	-0.444464	-0.40397	1.916928
C	-1.478002	0.213559	-2.204864
H	-1.521657	-0.196573	-3.217426
H	-2.440081	0.092029	-1.709892
H	-1.247399	1.278651	-2.276507
C	-0.54046	-1.956541	-1.440067
N	-0.664033	-3.120882	-1.534126
Cl	-3.89275	0.0	0.0
