13

C	-0.33543	-0.026633	-1.471583
C	0.0	0.0	0.0
Br	-2.292188	0.007424	-1.850626
H	1.096767	0.0	0.0
H	0.057329	0.864941	-1.963147
C	0.205524	-1.217271	-2.114616
N	0.644252	-2.165512	-2.650368
N	-0.419384	-1.216725	0.674405
H	0.328975	-1.492684	1.297669
H	-1.273129	-1.093469	1.202305
C	-0.478117	1.227892	0.618831
N	-0.862912	2.200895	1.157983
F	2.506425	0.0	0.0
