13

C	-0.547418	-0.049403	-1.428308
C	0.0	0.0	0.0
Br	0.318023	-1.482695	-2.444447
H	1.094144	0.0	0.0
H	-1.60875	-0.317479	-1.427407
C	-0.379232	1.200613	-2.162568
N	-0.308599	2.206832	-2.764759
N	-0.38409	-1.227132	0.703789
H	0.454971	-1.560757	1.16114
H	-1.092087	-1.057042	1.405923
C	-0.510167	1.194695	0.660793
N	-0.951219	2.125419	1.230931
F	2.527135	0.0	0.0
