13

C	-0.200367	-0.012312	-1.504263
C	0.0	0.0	0.0
Br	-2.114871	-0.032528	-2.078134
H	1.098205	0.0	0.0
H	0.217493	0.894007	-1.944934
C	0.424522	-1.186763	-2.102345
N	0.904069	-2.138487	-2.595804
N	-0.435308	-1.181036	0.71316
H	-1.288372	-1.569689	0.329343
H	0.309862	-1.863191	0.658041
C	-0.543182	1.220899	0.570431
N	-0.965655	2.220677	1.022787
F	2.502525	0.0	0.0
