13

C	-0.447782	-0.005614	-1.472278
C	0.0	0.0	0.0
Br	0.31169	-1.546581	-2.419619
H	1.095231	0.0	0.0
H	-1.531702	-0.136653	-1.567509
C	-0.064906	1.206554	-2.187151
N	0.217538	2.174889	-2.789804
N	-0.384895	-1.19009	0.742131
H	0.397739	-1.829343	0.68164
H	-1.211996	-1.639295	0.366838
C	-0.568921	1.192781	0.618028
N	-1.041342	2.150675	1.111708
F	2.524531	0.0	0.0
