13

C	-0.411228	-0.048787	-1.470167
C	0.0	0.0	0.0
Br	0.026276	1.605638	-2.412679
H	1.094014	0.0	0.0
H	0.197644	-0.829307	-1.92694
C	-1.829163	-0.336729	-1.664181
N	-2.972126	-0.58291	-1.787256
N	-0.359465	-1.296058	0.579919
H	-1.203192	-1.251571	1.137235
H	0.418735	-1.581869	1.162255
C	-0.57441	1.133743	0.708031
N	-1.053677	2.00904	1.332236
F	2.534783	0.0	0.0
