15

C	0.0	0.0	0.0
C	-0.484322	0.088486	-1.435302
F	1.369018	0.0	0.0
H	0.051489	0.881796	-1.947494
H	-1.568566	0.210181	-1.455131
N	-0.295676	1.366656	0.699066
O	-0.341397	1.335277	1.923904
O	-0.370351	2.370599	-0.000446
N	-0.518758	-1.088702	0.679267
H	-1.538794	-1.078022	0.551308
H	-0.302676	-1.019334	1.666145
N	-0.125982	-1.186924	-2.118972
O	-0.968384	-2.078604	-2.148171
O	1.002675	-1.257456	-2.610287
Cl	-3.512459	0.0	0.0
