15

C	0.0	0.0	0.0
C	-0.494817	-0.130536	-1.435622
F	1.353452	0.0	0.0
H	-1.590922	-0.200297	-1.40361
H	-0.167717	0.703357	-2.047157
N	-0.347956	1.450377	0.441013
O	-0.756653	1.633262	1.575414
O	-0.073106	2.325542	-0.378382
N	-0.491324	-0.87805	0.977922
H	-1.500226	-0.715669	1.049454
H	-0.349683	-1.820098	0.633971
N	0.037372	-1.354437	-2.093699
O	0.260172	-1.275411	-3.299689
O	0.190703	-2.377399	-1.425814
Cl	-3.514113	0.0	0.0
