15

C	0.0	0.0	0.0
C	-0.523849	-0.03533	-1.435882
F	1.35491	0.0	0.0
H	-0.372105	-1.050669	-1.806013
H	-1.587476	0.207358	-1.415096
N	-0.347223	1.36264	0.624799
O	-0.183217	2.319761	-0.127519
O	-0.648783	1.412132	1.806708
N	-0.51601	-1.009812	0.832156
H	-0.368716	-1.908063	0.387543
H	-1.528766	-0.853005	0.907508
N	0.170357	0.842739	-2.421891
O	-0.48923	1.72016	-2.972044
O	1.349975	0.586484	-2.664011
Cl	-3.532649	0.0	0.0
