15

C	0.0	0.0	0.0
C	-0.553957	0.114959	-1.401968
F	1.371798	0.0	0.0
H	-0.184274	0.988983	-1.932359
H	-1.652764	0.137131	-1.304013
N	-0.359487	1.29983	0.744723
O	-0.521537	1.232304	1.956128
O	-0.324245	2.329612	0.080004
N	-0.503281	-1.091872	0.712848
H	-0.755255	-0.862166	1.661012
H	0.099092	-1.892829	0.62272
N	-0.196131	-1.063742	-2.23781
O	-0.558553	-1.00626	-3.410219
O	0.429115	-2.003034	-1.744692
Cl	-3.635251	0.0	0.0
