15

C	0.0	0.0	0.0
C	-0.563958	-0.09426	-1.408947
F	1.35432	0.0	0.0
H	-0.354622	-1.10528	-1.761914
H	-1.639468	0.088266	-1.373132
N	-0.278701	1.425819	0.577566
O	-0.253605	1.519631	1.800897
O	-0.410293	2.350313	-0.215187
N	-0.533641	-1.009634	0.795861
H	-1.556224	-0.974879	0.69266
H	-0.303079	-0.823775	1.765813
N	0.039246	0.82299	-2.417172
O	-0.738466	1.461945	-3.120475
O	1.263216	0.82842	-2.535858
Cl	-3.56416	0.0	0.0
