14
Coordinates from ORCA-job run
  C   -0.69854374681788      0.09085406633054     -0.07314803019140
  C   0.56120422272528      0.55444200162020      0.68027809389309
  Cl  -2.12925693175728      0.60391732775123      0.75906143539957
  H   0.40631431986356      1.61772172040142      0.89580635121246
  N   -0.70579218879637      0.69870878283463     -1.47945935248490
  O   -0.27609118245318      1.84104246719572     -1.54640033072355
  O   -1.18590547842216      0.01310668111841     -2.36741978493158
  N   -0.67316747381812     -1.43086907379866     -0.27432465072040
  O   0.39411008062921     -1.83221788498387     -0.71919189481292
  O   -1.67266553278014     -2.07149036809675     -0.00751349941983
  C   1.79917707150962      0.43844809223228     -0.09491066069290
  N   2.81719512698917      0.42117976219481     -0.68005371273360
  C   0.65337438713287     -0.17914231780918      1.94523642277904
  N   0.71004732599541     -0.76570125699077      2.96103961342692
