14
Coordinates from ORCA-job run
  C   -0.69887976966899      0.08686710906570     -0.07990059447139
  C   0.55043116765555      0.55603905290122      0.68730176856758
  Cl  -2.14061137522765      0.59082575604392      0.73879036248210
  H   0.38691173283753      1.61826679922039      0.90155978739967
  N   -0.69357227269288      0.69866958835239     -1.48450119141285
  O   -0.27743223465674      1.84654648218777     -1.54150585139238
  O   -1.15127522439382      0.00992137369884     -2.38188775072644
  N   -0.66458687224985     -1.43402888025070     -0.28482683508481
  O   -1.66864972404031     -2.07741377473168     -0.04285382519160
  O   0.41342782329937     -1.83182058604139     -0.70632524844720
  C   1.79721359074462      0.44822334588652     -0.07505708156091
  N   2.82063915814887      0.43560908719562     -0.65063388653367
  C   0.63492317249942     -0.17848576863145      1.95209576014619
  N   0.69046082774488     -0.76721958489715      2.96674458622572
