14
Coordinates from ORCA-job run
  C   -0.69999028223550      0.09058448444751     -0.07442941848446
  C   0.55804709436570      0.55092067131988      0.68438498145841
  Cl  -2.13256139863713      0.59069127862599      0.76151062750559
  H   0.40257756681982      1.61300908681253      0.90529191460576
  N   -0.70889933819279      0.71064198905338     -1.47479129519643
  O   -1.19587836666000      0.03542485425866     -2.36679437962732
  O   -0.27375563026273      1.85153977737144     -1.53365027301228
  N   -0.66674611748457     -1.42960298746883     -0.28792764011474
  O   0.39216136851504     -1.81695409488174     -0.76361758253074
  O   -1.65041749446102     -2.08238015975852      0.00645229680770
  C   1.79830306370321      0.43909662316874     -0.08826695863272
  N   2.82002663783772      0.42379011648893     -0.66705557919451
  C   0.64884103992195     -0.19134933315799      1.94428441924744
  N   0.70829185677031     -0.78541230627998      2.95560888716831
