14
Coordinates from ORCA-job run
  C   -0.58953460641099     -0.05045085099846     -0.04232537101525
  C   0.86155978299554      0.13437824258523      0.42558859786355
  Cl  -1.75068273084601      0.44231885569157      1.12696022739489
  H   1.50951310562534     -0.29368337131716     -0.34655693778235
  N   -0.73536506653552      0.72084533722847     -1.37448547182248
  O   -1.57294040972367      1.59729763316682     -1.45786554028287
  O   0.05939058651261      0.33758753717304     -2.22476115152825
  N   -0.83279168730815     -1.50940829802918     -0.45634165618910
  O   0.11278197107950     -2.27832620281009     -0.35092544231667
  O   -1.95239197951091     -1.74217827972987     -0.88186764309367
  C   1.09794781657506     -0.55648772234272      1.69360701373360
  N   1.30066400298355     -1.09085149569047      2.71922612422108
  C   1.13890073205646      1.56832375020901      0.54727651107139
  N   1.35294848250719      2.72063486486381      0.62247073974612
