17

C	-0.480637	-0.028043	-1.450171
C	0.0	0.0	0.0
F	0.078941	1.067574	-2.117195
H	1.090294	0.0	0.0
C	0.062348	-1.237646	-2.112473
N	0.362509	-2.219767	-2.681192
N	-1.897296	-0.071884	-1.591014
H	-2.142189	-0.143132	-2.570986
H	-2.274228	0.783931	-1.202053
C	-0.494776	-1.181799	0.81703
H	-1.584821	-1.198427	0.879492
H	-0.151636	-2.106897	0.351189
H	-0.054821	-1.125737	1.812406
N	-0.42344	1.257404	0.694105
O	-1.277653	1.989489	0.180043
O	0.097419	1.470741	1.781603
Cl	3.278308	0.0	0.0
