17

C	-0.529771	-0.012332	-1.444019
C	0.0	0.0	0.0
F	-0.117673	1.171222	-2.028644
H	1.090302	0.0	0.0
C	0.099761	-1.137812	-2.167808
N	0.569895	-2.046101	-2.742909
N	-1.952033	-0.111659	-1.618939
H	-2.419649	0.375715	-0.863663
H	-2.257421	-1.073551	-1.647366
C	-0.485325	-1.184559	0.811688
H	-0.072862	-1.118072	1.819825
H	-0.095499	-2.101518	0.362689
H	-1.57322	-1.231107	0.871176
N	-0.477943	1.271682	0.624738
O	-1.689133	1.343191	0.885331
O	0.329286	2.165316	0.838678
Cl	3.325872	0.0	0.0
