17

C	0.0	0.0	0.0
C	-0.377635	-0.195136	-1.4958
Cl	1.830422	0.0	0.0
H	-0.141924	0.753185	-1.98184
N	-0.519514	1.283219	0.366999
H	-0.299476	1.437586	1.346426
H	-1.548672	1.07317	0.308871
C	-0.41369	-1.152872	0.902855
H	-0.034068	-0.955226	1.90985
H	-1.506374	-1.139726	0.891506
H	-0.017338	-2.1061	0.553988
C	-1.737669	-0.611466	-1.879489
N	-2.532037	-1.012505	-2.656514
N	0.521917	-1.202986	-2.183301
O	1.268539	-0.773784	-3.058287
O	0.429755	-2.375929	-1.840294
F	-2.76388	0.0	0.0
