17

C	0.0	0.0	0.0
C	-0.408162	-0.174263	-1.493486
Cl	1.837012	0.0	0.0
H	-0.288153	0.810103	-1.951042
N	-0.514629	1.275142	0.401467
H	-0.299753	1.389043	1.389429
H	-1.544459	1.068924	0.335023
C	-0.402133	-1.177778	0.877353
H	-1.494461	-1.169532	0.88437
H	-0.007016	-1.01351	1.884804
H	-0.007734	-2.118857	0.493378
C	-1.728255	-0.729677	-1.8393
N	-2.492021	-1.265608	-2.563136
N	0.560002	-1.065952	-2.250508
O	1.204386	-0.54267	-3.157023
O	0.617561	-2.247634	-1.927525
F	-2.751353	0.0	0.0
