17

C	0.0	0.0	0.0
C	-0.331747	-0.04287	-1.52142
Cl	1.787671	0.0	0.0
H	0.18723	0.820116	-1.940628
N	-0.544774	1.254069	0.434465
H	-1.574126	1.022505	0.390466
H	-0.292915	1.379645	1.410039
C	-0.436523	-1.212298	0.811488
H	-1.526154	-1.229208	0.740584
H	0.012615	-2.137407	0.4526
H	-0.121932	-1.049553	1.847888
C	-1.716231	0.000995	-2.020869
N	-2.521143	0.081243	-2.879123
N	0.304553	-1.228042	-2.212979
O	1.193199	-0.98669	-3.028018
O	-0.120227	-2.346177	-1.936068
F	-2.778058	0.0	0.0
