17

C	0.0	0.0	0.0
C	-0.325853	-0.066057	-1.535491
Cl	1.792627	0.0	0.0
H	0.092835	0.847375	-1.964833
N	-0.554155	1.178821	0.577585
H	-0.336255	1.98468	-0.002424
H	-1.581465	0.956236	0.50343
C	-0.446611	-1.214846	0.795673
H	-0.115955	-1.061099	1.825316
H	-1.53766	-1.227504	0.740509
H	-0.00925	-2.130533	0.402065
C	-1.71464	-0.195917	-2.015224
N	-2.528795	-0.289449	-2.864304
N	0.4314	-1.160301	-2.262013
O	0.159357	-2.323204	-1.983217
O	1.259668	-0.803785	-3.09744
F	-2.789544	0.0	0.0
