17

C	0.0	0.0	0.0
C	-0.354706	-0.075922	-1.524131
Cl	1.796416	0.0	0.0
H	-0.045687	0.88025	-1.956031
N	-0.547701	1.174289	0.592604
H	-1.576447	0.959894	0.526397
H	-0.335933	1.982806	0.015029
C	-0.441841	-1.220907	0.78941
H	-0.100257	-1.084432	1.817678
H	-1.533089	-1.226491	0.744649
H	-0.014146	-2.133396	0.377576
C	-1.732833	-0.362387	-1.961882
N	-2.534563	-0.644221	-2.781486
N	0.492105	-1.080251	-2.28653
O	1.262233	-0.62867	-3.132128
O	0.346777	-2.268883	-2.0219
F	-2.791948	0.0	0.0
