15

C	-0.493709	2.8e-05	-1.441933
C	0.0	0.0	0.0
F	-0.001418	-1.075509	-2.089191
H	1.101295	0.0	0.0
C	-1.961693	-0.00154	-1.552821
N	-3.135318	-0.034644	-1.620568
N	0.003954	1.247166	-2.188583
O	0.7822	1.083103	-3.111689
O	-0.450674	2.309515	-1.778578
N	-0.36391	-1.28931	0.584224
H	0.510083	-1.709923	0.899677
H	-0.980149	-1.175027	1.377702
C	-0.485559	1.126746	0.775149
N	-0.816704	1.993015	1.502325
H	2.566677	0.0	0.0
