15

C	-0.587745	0.020497	-1.392737
C	0.0	0.0	0.0
F	-1.956931	0.09352	-1.375871
H	1.093313	0.0	0.0
C	-0.074079	1.114329	-2.225467
N	0.30957	2.007893	-2.884358
N	-0.231904	-1.296652	-2.087297
O	-1.120527	-2.127859	-2.186514
O	0.927468	-1.391105	-2.461506
N	-0.312599	-1.253461	0.659053
H	0.517522	-1.514944	1.187838
H	-1.11129	-1.187335	1.273989
C	-0.45281	1.191522	0.705512
N	-0.824415	2.132255	1.307666
H	2.550716	0.0	0.0
