15

C	-0.446903	-0.010713	-1.429258
C	0.0	0.0	0.0
F	-0.17527	1.166597	-2.060533
H	1.096303	0.0	0.0
C	0.141459	-1.129822	-2.179704
N	0.586821	-2.025283	-2.794942
N	-1.98681	-0.171864	-1.587573
O	-2.674163	-0.182734	-0.573355
O	-2.396182	-0.228273	-2.743775
N	-0.327862	-1.27607	0.60845
H	-1.139859	-1.218739	1.204453
H	0.48672	-1.572195	1.138175
C	-0.464862	1.187012	0.697963
N	-0.804373	2.13289	1.310211
H	2.55358	0.0	0.0
