15

C	-0.501277	-0.056167	-1.43818
C	0.0	0.0	0.0
F	0.053755	-1.109383	-2.072522
H	1.095815	0.0	0.0
C	-1.966989	-0.152707	-1.538031
N	-3.137522	-0.253878	-1.574257
N	-0.082392	1.207596	-2.201531
O	0.81062	1.100397	-3.024335
O	-0.693249	2.225361	-1.89272
N	-0.345434	-1.26761	0.632504
H	0.520195	-1.634431	1.023968
H	-1.023586	-1.147273	1.371734
C	-0.496041	1.1549	0.725586
N	-0.901489	2.033023	1.396113
H	2.570762	0.0	0.0
