15

C	-0.427546	-0.132469	-1.461604
C	0.0	0.0	0.0
F	0.136853	-1.243218	-1.995029
H	1.095465	0.0	0.0
C	-1.886865	-0.229626	-1.640268
N	-3.042645	-0.419443	-1.738475
N	0.050357	1.065899	-2.283711
O	-0.633078	2.078887	-2.165865
O	1.054412	0.917944	-2.958922
N	-0.304974	-1.187954	0.772698
H	-1.148336	-1.662133	0.474433
H	0.496857	-1.807747	0.687398
C	-0.558301	1.194226	0.61063
N	-1.006203	2.156065	1.120199
H	2.566988	0.0	0.0
