15

C	-0.594119	0.015838	-1.388062
C	0.0	0.0	0.0
F	-1.963801	0.092799	-1.367223
H	1.093389	0.0	0.0
C	-0.08136	1.106741	-2.224878
N	0.325593	1.982075	-2.894128
N	-0.244436	-1.305355	-2.078099
O	0.917329	-1.410395	-2.44218
O	-1.140304	-2.128397	-2.183832
N	-0.308694	-1.252996	0.664277
H	0.527344	-1.516646	1.18135
H	-1.099379	-1.184343	1.288998
C	-0.449166	1.191769	0.707687
N	-0.812238	2.133532	1.313235
H	2.548474	0.0	0.0
