15

C	-0.526936	0.00606	-1.416617
C	0.0	0.0	0.0
F	0.047293	-0.993266	-2.134927
H	1.096827	0.0	0.0
C	-1.991358	-0.141906	-1.487582
N	-3.160242	-0.268254	-1.473927
N	-0.170097	1.29424	-2.172373
O	-0.568991	1.338899	-3.332633
O	0.511835	2.131519	-1.595676
N	-0.330413	-1.301497	0.579835
H	-1.011657	-1.219936	1.322341
H	0.540437	-1.660563	0.964091
C	-0.524156	1.114972	0.768858
N	-0.953695	1.966916	1.458942
H	2.558718	0.0	0.0
