16

C	-0.200825	0.051211	-1.534248
C	0.0	0.0	0.0
Br	0.025769	-1.747543	-2.317495
H	1.094844	0.0	0.0
C	-1.560996	0.472005	-1.886263
N	-2.67266	0.813848	-2.062533
N	0.807775	0.910815	-2.123458
H	0.590006	1.839737	-1.76841
H	1.677191	0.638895	-1.628593
N	-0.578338	-1.137862	0.669551
H	-1.512592	-0.933892	1.007596
H	0.00892	-1.381802	1.456504
N	-0.386684	1.335231	0.471097
H	-1.35	1.347219	0.791332
H	0.220307	1.581365	1.243614
F	2.671882	0.0	0.0
