16

C	-0.180637	0.049534	-1.536602
C	0.0	0.0	0.0
Br	0.026326	-1.780619	-2.312739
H	1.102041	0.0	0.0
C	-1.518542	0.493387	-1.944804
N	-2.602065	0.871624	-2.203681
N	0.864732	0.868266	-2.110408
H	1.715197	0.627342	-1.560666
H	0.629177	1.822052	-1.850595
N	-0.722859	-1.070115	0.681845
H	-0.478821	-1.949932	0.240168
H	-0.328987	-1.115556	1.617818
N	-0.421968	1.307315	0.478283
H	0.223011	1.609845	1.198325
H	-1.359221	1.232796	0.863383
F	2.703691	0.0	0.0
