16

C	-0.604145	-0.003116	-1.408714
C	0.0	0.0	0.0
Br	-0.149746	1.643351	-2.372803
H	1.097743	0.0	0.0
C	-0.013961	-1.099942	-2.196971
N	0.39288	-2.025822	-2.797233
N	-2.046966	-0.105776	-1.32047
H	-2.445302	-0.28528	-2.235166
H	-2.205431	-0.91097	-0.716034
N	-0.451951	-1.307558	0.585982
H	-0.456341	-1.166643	1.590615
H	0.316824	-1.955809	0.413951
N	-0.483572	1.134933	0.734213
H	0.179152	1.347326	1.466629
H	-1.41237	0.990937	1.10871
F	2.638236	0.0	0.0
