16

C	-0.6313	-0.016834	-1.404932
C	0.0	0.0	0.0
Br	0.220172	1.385141	-2.481642
H	1.098524	0.0	0.0
C	-0.362932	-1.28858	-2.084061
N	-0.144691	-2.330243	-2.582636
N	-2.066905	0.226743	-1.419584
H	-2.167951	1.118499	-0.937238
H	-2.44935	-0.478757	-0.79011
N	-0.544771	-1.192269	0.701445
H	-0.109221	-2.007593	0.274015
H	-0.122139	-1.151379	1.625847
N	-0.46452	1.203885	0.674748
H	-1.158279	0.962967	1.37359
H	0.339825	1.620381	1.126349
F	2.646813	0.0	0.0
