16

C	-0.111879	0.067726	-1.551503
C	0.0	0.0	0.0
Br	0.067493	-1.848411	-2.285642
H	1.102342	0.0	0.0
C	-1.407211	0.490795	-2.087595
N	-2.44487	0.863952	-2.497561
N	0.94889	0.898238	-1.954574
H	1.0884	0.92009	-2.955481
H	1.809292	0.63132	-1.416802
N	-0.639263	-1.114909	0.62978
H	-1.443967	-0.783156	1.14536
H	0.010453	-1.577786	1.247867
N	-0.543154	1.271228	0.520564
H	-0.197873	2.010734	-0.085559
H	-0.06967	1.417219	1.40903
F	2.734105	0.0	0.0
