16

C	-0.57005	-0.035225	-1.427049
C	0.0	0.0	0.0
Br	0.302288	1.467715	-2.498218
H	1.097285	0.0	0.0
C	-0.187852	-1.250734	-2.144829
N	0.097212	-2.243167	-2.706731
N	-1.979966	0.103553	-1.385683
H	-2.380929	0.256776	-2.302002
H	-2.154751	0.893889	-0.766591
N	-0.443351	-1.179383	0.730553
H	0.308567	-1.856654	0.69678
H	-1.28517	-1.582044	0.335333
N	-0.553788	1.212392	0.636287
H	0.195051	1.897846	0.63104
H	-0.702295	0.946322	1.602392
F	2.635932	0.0	0.0
