16

C	-0.539624	-0.00595	-1.440209
C	0.0	0.0	0.0
Br	0.037462	1.617153	-2.399239
H	1.09801	0.0	0.0
C	0.024829	-1.13282	-2.199964
N	0.370858	-2.071153	-2.818587
N	-1.986679	-0.023291	-1.413261
H	-2.358834	-0.196293	-2.340414
H	-2.212737	-0.807183	-0.801481
N	-0.518908	-1.262379	0.586477
H	-0.768448	-1.019694	1.538946
H	0.281538	-1.886792	0.644687
N	-0.494433	1.133221	0.757756
H	0.242892	1.826498	0.766853
H	-1.31899	1.53031	0.320434
F	2.638492	0.0	0.0
