16

C	-0.106262	-0.036294	-1.526855
C	0.0	0.0	0.0
Br	-1.950076	-0.515434	-2.148698
H	1.103721	0.0	0.0
C	0.147298	1.289845	-2.10179
N	0.348979	2.366797	-2.527512
N	0.845289	-0.982854	-2.071773
H	1.72443	-0.721615	-1.580767
H	0.576966	-1.871178	-1.652557
N	-0.416668	-1.278728	0.536344
H	-1.357866	-1.183108	0.902309
H	0.213398	-1.525582	1.289361
N	-0.684723	1.12312	0.637194
H	-0.147055	1.347637	1.469138
H	-0.621245	1.943568	0.043603
F	2.68154	0.0	0.0
