14

C	-0.439346	0.045474	-1.471211
C	0.0	0.0	0.0
Br	-0.055831	-1.681694	-2.328273
H	1.09354	0.0	0.0
H	-0.312086	0.944303	0.463102
C	-1.879586	0.265019	-1.59946
N	-3.028303	0.49856	-1.692107
C	0.355427	1.131269	-2.191209
H	0.108113	1.15409	-3.253088
H	0.116191	2.102083	-1.745846
H	1.419873	0.93183	-2.048054
C	-0.573216	-1.100278	0.759407
N	-1.062515	-1.963599	1.387056
Cl	3.325379	0.0	0.0
