14

C	-0.43955	0.056574	-1.470742
C	0.0	0.0	0.0
Br	-0.052298	-1.662083	-2.34235
H	1.093783	0.0	0.0
H	-0.31267	0.940252	0.470835
C	-1.880535	0.273278	-1.596973
N	-3.030847	0.500873	-1.686403
C	0.35275	1.150535	-2.181523
H	1.417853	0.95211	-2.039458
H	0.106098	1.182159	-3.243696
H	0.1111	2.116848	-1.728263
C	-0.572174	-1.107185	0.750502
N	-1.059762	-1.977457	1.369914
Cl	3.324848	0.0	0.0
