14

C	-0.574744	-0.036822	-1.423967
C	0.0	0.0	0.0
Br	0.131105	1.526245	-2.384732
H	1.092827	0.0	0.0
H	-0.320904	0.936106	0.469298
C	-0.14594	-1.230965	-2.15064
N	0.094614	-2.212272	-2.751112
C	-2.099856	0.043304	-1.441538
H	-2.42075	0.952059	-0.928117
H	-2.472615	0.063809	-2.46667
H	-2.515005	-0.826841	-0.926205
C	-0.521661	-1.120595	0.776841
N	-0.981061	-2.019312	1.378186
Cl	3.301617	0.0	0.0
