17

C	-0.228626	-0.060686	-1.522596
C	0.0	0.0	0.0
F	-0.182869	-1.438681	-1.916078
H	1.102708	0.0	0.0
N	-1.534579	0.399411	-1.89495
H	-1.688775	1.200058	-1.286119
H	-1.515591	0.726957	-2.854266
N	0.870925	0.625964	-2.121816
H	1.729316	0.397836	-1.592657
H	0.967306	0.342703	-3.091043
N	-0.573693	-1.119138	0.729678
H	0.198402	-1.722836	0.981163
H	-1.161742	-1.656018	0.102573
N	-0.528767	1.28053	0.512506
H	-0.948004	1.051969	1.406403
H	0.271704	1.87885	0.686771
F	2.761274	0.0	0.0
