17

C	-0.117816	-0.008061	-1.51805
C	0.0	0.0	0.0
F	-1.456517	0.003241	-1.964329
H	1.098857	0.0	0.0
N	0.500337	1.206842	-2.007858
H	0.734445	1.060062	-2.985759
H	1.384397	1.255203	-1.495714
N	0.474339	-1.240893	-1.996104
H	1.354867	-1.305765	-1.481025
H	0.714953	-1.106545	-2.974143
N	-0.515114	-1.239202	0.568284
H	-0.259489	-1.261783	1.548885
H	-1.529765	-1.241867	0.506445
N	-0.516777	1.244313	0.554441
H	-0.258208	1.28103	1.533713
H	-1.531245	1.243345	0.495561
F	2.721751	0.0	0.0
