17

C	0.020245	0.002667	-1.523471
C	0.0	0.0	0.0
F	-1.219084	0.003287	-2.166249
H	1.116264	0.0	0.0
N	0.696581	1.229733	-1.91546
H	0.865877	1.187786	-2.915199
H	1.602624	1.164791	-1.438229
N	0.700025	-1.223431	-1.919594
H	0.871307	-1.182849	-2.918973
H	1.606319	-1.15963	-1.440266
N	-0.602632	-1.216323	0.547391
H	-0.546752	-1.919615	-0.182687
H	0.018367	-1.541552	1.282631
N	-0.602216	1.213314	0.554268
H	-0.540889	1.921167	-0.168473
H	0.014104	1.530547	1.293306
F	2.788301	0.0	0.0
