17

C	-0.197651	0.044656	-1.514332
C	0.0	0.0	0.0
F	0.029417	-1.319328	-1.979869
H	1.10153	0.0	0.0
N	-1.527746	0.397539	-1.900532
H	-2.128666	-0.302078	-1.475722
H	-1.622962	0.333307	-2.908714
N	0.81185	0.882191	-2.051387
H	0.937867	0.684513	-3.036514
H	1.682969	0.654877	-1.540727
N	-0.731482	-1.142966	0.550989
H	-0.210414	-1.97607	0.302628
H	-0.6721	-1.033795	1.55694
N	-0.452393	1.215755	0.65898
H	-1.220424	1.609984	0.124342
H	0.31861	1.869956	0.608717
F	2.767121	0.0	0.0
