17

C	0.0	0.0	0.0
C	-0.498214	0.183936	-1.436868
F	1.374162	0.0	0.0
H	-1.576371	0.400805	-1.322153
C	-0.329558	1.198977	0.841601
N	-0.437787	2.063109	1.631271
N	-0.570401	-1.194668	0.506233
H	-0.388529	-1.238532	1.505491
H	-1.61098	-0.995543	0.400767
C	-0.239172	-1.031954	-2.298667
H	-0.457772	-0.800043	-3.342107
H	0.796915	-1.359872	-2.224039
H	-0.896278	-1.832527	-1.965581
N	0.165851	1.391282	-2.012387
O	-0.330004	2.487367	-1.743824
O	1.169795	1.231922	-2.712471
H	-2.935649	0.0	0.0
