17

C	0.0	0.0	0.0
C	-0.475526	0.096689	-1.462797
F	1.390074	0.0	0.0
H	-1.543073	0.367206	-1.358148
C	-0.36677	1.231945	0.750626
N	-0.499699	2.204447	1.39415
N	-0.533156	-1.110296	0.703861
H	-0.328769	-1.954826	0.181756
H	-1.570523	-0.926621	0.650799
C	-0.307209	-1.194527	-2.232314
H	-0.461333	-1.015511	-3.29721
H	0.68868	-1.62183	-2.10289
H	-1.070439	-1.898016	-1.897375
N	0.24102	1.212187	-2.144984
O	1.183697	0.939491	-2.892712
O	-0.153327	2.355288	-1.910454
H	-2.905596	0.0	0.0
