17

C	0.0	0.0	0.0
C	-0.183706	0.03608	-1.57228
F	1.397807	0.0	0.0
H	0.353052	0.924756	-1.908804
C	-0.405989	1.319466	0.534441
N	-0.576846	2.387043	0.992414
N	-0.585484	-1.022309	0.758951
H	-0.463294	-1.901319	0.266888
H	-1.614834	-0.780407	0.716873
C	-1.544164	-0.050151	-2.222853
H	-1.398497	-0.030721	-3.311173
H	-2.171682	0.773914	-1.89272
H	-2.07339	-0.947215	-1.914605
N	0.647159	-1.089066	-2.122797
O	0.338341	-2.237536	-1.799669
O	1.563676	-0.807171	-2.893973
H	-3.03461	0.0	0.0
