19

C	-0.530578	-0.011492	-1.427851
C	0.0	0.0	0.0
F	0.276531	0.689912	-2.272255
H	1.092245	0.0	0.0
N	-0.443391	-1.464122	-1.912696
O	-1.421914	-2.179978	-1.697485
O	0.588131	-1.817608	-2.467351
C	-1.957183	0.450896	-1.64054
H	-2.257969	0.254115	-2.671678
H	-1.993938	1.52256	-1.458163
H	-2.638505	-0.067223	-0.967944
C	-0.38335	-1.190844	0.853988
H	0.096859	-2.07931	0.443578
H	-1.460384	-1.363835	0.942605
H	0.034777	-1.030068	1.845521
N	-0.401108	1.265191	0.643612
O	-0.73002	1.255907	1.835351
O	-0.324738	2.29983	-0.027324
F	2.493539	0.0	0.0
