19

C	-0.394498	-0.215474	-1.446989
C	0.0	0.0	0.0
F	-1.732886	-0.530331	-1.572257
H	1.091336	0.0	0.0
N	-0.183125	1.019065	-2.321698
O	0.977555	1.368375	-2.472387
O	-1.165891	1.518066	-2.855817
C	0.473501	-1.302342	-2.049727
H	0.407967	-1.281152	-3.139757
H	0.12272	-2.274514	-1.701425
H	1.495827	-1.120792	-1.704482
C	-0.406188	-1.182805	0.861828
H	-1.487132	-1.341728	0.890983
H	0.088512	-2.077763	0.48461
H	-0.041995	-1.015365	1.873247
N	-0.525975	1.257962	0.573462
O	-0.538968	2.265108	-0.136688
O	-0.873798	1.259552	1.757106
F	2.55119	0.0	0.0
