19

C	-0.387205	-0.184526	-1.45355
C	0.0	0.0	0.0
F	-1.713806	-0.542414	-1.591159
H	1.09135	0.0	0.0
N	-0.211971	1.079092	-2.295371
O	0.93569	1.486091	-2.40354
O	-1.199933	1.535272	-2.855708
C	0.521144	-1.222827	-2.084665
H	0.201039	-2.215508	-1.76668
H	1.533919	-1.017518	-1.725374
H	0.46225	-1.172038	-3.174023
C	-0.395544	-1.208699	0.831374
H	-1.476831	-1.359626	0.878601
H	-0.007511	-1.07641	1.839022
H	0.081512	-2.095628	0.414335
N	-0.541308	1.23261	0.613186
O	-0.794367	1.214654	1.820912
O	-0.671098	2.236832	-0.088467
F	2.554634	0.0	0.0
