19

C	-0.256889	0.013855	-1.501928
C	0.0	0.0	0.0
F	0.088518	-1.227356	-1.96766
H	1.092604	0.0	0.0
N	-1.75418	0.13929	-1.789985
O	-2.262154	1.217253	-1.485887
O	-2.353409	-0.820982	-2.265027
C	0.531805	1.037411	-2.273634
H	0.485298	0.784658	-3.335656
H	0.158123	2.04181	-2.100365
H	1.550171	0.94607	-1.883804
C	-0.599591	-1.197503	0.696161
H	-0.217909	-2.098504	0.217453
H	-1.693119	-1.205737	0.673794
H	-0.280134	-1.203376	1.738448
N	-0.423416	1.268286	0.641081
O	0.089056	2.316143	0.249559
O	-1.22538	1.211119	1.579442
F	2.564605	0.0	0.0
