15

C	0.0	0.0	0.0
C	-0.333252	-0.043582	-1.525141
Br	1.949109	0.0	0.0
H	0.487595	0.462891	-2.039919
H	-0.23328	1.011437	0.353576
N	-0.633021	-1.055519	0.714546
H	-1.649748	-0.933926	0.530246
H	-0.505366	-0.906441	1.710964
C	-1.620913	0.676418	-1.937613
H	-1.799902	0.517296	-3.005912
H	-1.489062	1.748768	-1.761962
H	-2.484253	0.344002	-1.334899
C	-0.291184	-1.427128	-2.010129
N	-0.266565	-2.50379	-2.480206
H	-3.512857	0.0	0.0
