15

C	0.0	0.0	0.0
C	-0.554542	0.063383	-1.420918
Br	1.950768	0.0	0.0
H	-1.654324	0.141097	-1.198728
H	-0.239533	0.951254	0.490122
N	-0.557718	-1.15008	0.646453
H	-1.587593	-0.969105	0.553219
H	-0.342335	-1.099337	1.637559
C	-0.277614	-1.183329	-2.255519
H	0.784757	-1.272897	-2.49541
H	-0.586277	-2.059719	-1.687243
H	-0.846277	-1.142056	-3.187849
C	-0.131257	1.27169	-2.115025
N	0.196952	2.233892	-2.705223
H	-3.00951	0.0	0.0
