15

C	0.0	0.0	0.0
C	-0.646643	0.042664	-1.347973
Br	2.013282	0.0	0.0
H	-1.811588	0.12695	-0.890084
H	-0.266809	0.898726	0.550175
N	-0.44122	-1.145847	0.725987
H	-0.548006	-0.942148	1.699299
H	0.159417	-1.945249	0.579922
C	-0.554913	-1.245251	-2.144101
H	0.494925	-1.538281	-2.321215
H	-1.04746	-1.133551	-3.116743
H	-1.072274	-2.034993	-1.592545
C	-0.280576	1.209608	-2.104335
N	0.001437	2.168394	-2.730928
H	-2.896299	0.0	0.0
