15

C	0.0	0.0	0.0
C	-0.236181	-0.061461	-1.56798
Br	1.966579	0.0	0.0
H	0.552382	0.538553	-2.025405
H	-0.291852	0.997835	0.332174
N	-0.63852	-0.958339	0.807043
H	-1.65828	-0.69019	0.73922
H	-0.536751	-1.883444	0.397769
C	-1.554033	0.467855	-2.146747
H	-1.440507	0.494284	-3.238307
H	-1.738207	1.479599	-1.778359
H	-2.414988	-0.115421	-1.826483
C	-0.00598	-1.436199	-2.019616
N	0.151904	-2.536863	-2.3987
H	-3.163708	0.0	0.0
