15

C	0.0	0.0	0.0
C	-0.416154	-0.22367	-1.477549
Br	1.962389	0.0	0.0
H	0.353783	-0.850243	-1.944879
H	-0.314285	0.987676	0.332281
N	-0.446962	-0.970565	0.955784
H	-0.287703	-1.897303	0.567952
H	-1.472885	-0.802983	0.921221
C	-0.494061	1.104081	-2.22704
H	-1.341017	1.67239	-1.8383
H	-0.63543	0.936893	-3.296731
H	0.429742	1.671468	-2.083396
C	-1.669774	-0.997843	-1.642636
N	-2.280694	-1.839049	-2.215657
H	-2.662442	0.0	0.0
