15

C	0.0	0.0	0.0
C	-0.525364	0.026028	-1.446599
Br	1.95597	0.0	0.0
H	-1.626283	0.106849	-1.239768
H	-0.275745	0.951053	0.459025
N	-0.541616	-1.041644	0.813006
H	-1.56742	-0.841352	0.7701
H	-0.385509	-1.938037	0.363934
C	-0.235491	-1.231148	-2.260275
H	0.839208	-1.391307	-2.381181
H	-0.674659	-2.102152	-1.769443
H	-0.68974	-1.149202	-3.250466
C	-0.087227	1.215868	-2.164251
N	0.254602	2.169997	-2.76096
H	-2.995722	0.0	0.0
