15

C	0.0	0.0	0.0
C	-0.303861	-0.034583	-1.553187
Br	1.966844	0.0	0.0
H	0.558414	0.377779	-2.082549
H	-0.26768	0.996997	0.353692
N	-0.640152	-0.951396	0.82418
H	-1.650589	-0.692591	0.801339
H	-0.558632	-1.879054	0.419751
C	-1.536188	0.779314	-1.951834
H	-1.320413	1.839057	-1.778511
H	-1.75031	0.638514	-3.01612
H	-2.403183	0.491576	-1.331645
C	-0.394474	-1.429299	-1.984268
N	-0.445314	-2.548541	-2.338565
H	-3.40226	0.0	0.0
