15

C	0.0	0.0	0.0
C	-0.629828	0.028704	-1.370996
Br	2.013792	0.0	0.0
H	-1.744024	0.127899	-1.007181
H	-0.273058	0.912357	0.53039
N	-0.442191	-1.137269	0.722812
H	0.152259	-1.941451	0.598699
H	-0.60498	-0.945093	1.697123
C	-0.490276	-1.268705	-2.152681
H	-1.011339	-2.055438	-1.603637
H	-0.962438	-1.169789	-3.132947
H	0.558899	-1.548278	-2.300906
C	-0.222338	1.18655	-2.141275
N	0.077444	2.126503	-2.783809
H	-3.051731	0.0	0.0
