15

C	0.0	0.0	0.0
C	-0.499271	0.014285	-1.457657
Br	1.956354	0.0	0.0
H	-1.603258	0.079122	-1.27962
H	-0.296272	0.942722	0.462425
N	-0.502283	-1.066523	0.806522
H	-0.266214	-1.956712	0.379155
H	-1.533325	-0.930726	0.753991
C	-0.160051	-1.238743	-2.260433
H	0.920311	-1.365789	-2.368554
H	-0.574156	-2.120456	-1.767504
H	-0.60391	-1.179084	-3.256455
C	-0.067363	1.210354	-2.169462
N	0.250155	2.167628	-2.774072
H	-2.990161	0.0	0.0
