15

C	0.0	0.0	0.0
C	-0.357935	0.075546	-1.495791
Br	1.945341	0.0	0.0
H	0.174523	-0.715607	-2.029242
H	-1.431577	-0.10533	-1.569
C	-0.299803	1.216411	0.874491
H	0.073826	2.117753	0.379404
H	-1.372383	1.304154	1.026276
H	0.207536	1.107752	1.833387
N	-0.727484	-1.204233	0.541317
O	-0.680977	-1.326027	1.781021
O	-0.862872	-2.18144	-0.238909
C	-0.050781	1.36604	-2.096475
N	0.162954	2.399665	-2.61343
H	-2.210905	0.0	0.0
