15

C	0.0	0.0	0.0
C	-0.622299	0.065319	-1.375299
Br	1.944363	0.0	0.0
H	-1.743776	0.035461	-1.105944
H	-0.35869	-0.806646	-1.97426
C	-0.498222	1.113419	0.883969
H	-1.5974	1.013609	0.878074
H	-0.098184	1.02659	1.892221
H	-0.199332	2.069349	0.448827
N	-0.370512	-1.357062	0.612164
O	-0.469516	-1.412721	1.831039
O	-0.466445	-2.309159	-0.154042
C	-0.259617	1.284848	-2.068037
N	0.029829	2.271812	-2.638435
H	-3.056946	0.0	0.0
