15

C	0.0	0.0	0.0
C	-0.650462	-0.052044	-1.361143
Br	1.938438	0.0	0.0
H	-1.758259	-0.18982	-1.077063
H	-0.574571	0.94258	-1.809658
C	-0.525092	1.190227	0.762841
H	-1.624355	1.071078	0.754275
H	-0.138238	1.20817	1.779679
H	-0.236167	2.104873	0.240396
N	-0.355372	-1.280444	0.772405
O	-0.372715	-1.210417	1.995427
O	-0.537585	-2.295516	0.112572
C	-0.142974	-1.027065	-2.307668
N	0.247509	-1.760356	-3.139466
H	-3.093412	0.0	0.0
