15

C	0.0	0.0	0.0
C	-0.670338	-0.053475	-1.35023
Br	1.931331	0.0	0.0
H	-0.602239	0.94022	-1.801877
H	-1.780109	-0.185134	-1.041654
C	-0.522857	1.189658	0.766997
H	-0.243499	2.103352	0.239188
H	-0.125461	1.212094	1.779721
H	-1.621342	1.069479	0.770786
N	-0.347024	-1.281638	0.777225
O	-0.484684	-2.306664	0.12158
O	-0.398578	-1.204725	1.998517
C	-0.189214	-1.03198	-2.305941
N	0.171026	-1.762287	-3.153773
H	-3.083714	0.0	0.0
