16
Coordinates from ORCA-job run
  C   0.70765585105757     -0.48056754137561     -0.32344239606859
  C   -0.78626109609206     -0.12206898057751     -0.40129431478272
  H   0.79117567835502     -1.56816973745142     -0.40116899436568
  H   -1.23752819450556     -0.63303415308170     -1.26486147319427
  C   1.35794709579739      0.00583362821821      0.97404451291070
  H   0.92830273980080     -0.52488954404520      1.82550416066252
  H   2.42987214824909     -0.19638068368819      0.95542372310352
  H   1.19477021681313      1.07507854911213      1.09991774143562
  C   1.35228381544895      0.11471315919274     -1.49528406151946
  N   1.83934072701159      0.62377875657199     -2.43494976464490
  N   -0.98201977766911      1.29796681834610     -0.33811985722788
  H   -0.69812454731808      1.71761135206307     -1.21536382646247
  H   -1.95432277074826      1.51669557546935     -0.16403511545721
  N   -1.47320965475956     -0.77220091915785      0.78061513120566
  O   -2.24555014235441     -0.09429761440260      1.44892237542932
  O   -1.22533208908651     -1.96206866519353      0.95209215897584
