16
Coordinates from ORCA-job run
  C   0.74611673844831      0.28785489912591     -0.17335957096956
  C   -0.64495257133792     -0.18954275418403     -0.65381919990788
  H   1.27778707745925      0.58378627962781     -1.08660229405683
  H   -0.50433855969988     -0.96914068898576     -1.40375964965142
  C   1.54743411978043     -0.79990468839837      0.54802228405445
  H   1.57762373910567     -1.70970337054071     -0.05476055371922
  H   1.09611526645768     -1.04070196134547      1.51137904242662
  H   2.56920807246533     -0.46112129436934      0.72462375420778
  C   0.62062093734894      1.49345521358909      0.64847250091435
  N   0.52639302018456      2.47317293397160      1.28923964055390
  N   -1.55333362736841      0.79902159869752     -1.14175977622230
  H   -1.59177713532459      1.60692905177553     -0.53242695469525
  H   -1.31797162940937      1.08094916224910     -2.08279724837606
  N   -1.30162914195641     -0.88492716018810      0.50869083666611
  O   -1.26989152332596     -2.11294056966686      0.52518471325201
  O   -1.77640478282762     -0.15618665135789      1.37467247552331
