16
Coordinates from ORCA-job run
  C   0.53887363890667      0.38236176976861      0.38792492868512
  C   -0.59619841153414     -0.39996760768315     -0.28333087456129
  H   0.36612158261243      1.44555256814465      0.17951284750589
  H   -0.51465658027459     -1.46735477589385     -0.07215964403663
  C   1.90285966601257     -0.04732347370729     -0.15845083254736
  H   2.69721186390695      0.53259293203089      0.31394361995356
  H   2.07926629722771     -1.10479961744101      0.05015160398650
  H   1.93283403152902      0.10692590375157     -1.23571781493998
  C   0.48537782972876      0.20495964237766      1.84118034469704
  N   0.47241378923989      0.04783582351890      3.00486992675913
  N   -0.61247009448785     -0.15646369285641     -1.68385218236514
  H   -1.26767283818901     -0.76378459251530     -2.15900279052384
  H   -0.86006944950058      0.80851410657738     -1.86963476741478
  N   -1.89451323997296      0.02636519480329      0.39944198869658
  O   -2.26611065982577      1.17585010115990      0.16789807445501
  O   -2.46226742537908     -0.79226428203586      1.11622557165017
