16
Coordinates from ORCA-job run
  C   0.67639865615400     -0.47931842256684     -0.27319164927002
  C   -0.84239378496504     -0.21132798155329     -0.45724096269445
  H   0.81492820978318     -1.56595731990954     -0.24882819633272
  H   -1.20552206959738     -0.81939607840579     -1.28789345216719
  C   1.25891226398958      0.13882933874733      1.00009798217619
  H   2.33510971060506     -0.03450016881547      1.04044069561488
  H   1.09225155544495      1.21717721496366      1.02995429388001
  H   0.80834116350282     -0.31035726800925      1.88629689881349
  C   1.34427972505122      0.04416721525467     -1.46446779210292
  N   1.84439234369440      0.50158650282113     -2.42374732128448
  N   -1.28649517421415      1.13082458010539     -0.62597421916274
  H   -1.02792164262000      1.48563143467659     -1.53648259192968
  H   -0.95653346196980      1.74755911340918      0.10278392979359
  N   -1.48668386843818     -0.79783752125781      0.77479561074480
  O   -1.84513357917707     -0.02245789396636      1.65440307448064
  O   -1.52293004724359     -2.02462274549360      0.82805369944062
