18

C	0.0	0.0	0.0
C	-0.551447	-0.330718	-1.411711
Br	1.972878	0.0	0.0
H	-1.635992	-0.22392	-1.267311
C	-0.344896	1.375368	0.368062
N	-0.554431	2.493862	0.663603
C	-0.499064	-0.966601	1.061526
H	-0.137463	-0.676759	2.049685
H	-1.5943	-0.925097	1.036613
H	-0.149173	-1.976223	0.841387
N	-0.296486	-1.696382	-1.841834
H	0.675973	-1.942137	-1.685699
H	-0.883392	-2.3363	-1.321661
C	-0.087661	0.642598	-2.483175
H	-0.266566	1.679772	-2.191584
H	0.977005	0.515256	-2.699425
H	-0.649802	0.432765	-3.39431
Cl	-3.754402	0.0	0.0
