18

C	0.0	0.0	0.0
C	-0.434772	-0.137228	-1.518451
Br	1.970989	0.0	0.0
H	0.353307	0.377055	-2.079984
C	-0.327719	1.357076	0.444963
N	-0.537726	2.469695	0.763108
C	-0.597342	-1.024426	0.944628
H	-0.303697	-0.817189	1.975414
H	-1.689262	-0.94916	0.862837
H	-0.272451	-2.030052	0.676825
N	-1.681382	0.487718	-1.868472
H	-1.63678	1.488787	-1.716159
H	-2.480006	0.15069	-1.321671
C	-0.465785	-1.600498	-1.935178
H	0.453112	-2.127938	-1.665639
H	-0.596493	-1.643429	-3.017517
H	-1.321314	-2.102352	-1.477764
Cl	-4.233128	0.0	0.0
