18

C	0.0	0.0	0.0
C	-0.455528	-0.080418	-1.468998
Br	1.980805	0.0	0.0
H	-0.047686	-1.033983	-1.845521
C	-0.364045	1.28918	0.588856
N	-0.638643	2.296877	1.127891
C	-0.509744	-1.149834	0.854992
H	-0.264756	-2.10166	0.377323
H	-0.05802	-1.121392	1.847563
H	-1.594865	-1.059835	0.956091
N	0.056928	1.078817	-2.190037
H	1.013145	0.93254	-2.487311
H	-0.516431	1.248013	-3.005596
C	-1.974058	-0.103382	-1.572496
H	-2.44002	-0.955851	-1.084968
H	-2.245375	-0.149036	-2.632692
H	-2.437111	0.781366	-1.136211
Cl	-4.962661	0.0	0.0
