16

C	0.0	0.0	0.0
C	-0.469506	-0.212317	-1.423738
F	1.4376	0.0	0.0
H	-0.161223	0.65434	-2.026509
H	-1.562046	-0.241845	-1.375661
C	-0.460737	1.318167	0.568769
H	-1.552983	1.324364	0.568532
H	-0.071116	2.148658	-0.025353
H	-0.097426	1.426983	1.594752
N	-0.43527	-1.086188	0.796283
H	-0.211211	-1.95091	0.321232
H	-0.008635	-1.053556	1.711699
N	0.041388	-1.48885	-1.93189
H	-0.522116	-1.791243	-2.714693
H	0.994572	-1.366541	-2.248714
Cl	-4.148075	0.0	0.0
