16

C	0.0	0.0	0.0
C	-0.460825	-0.162562	-1.443053
F	1.389116	0.0	0.0
H	0.005207	0.644735	-2.019198
H	-1.545561	-0.015982	-1.442613
C	-0.430798	1.342613	0.561143
H	-0.021512	1.461602	1.569342
H	-0.05252	2.158128	-0.061769
H	-1.520378	1.376402	0.598431
N	-0.45832	-1.133472	0.767994
H	-0.232806	-0.977439	1.744718
H	-1.478178	-1.133415	0.693399
N	-0.049609	-1.465501	-1.990145
H	-0.800198	-1.801226	-2.582941
H	-0.006284	-2.10259	-1.200637
Cl	-3.777224	0.0	0.0
