16

C	0.0	0.0	0.0
C	-0.427681	0.202767	-1.440574
F	1.432653	0.0	0.0
H	-1.514987	0.320138	-1.429692
H	-0.193494	-0.723938	-1.992625
C	-0.441529	1.120342	0.910003
H	-0.081542	2.066328	0.506946
H	-0.014041	0.96961	1.905747
H	-1.532065	1.123858	0.965979
N	-0.467818	-1.251495	0.459254
H	-0.356014	-1.367738	1.454323
H	-0.054281	-2.019477	-0.04839
N	0.21711	1.392473	-1.999746
H	-0.182845	1.593353	-2.906904
H	1.201295	1.19564	-2.124538
Cl	-4.208044	0.0	0.0
