16

C	0.0	0.0	0.0
C	-0.398445	-0.171723	-1.460089
F	1.418291	0.0	0.0
H	-0.037097	0.696048	-2.033991
H	-1.490717	-0.181983	-1.481858
C	-0.445698	1.331364	0.557448
H	-0.107693	1.409089	1.592592
H	-0.006414	2.145035	-0.02436
H	-1.534955	1.391684	0.51829
N	-0.445339	-1.071875	0.837603
H	-0.377113	-1.920567	0.28235
H	-1.439757	-0.914385	0.999345
N	0.115362	-1.452211	-1.955307
H	-0.329998	-1.68062	-2.833583
H	1.110193	-1.366443	-2.115273
Cl	-3.786642	0.0	0.0
