16

C	0.0	0.0	0.0
C	-0.403278	-0.158803	-1.458829
F	1.4125	0.0	0.0
H	-1.493533	-0.093482	-1.48977
H	-0.110723	-1.179658	-1.764248
C	-0.4375	1.323697	0.583372
H	-1.527513	1.372518	0.578917
H	-0.064292	1.393098	1.607382
H	-0.031561	2.134471	-0.02022
N	-0.458965	-1.076506	0.830945
H	-0.3674	-1.950769	0.321827
H	-1.459569	-0.928312	0.969116
N	0.188467	0.884002	-2.297421
H	1.183523	0.712667	-2.369867
H	-0.208472	0.832164	-3.226961
Cl	-3.786083	0.0	0.0
