16

C	0.0	0.0	0.0
C	-0.44705	0.174327	-1.436764
F	1.432791	0.0	0.0
H	-1.537452	0.249197	-1.409097
H	-0.184377	-0.745566	-1.986449
C	-0.478216	1.110908	0.898007
H	-0.074634	0.973027	1.906713
H	-1.570785	1.080852	0.926957
H	-0.139713	2.067818	0.503354
N	-0.445542	-1.261774	0.471915
H	0.002183	-2.01333	-0.035459
H	-0.277029	-1.367723	1.462386
N	0.137737	1.383044	-2.015938
H	1.11947	1.216477	-2.196638
H	-0.316399	1.582465	-2.897729
Cl	-4.158895	0.0	0.0
