16

C	0.0	0.0	0.0
C	-0.454618	-0.216081	-1.442003
F	1.404035	0.0	0.0
H	-1.507283	0.075781	-1.47714
H	0.123577	0.449803	-2.092945
C	-0.433001	1.359523	0.508585
H	-0.053058	2.142495	-0.15423
H	-1.522458	1.412385	0.547919
H	-0.015288	1.506493	1.506422
N	-0.440019	-1.028438	0.897041
H	-0.32271	-1.908383	0.401233
H	-1.442827	-0.894132	1.027707
N	-0.292142	-1.622606	-1.840599
H	0.273485	-1.695862	-2.673006
H	-1.202956	-2.009168	-2.048705
Cl	-3.788256	0.0	0.0
