16

C	0.0	0.0	0.0
C	-0.451398	-0.382594	-1.406856
F	1.398875	0.0	0.0
H	0.11839	-1.278738	-1.681479
H	-1.510908	-0.643819	-1.329583
C	-0.447051	1.388038	0.396946
H	-0.088427	1.590993	1.407813
H	-0.01436	2.110313	-0.295292
H	-1.5368	1.441554	0.373405
N	-0.442558	-0.951351	0.988467
H	-0.304887	-1.890356	0.626144
H	-1.449948	-0.82186	1.083056
N	-0.194968	0.67516	-2.395472
H	-0.095961	0.252099	-3.311749
H	-1.025147	1.257485	-2.437954
Cl	-3.788345	0.0	0.0
