16

C	0.0	0.0	0.0
C	-0.307548	0.435578	-1.450343
F	1.403071	0.0	0.0
H	-0.044703	1.497307	-1.524447
H	0.422065	-0.116342	-2.051116
C	-0.463867	0.990633	1.047282
H	-0.040752	1.98124	0.859053
H	-0.146277	0.660646	2.042508
H	-1.555645	1.045461	1.024394
N	-0.464331	-1.34701	0.206984
H	-1.47732	-1.33283	0.094852
H	-0.291318	-1.60704	1.173263
N	-1.617091	0.229155	-2.019905
H	-2.359436	0.61646	-1.443149
H	-1.818747	-0.761003	-2.06989
Cl	-4.120918	0.0	0.0
