16

C	0.0	0.0	0.0
C	-0.315904	0.314513	-1.482426
F	1.402741	0.0	0.0
H	0.427206	-0.26473	-2.039555
H	-0.078874	1.373686	-1.639159
C	-0.470366	1.061978	0.970298
H	-1.562972	1.099923	0.949124
H	-0.145442	0.807346	1.984811
H	-0.059658	2.040916	0.711182
N	-0.450274	-1.331799	0.316392
H	-1.458974	-1.339201	0.171381
H	-0.313393	-1.49194	1.311041
N	-1.621323	0.028904	-2.032358
H	-2.379713	0.3929	-1.461526
H	-1.769223	-0.9717	-2.060067
Cl	-4.153155	0.0	0.0
