13
Coordinates from ORCA-job run
  C   -0.59994538718819      0.20716664178168     -0.14454312998859
  C   0.56289672111045     -0.56669554028928      0.47118087887059
  H   -0.86275853749602      1.03583335079715      0.52294573850187
  H   0.24678907190008     -1.03359404506474      1.40705858443417
  H   0.93914694972661     -1.32335464752203     -0.21316286409588
  N   -1.68204883454963     -0.75202641942466     -0.37770828454662
  H   -2.35245971965977     -0.37122892081370     -1.03411193086129
  H   -2.16984529963971     -0.91980662565059      0.49482560488972
  C   -0.18062559129165      0.79386165460678     -1.42258469259404
  N   0.14898602702044      1.25900983062078     -2.44851348712801
  N   1.70117163860818      0.33547084118237      0.81696045143098
  O   2.83394239201877     -0.09400296990236      0.62240645577399
  O   1.41675056944044      1.42836684967861      1.30324667531312
