13
Coordinates from ORCA-job run
  C   -0.65347453765017      0.29474335046112     -0.10654318973861
  C   0.50423647195619     -0.55912414239096      0.43098380649053
  H   -0.87055929748773      1.06679002616690      0.63650763188451
  H   0.83482069758546     -1.29997081713130     -0.29578686065836
  H   0.20239746231779     -1.03730937480765      1.36471012125620
  N   -1.87475130536297     -0.44867100195491     -0.36384519361906
  H   -1.70925830855995     -1.21783933014547     -1.00151214118934
  H   -2.25798839247436     -0.81157028138136      0.49990376701185
  C   -0.22441068135075      0.97102354904079     -1.33943272471270
  N   0.14661179191331      1.47748452553354     -2.33106383499900
  N   1.67973173085151      0.30216419278322      0.75221922119251
  O   2.74989451682476      0.03835694267794      0.21270213290777
  O   1.47074985143691      1.22292236114814      1.54015726417371
