13
Coordinates from ORCA-job run
  C   -0.66795356089918      0.10022055086638     -0.03378904378190
  C   0.72914469508731      0.49766794628048      0.42688308986299
  H   -1.19589340261977     -0.30605921538297      0.83265810762296
  H   1.35296859431223      0.83458425913090     -0.40008874953530
  H   0.69407798921340      1.25345183204731      1.21344318215692
  N   -0.55714109747545     -0.95269679330901     -1.02796961340601
  H   -0.23927816229685     -0.57938519955852     -1.91463307164029
  H   -1.45149551462450     -1.40165280452822     -1.17737178711781
  C   -1.38121381386615      1.31060089321037     -0.48909049003967
  N   -1.93897259843511      2.25950503331067     -0.89997413983499
  N   1.38955655185496     -0.70924450107565      1.00709402164342
  O   2.48576324910460     -1.02508348137795      0.55811444538286
  O   0.78043707064449     -1.28290851961379      1.90472404868682
