13
Coordinates from ORCA-job run
  C   -0.62803671516999      0.30332954980864     -0.07093478144741
  C   0.88056985612964      0.37470137084315      0.12387057785727
  H   -1.11546274515910      0.40545720578206      0.90778323085865
  H   1.19880545514917      1.30501873021292      0.59936303220270
  H   1.39622582089775      0.24437189249217     -0.82644785242256
  N   -0.96619732103941     -0.93403577185337     -0.77092262617739
  H   -1.88919754592055     -0.86567493038018     -1.18125311864000
  H   -0.98044562525511     -1.68858355689317     -0.09532303402162
  C   -1.01885254912964      1.45791557033033     -0.88792759868493
  N   -1.33088958959096      2.38232832254818     -1.53999820855380
  N   1.35991423258652     -0.72909584281215      1.01687604304149
  O   0.53017052299937     -1.31200282142070      1.71410799034744
  O   2.56539620350230     -0.94372971865789      1.00880634564014
