13
Coordinates from ORCA-job run
  C   -0.62502437464282      0.25752698351349      0.02762838821226
  C   0.89070226223782      0.39689931872851      0.09665482600552
  H   -1.00757083660634      0.32039554274014      1.04952963069927
  H   1.35963184599835      0.25873684467924     -0.87678665041754
  H   1.18738109457595      1.35226414165831      0.53300908993297
  N   -0.95673215074204     -1.05522991920421     -0.49771857859034
  H   -0.78155541365654     -1.09877999353568     -1.49477619781561
  H   -1.93332573119157     -1.26856080939431     -0.34018893071469
  C   -1.17213478185842      1.39080753598724     -0.74557132659408
  N   -1.61208475316430      2.25945948981255     -1.40293512535197
  N   1.41808059609074     -0.67626665338149      0.99072651266556
  O   2.29701703618913     -1.40442849875457      0.54308273296475
  O   0.93461520677003     -0.73082398284922      2.11734562900390
