13
Coordinates from ORCA-job run
  C   -0.54911483511788      0.35519275857893     -0.13896833920779
  C   0.44622612454240     -0.39373200155344      0.73840629106292
  H   -0.49244379289414      1.41450156226775      0.11821690351909
  H   0.46969410916508     -1.46111058277307      0.52174877594689
  H   0.19090742990105     -0.22827484045571      1.78593980777881
  N   -1.88404050881731     -0.13097224101267      0.18132184948282
  H   -2.58241602777083      0.48055456065065     -0.22308135391624
  H   -2.02486074582064     -1.05503443484665     -0.21049425303680
  C   -0.17938976439806      0.21649033221369     -1.56302873367017
  N   0.06359553859649      0.06173116862369     -2.70192477293095
  N   1.83520754295319      0.11656271494248      0.53553641175747
  O   1.96326596346610      1.33206461616271      0.40669180849938
  O   2.74336896619456     -0.70797361279835      0.54963560471457
