13
Coordinates from ORCA-job run
  C   -0.64158614541931      0.30038150065643     -0.20044811054435
  C   0.89524193606873      0.15508708132654     -0.26828080111562
  Cl  -1.18550067880326      1.42985858812958     -1.43842251863408
  H   1.31362098338388      1.16086473948945     -0.14965404992241
  C   -1.31411401850770     -0.98104785733595     -0.32580017319294
  N   -1.81901152479979     -2.03602206545186     -0.45277624409345
  N   -0.98995504581020      0.92641069619577      1.17274457658068
  O   -2.02107606778882      0.54373777185955      1.69993402199585
  O   -0.21021467093205      1.78034036951812      1.56681299432752
  C   1.29265859864003     -0.39685539421183     -1.56398145910119
  N   1.61627015941677     -0.82788153608618     -2.60739772619708
  C   1.35886884493622     -0.69000746396108      0.83552777918243
  N   1.70579762961549     -1.36386643012855      1.73274171071467
