13
Coordinates from ORCA-job run
  C   -0.70047416017944      0.11081167818864     -0.20659212720781
  C   0.82888582963304      0.24284906187781     -0.38712072599255
  Cl  -1.52122307021220      0.74469342659101     -1.63112749289276
  H   1.03461865104727      1.30198658563884     -0.57828045449811
  C   -1.09832489655433     -1.26065319484615      0.06106179372144
  N   -1.37782840608665     -2.38773479058157      0.24861956651524
  N   -1.10474205090047      1.00375378649957      0.99122418204177
  O   -1.99499997901987      0.58186555971287      1.71043750863163
  O   -0.51063022857156      2.06849367939783      1.06691177884016
  C   1.27278954524138     -0.56241924630095     -1.52562886635175
  N   1.63240870964164     -1.20045369940726     -2.44362227635530
  C   1.50754305746008     -0.16224621152770      0.84692098735315
  N   2.03197699850112     -0.48194663524294      1.84819612619488
