13
Coordinates from ORCA-job run
  C   -0.67256873064430     -0.07752481699816     -0.19256276258221
  C   0.84512219529462     -0.19511803239128      0.10911543140665
  Cl  -0.99610730709624     -0.14135660273645     -1.90331846489636
  H   0.95594974568673     -0.13920441290679      1.19905431429699
  C   -1.41101393447693     -1.10230923144136      0.53083703644434
  N   -1.99274436971426     -1.94070426273623      1.11574401127372
  N   -1.09623002144222      1.30385476860856      0.40987825374864
  O   -0.88114074891345      1.38074252066190      1.61137597181963
  O   -1.56008492805329      2.14366311545419     -0.33435062364359
  C   1.56528437912987      0.92802764031082     -0.49494812067636
  N   2.13057336499836      1.84650363518934     -0.96020142489678
  C   1.35517382985893     -1.48239124034768     -0.36238410797760
  N   1.75778652537218     -2.52318308066686     -0.72823951431707
