13
Coordinates from ORCA-job run
  C   -0.69982801666410      0.12011851177961     -0.19986552706029
  C   0.82907575651777      0.24346771264508     -0.38730646996718
  Cl  -1.52455409139457      0.79071997485295     -1.60506952548398
  H   1.04215181129337      1.30497060649162     -0.55621871043018
  C   -1.10899215751826     -1.25251424809254      0.04260216791181
  N   -1.40053829759775     -2.37984390685414      0.20944683176077
  N   -1.08883545170738      0.99252012001341      1.01916780854091
  O   -1.97763143918747      0.56347062776300      1.73601543143622
  O   -0.48696265026280      2.05164473231031      1.11089629554749
  C   1.25940477925941     -0.53967504639273     -1.54620670032861
  N   1.60467056806808     -1.16094481414996     -2.48106309185569
  C   1.51193430651181     -0.19370024394498      0.83344842360066
  N   2.03810488268189     -0.53923402642163      1.82515306632807
