13
Coordinates from ORCA-job run
  C   -0.72644330710160      0.04518771086147     -0.27454716927587
  C   0.73263620394148     -0.42246111268689     -0.48026880355094
  Cl  -1.37044267935249      0.68632433887784     -1.78394130548680
  H   0.67676439338634     -1.25017958135206     -1.20023334323007
  C   -1.54725905667828     -1.05670175999362      0.20738323851009
  N   -2.17392388971529     -1.98049026204541      0.57807122660613
  N   -0.79500383530947      1.17357364615290      0.78369468503021
  O   -1.91735145794999      1.45048003200747      1.17120168717687
  O   0.26789390672744      1.68314057294378      1.10511317760572
  C   1.28324741063691     -0.94484732399672      0.77316349314881
  N   1.70316985960222     -1.40528638959973      1.76858479248776
  C   1.58363979880267      0.61759957684885     -1.06313537623776
  N   2.28407265301003      1.40266055198211     -1.58408630278414
