13
Coordinates from ORCA-job run
  C   -0.75394363373515     -0.03505625141097     -0.18854309117494
  C   0.70893737556553     -0.37488500574016     -0.55335133640780
  Cl  -1.62785312953591      0.47650036796512     -1.63009061522611
  H   0.64821459277806     -1.23348682224446     -1.23583384182191
  C   -1.40477220235895     -1.18406502564662      0.42507046924227
  N   -1.92204850903913     -2.13365339127263      0.88795071626731
  N   -0.80760308022929      1.12833309925190      0.83295037212783
  O   -1.90110392336052      1.32575337202697      1.33434319049040
  O   0.23475972600000      1.73820774339627      1.01846647038248
  C   1.45056621692631     -0.79202988713363      0.63953801291694
  N   2.02154422577828     -1.16930670207851      1.59390658610756
  C   1.38370254405837      0.71352823870838     -1.26482118684340
  N   1.96759979715242      1.54016026417834     -1.85958574606062
