13
Coordinates from ORCA-job run
  C   -0.70313844583764      0.12512441879950     -0.18914401630343
  C   0.82305268947516      0.21635602028156     -0.41526210634275
  Cl  -1.54977962325676      0.76031770225744     -1.59739914815712
  H   1.04941962159746      1.26749772223302     -0.62633232593939
  C   -1.12722429234078     -1.23159348936891      0.11095136598406
  N   -1.43035964711311     -2.34753004286975      0.32655277729457
  N   -1.04920240178943      1.04464286348653      1.00817587698723
  O   -0.42845729376517      2.09595120851501      1.04972387648298
  O   -1.92655489880623      0.65452715467253      1.76029750012812
  C   1.21403145707986     -0.61423564774015     -1.55502433904672
  N   1.53132816838274     -1.27137657900906     -2.47511244488602
  C   1.52606835147410     -0.19002773410451      0.80470660127503
  N   2.06881631489980     -0.51065359715320      1.79586638252345
