13
Coordinates from ORCA-job run
  C   -0.73058404298112     -0.09961309924783      0.01465694894748
  C   0.65493279828684     -0.15238601412199     -0.66784376594488
  Cl  -1.93686562131557     -0.83901356511691     -1.03537694430730
  H   0.55036957347015      0.35007683453450     -1.63594278782869
  C   -0.71547181041100     -0.73057868361163      1.32310634584879
  N   -0.66291148516335     -1.27024863876756      2.36700362819910
  N   -1.11344073100452      1.39282379571756      0.17199213888704
  O   -0.79878194247722      2.10984732520226     -0.76571371425352
  O   -1.72296608400920      1.69585485721543      1.18408985908440
  C   1.06345530158358     -1.54275012508764     -0.87183407012088
  N   1.38972886880359     -2.65748753399704     -1.04525491954379
  C   1.63189089985063      0.57467764830861      0.14738121854358
  N   2.39264427536717      1.16979719897224      0.81573606248869
