13
Coordinates from ORCA-job run
  C   -0.75402563574941     -0.03063005401584     -0.19095642996095
  C   0.71166109995664     -0.35901551110506     -0.55619963337902
  Cl  -1.62241093909123      0.51482079245541     -1.62363504179807
  H   0.65718191879158     -1.20301200952890     -1.25717987043182
  C   -1.40347614231373     -1.19675397290007      0.39082997992475
  N   -1.88923847396437     -2.16921074342047      0.84009248048358
  N   -0.81470477050857      1.10691453683827      0.85790538783735
  O   0.22198686239043      1.72376011212682      1.05148669883140
  O   -1.90833363853863      1.28162711635462      1.36769406945694
  C   1.44819441142234     -0.79985465690890      0.63138754774056
  N   2.02025179178354     -1.19522149112626      1.57771251708381
  C   1.38633143000288      0.74554032005733     -1.24209664703712
  N   1.94658208581856      1.58203556117304     -1.84604105875141
