13
Coordinates from ORCA-job run
  C   -0.75951616682068     -0.02704978683803     -0.16426473521563
  C   0.69267477691872     -0.35445043640727     -0.58272375860099
  Cl  -1.67580399594515      0.53606322927191     -1.55962109535855
  H   0.61307546911625     -1.19402421142337     -1.28648826787674
  C   -1.39064424201678     -1.19943866627600      0.42513120487607
  N   -1.86371161874754     -2.17742519575045      0.87620916183021
  N   -0.78095494496662      1.09829886248777      0.89837996786604
  O   -1.85460149366284      1.26606774191330      1.45127785308248
  O   0.26193373934532      1.71397316032282      1.05943328285550
  C   1.46800211170610     -0.80291856974622      0.57696590317857
  N   2.06812338105047     -1.20489321976656      1.50288207551861
  C   1.34284892869637      0.75405571183025     -1.28548871716161
  N   1.87757405532638      1.59174138038185     -1.91069287499394
