13
Coordinates from ORCA-job run
  C   -0.66022493220507     -0.07671499723701     -0.23253440802748
  C   0.83739860609371     -0.19056505822559      0.15611197097395
  Cl  -0.88137580684890     -0.12021552359450     -1.96012041068336
  H   0.88590808436860     -0.14117552889496      1.25104154390360
  C   -1.43358980990267     -1.11513015565675      0.43263837431518
  N   -2.04090869048993     -1.96564275750259      0.97227765797188
  N   -1.12773721350192      1.29323950082650      0.36137879177877
  O   -1.55300386294710      2.14069740012336     -0.39705492212909
  O   -0.98661878012433      1.35389230407803      1.57475820394031
  C   1.58652507180262      0.93926923112196     -0.39914246194400
  N   2.17323479311591      1.86083754623769     -0.83035755705708
  C   1.38153472478918     -1.47196708404863     -0.29296293193291
  N   1.81885781584990     -2.50652487722752     -0.63603385110977
