13
Coordinates from ORCA-job run
  C   -0.69058595021084      0.21067943159280     -0.14591692214947
  C   0.82801788245708      0.16833116397052     -0.42738107219075
  Cl  -1.51330437230244      1.05686082126533     -1.45378921076230
  H   1.15671139951827      1.20681384959393     -0.54649979364641
  C   -1.24452736655525     -1.11763211032040      0.05190972813807
  N   -1.65668279391646     -2.21119376246588      0.18511599007079
  N   -0.90088502863940      1.04652770141793      1.14255194303737
  O   -0.16095242869491      2.01124515538767      1.26159296669892
  O   -1.80377543908581      0.69042878088297      1.88104864451856
  C   1.09242797496140     -0.57773459901029     -1.65826385221636
  N   1.30696979805152     -1.16115217695863     -2.65474750107413
  C   1.52472647073755     -0.42642745547139      0.71638543181259
  N   2.06285985367927     -0.89774679988456      1.64799364776312
