13
Coordinates from ORCA-job run
  C   -0.69573433471948     -0.10207706603463     -0.00087674576564
  C   0.85154323165965     -0.17537185797455     -0.09169390413907
  Cl  -1.44414035774513     -0.36671889105811     -1.55177660204612
  H   1.23782299132524      0.01021868896859      0.91815601068510
  C   -1.18687732996460     -1.04100483847292      0.99738242068664
  N   -1.56737529021394     -1.80964156551650      1.80225004998612
  N   -1.00105084070485      1.33595673515980      0.53404875025047
  O   -0.48785868328123      1.55348390973153      1.62284942141069
  O   -1.67128066577622      2.08111386656554     -0.15173315133093
  C   1.35030945795085      0.87141960463353     -0.98684412082497
  N   1.74069389859915      1.72829478969072     -1.68878509471522
  C   1.26930178904071     -1.50636860176244     -0.53206920305822
  N   1.60464613382986     -2.57930477393057     -0.87190783113883
