13
Coordinates from ORCA-job run
  C   -0.69941447473432      0.08465333274906     -0.21859200706179
  C   0.82779987298078      0.25043572069422     -0.38533607900439
  Cl  -1.51880375839314      0.64668487597357     -1.67370744471806
  H   1.00828881835189      1.30824623345582     -0.60673010533939
  C   -1.06719366512654     -1.28543099640771      0.09429940257910
  N   -1.32363482602601     -2.41085682809780      0.32064843295791
  N   -1.14143186291618      1.01016036711216      0.94222325297109
  O   -0.57657671339366      2.09246288239024      0.98544575892663
  O   -2.02954636651991      0.59139355952116      1.66588519709382
  C   1.30761724272215     -0.57729983539720     -1.49260121498278
  N   1.69445341241903     -1.23385337408627     -2.38616491072202
  C   1.50048162098458     -0.09913524017343      0.86873349767229
  N   2.01796069965133     -0.37746069773381      1.88589621962759
