13
Coordinates from ORCA-job run
  C   -0.75527311505170     -0.03642756182711     -0.18635291633264
  C   0.70853438121091     -0.37597570684847     -0.54949864544269
  Cl  -1.63150897496197      0.46788946613256     -1.62925467686497
  H   0.65054941463198     -1.24055221691820     -1.22451400312737
  C   -1.40177112336743     -1.18484001753911      0.43260203740530
  N   -1.88700518206864     -2.14192308680419      0.91414110233028
  N   -0.80949223271303      1.13132089248226      0.82945255097627
  O   -1.89994397013885      1.32075449762789      1.34082207492777
  O   0.22843065873634      1.75321197049638      0.99861226301019
  C   1.45088685529578     -0.77994018556949      0.64741668700758
  N   2.02872920097632     -1.14490708229234      1.60251074484148
  C   1.37965665326897      0.70739118644802     -1.27175509304408
  N   1.93820743418132      1.52299784461179     -1.90518212568712
