13
Coordinates from ORCA-job run
  C   -0.69422722906742     -0.06073011784569     -0.10878773443659
  C   0.84250055100398     -0.22624696414330      0.03075475739290
  Cl  -1.21519682823109     -0.25369843349927     -1.76005467480520
  H   1.08067761365930     -0.08610799480077      1.09232787743636
  C   -1.38136128292382     -0.98442906216021      0.78200406922477
  N   -1.91478706560111     -1.74500472156384      1.50327012449305
  N   -0.99214566682009      1.38499220758163      0.41070146849063
  O   -1.50796295448261      2.18011856670214     -0.34825033639162
  O   -0.63622219111000      1.55340042987725      1.56854249388916
  C   1.53115202352571      0.80725460665138     -0.74579484651577
  N   2.07402835802490      1.65771398885051     -1.34727685126400
  C   1.24543078715846     -1.57089792348039     -0.38087136928101
  N   1.56711388486379     -2.65536458216944     -0.69656497823268
