13
Coordinates from ORCA-job run
  C   -0.67777314417742     -0.06780339743977     -0.17452786909513
  C   0.84211082547473     -0.20785138777876      0.10320948694779
  Cl  -1.03975800698461     -0.23385707267220     -1.87023507496293
  H   0.98090520923873     -0.07070466385317      1.18274667927916
  C   -1.42694484308755     -1.02226979075139      0.62962058782788
  N   -2.01517752413560     -1.80538605358379      1.28087968926739
  N   -1.05341846826733      1.36048803478220      0.34525835330763
  O   -0.81229932124528      1.50811261277520      1.53510364566826
  O   -1.51430280248776      2.16216258103572     -0.44148859921767
  C   1.58078122098759      0.84191156782410     -0.60251374857187
  N   2.16469150751413      1.70030847628581     -1.15171522059718
  C   1.30331078936597     -1.54327377325602     -0.27544192954478
  N   1.66887455780441     -2.62283713336793     -0.55889600030855
