13
Coordinates from ORCA-job run
  C   -0.75324656940196     -0.03854590634131     -0.28412971471860
  C   0.74108124488904     -0.39726194654648     -0.50441470891352
  Cl  -1.49087104876155      0.33039754820424     -1.83026705656395
  H   0.75117337499524     -1.13140579003018     -1.31990225413500
  C   -1.46060408111106     -1.11621467846095      0.39138559402496
  N   -2.03300402350879     -1.98990829158108      0.93301418368558
  N   -0.83634243290188      1.20622452508578      0.65778638903829
  O   -0.03738204172994      1.17158374187560      1.58134791612357
  O   -1.68260950138726      2.04363993175889      0.41605856226410
  C   1.36907987562888     -1.02150779538565      0.66222947025088
  N   1.89488433977972     -1.59050353087844      1.54496657502098
  C   1.47870753532888      0.78963770377148     -0.94491751114827
  N   2.06113332818070      1.74386448852810     -1.30415744492902
