13
Coordinates from ORCA-job run
  C   -0.66248508350369     -0.08853826415430     -0.21731988406350
  C   0.84514971523887     -0.17804893772409      0.13747159238726
  Cl  -0.92264665981364     -0.14410988280979     -1.93904939841104
  H   0.91728169337800     -0.12378648249156      1.23076694691894
  C   -1.40668478179931     -1.13354909300093      0.47043950976067
  N   -1.99705205550386     -1.98571855245807      1.02630134737055
  N   -1.13703499202991      1.27775339676995      0.38058547414393
  O   -0.96726061840360      1.34788169476484      1.58988252236045
  O   -1.59390259987552      2.11400612971350     -0.37204884069062
  C   1.56454807602197      0.96105255220508     -0.43759420513885
  N   2.13076614287224      1.89170611264553     -0.87634039375246
  C   1.39669498069535     -1.45318911142839     -0.32040893420008
  N   1.83362618272310     -2.48445956203176     -0.67368573668525
