13
Coordinates from ORCA-job run
  C   -0.75861750112894     -0.02313738395730     -0.17075460583917
  C   0.69521687287566     -0.34799380219814     -0.58391794161915
  Cl  -1.66370340545720      0.55966364152686     -1.56528659650710
  H   0.61812116600046     -1.17293919416746     -1.30521451586935
  C   -1.39687068155666     -1.20037365270533      0.40061754960076
  N   -1.87713436856820     -2.18119837807328      0.83742410614224
  N   -0.78529112144982      1.08881048952057      0.90635311672399
  O   0.25978906151284      1.69495723313610      1.08834828413545
  O   -1.86408071512027      1.25656734282221      1.44894480107739
  C   1.46091296985866     -0.82225157246045      0.57198800678281
  N   2.05635022785149     -1.24493737661544      1.49170942482026
  C   1.35600923463212      0.77175160613657     -1.25900852885406
  N   1.90129826054987      1.62008104703509     -1.86020310059408
