13
Coordinates from ORCA-job run
  C   -0.68837778443702      0.22615920184968     -0.14250910954908
  C   0.83354815663559      0.18367209972894     -0.40925315478355
  Cl  -1.48733764195910      1.14608087595538     -1.41515496470216
  H   1.17186160426176      1.22372884361547     -0.47661371660228
  C   -1.25482246481399     -1.10636889578560     -0.02329467325312
  N   -1.67258681241692     -2.20407737296152      0.04048280061570
  N   -0.90497021881540      0.99453686195453      1.18383056624319
  O   -0.16746434523508      1.95359834871832      1.35302853156191
  O   -1.80686888762117      0.59825444382205      1.90296695546584
  C   1.10500769845581     -0.50850204306277     -1.66962654372420
  N   1.32530237817330     -1.05171019676929     -2.68729982792161
  C   1.51166965591830     -0.46877313864892      0.71408269975185
  N   2.03503866185392     -0.98659902841625      1.62936043689752
