13
Coordinates from ORCA-job run
  C   -0.69244736528920     -0.05369090583077     -0.11400627974606
  C   0.84194278565516     -0.22797275911451      0.03460010613136
  Cl  -1.20085555768509     -0.21780538999354     -1.77256250270869
  H   1.07456425116034     -0.09806696052524      1.09881783732603
  C   -1.39198034328628     -0.98897208610931      0.75478825193553
  N   -1.94075526146929     -1.75605788426317      1.45751779874938
  N   -0.98975380663740      1.38344708914093      0.42700398716495
  O   -1.49342579058174      2.19435757022402     -0.32356001016930
  O   -0.64670905906720      1.52960890230386      1.59194292247701
  C   1.54196189348757      0.80720619394011     -0.72981824357904
  N   2.09824610568248      1.65277408691353     -1.32575716071597
  C   1.24071449591728     -1.57105540137112     -0.38630377213654
  N   1.55849765211338     -2.65377245531480     -0.71166293472867
