13
Coordinates from ORCA-job run
  C   -0.70818480720759      0.13909377096018     -0.15410853911714
  C   0.80983435437512      0.24809294924068     -0.42250200580425
  Cl  -1.59859301824496      0.88389318012267     -1.47943081316355
  H   1.03156251391090      1.31302505151692     -0.55513415823233
  C   -1.12566463239558     -1.23731767290001      0.05038022973798
  N   -1.42394734973480     -2.36729141767718      0.18355775748109
  N   -1.01260537405741      0.96086541008761      1.12209603325040
  O   -1.86318024511375      0.51044713720760      1.87134103736563
  O   -0.39190974290373      2.00816567110849      1.22361609182476
  C   1.16145483174961     -0.48635589631373     -1.63832934009592
  N   1.44474545941421     -1.06339078177276     -2.62122365519961
  C   1.55188404909601     -0.25452450090948      0.73702311903916
  N   2.12460396111199     -0.65370290067099      1.68171424291379
