13
Coordinates from ORCA-job run
  C   -0.73440697148088      0.04882155418700     -0.25254550077148
  C   0.71794432784516     -0.41613631126411     -0.50692944416507
  Cl  -1.42147743201907      0.70871858732851     -1.73486123182281
  H   0.64030864979740     -1.23341882901554     -1.23659431816779
  C   -1.54118915891160     -1.05929092832508      0.23858444698761
  N   -2.15743240587952     -1.98732868619025      0.61610546221605
  N   -0.77217304900937      1.16348899794854      0.82106986797231
  O   0.29979933725431      1.66845703307833      1.11895147712250
  O   -1.88294881651062      1.43645857392017      1.24321188767267
  C   1.30486665162507     -0.95508026766305      0.72273618172875
  N   1.75435318266948     -1.42780967034896      1.69929015674792
  C   1.55235311075932      0.63165384852200     -1.10010463458561
  N   2.24000257386034      1.42146609782246     -1.63091435093505
