13
Coordinates from ORCA-job run
  C   -0.68543513648462      0.23664610960578     -0.12343262822975
  C   0.82462885655039      0.16095060391770     -0.44105625900311
  Cl  -1.51285733677059      1.14052993878283     -1.38989888254046
  H   1.18136653767728      1.19188095001694     -0.54252269784847
  C   -1.27061732417473     -1.08206781279938      0.04881250888124
  N   -1.70797192649625     -2.16840020787311      0.15899842581355
  N   -0.85170606353482      1.03956384971007      1.18995213674852
  O   -1.78713729841155      0.72059772323751      1.90488716556971
  O   -0.05457728632042      1.95176002693664      1.34881387570757
  C   1.03828695515607     -0.56493525784040     -1.69411154631624
  N   1.21362374894261     -1.14345761255553     -2.70091973272404
  C   1.53116390623699     -0.48421554415535      0.66922604214812
  N   2.08023236762962     -0.99685276698370      1.57225159179336
