13
Coordinates from ORCA-job run
  C   -0.70703132572025      0.04398061220515     -0.20752580362346
  C   0.80660341643905      0.28369716834105     -0.40652645732143
  Cl  -1.57962898357691      0.52830633282189     -1.65958809090179
  H   0.92894528787935      1.34326039681417     -0.65750774970296
  C   -0.99645249569242     -1.33590261297121      0.14279849361141
  N   -1.18669993335402     -2.46822378094200      0.39815488006372
  N   -1.17601333848022      0.97223703696696      0.94003450918451
  O   -0.66787571296859      2.08320006852622      0.94742151097749
  O   -2.02770578380399      0.52547938400289      1.69024048170564
  C   1.30852537013369     -0.54701419362994     -1.50182352079401
  N   1.71201260407585     -1.20615217485222     -2.38606581309317
  C   1.51787226523392      0.00125778363675      0.84321382215017
  N   2.06644862983454     -0.22412602091972      1.85717373774387
