13
Coordinates from ORCA-job run
  C   -0.70979109557172      0.05622922701611     -0.19059840268912
  C   0.80165757055026      0.28352074256359     -0.41815594153803
  Cl  -1.60843006463121      0.58576260626549     -1.61049310771742
  H   0.93000733463199      1.34724238110632     -0.64778657153058
  C   -1.00965642873448     -1.32774568077596      0.13346151834408
  N   -1.21638672474576     -2.46197060577777      0.36701879706066
  N   -1.14151348268118      0.96225867323210      0.98936786605686
  O   -1.98101083983325      0.50727584198844      1.74820278570052
  O   -0.62090501606597      2.06719026320425      1.01063260619264
  C   1.26926356727730     -0.52742655579979     -1.54295388909847
  N   1.64270503137541     -1.17149502226001     -2.45118257481561
  C   1.53783906113704     -0.03391337220787      0.80861362714937
  N   2.10722108729156     -0.28492849855490      1.80487328688510
