13
Coordinates from ORCA-job run
  C   -0.73235443967164      0.06242756652807     -0.25599502892876
  C   0.71817096050025     -0.40515935630455     -0.51490895319540
  Cl  -1.40407546716391      0.77679523026986     -1.71950882422993
  H   0.64051089703746     -1.19908931665886     -1.27003162522088
  C   -1.55106575287302     -1.05461439034559      0.19338524843818
  N   -2.17748250524463     -1.98898127180895      0.53694728631156
  N   -0.76863237681356      1.14163948420891      0.85413501815917
  O   -1.87984859196685      1.40855227598019      1.27881456561797
  O   0.30519364117664      1.62878325688269      1.17409557837004
  C   1.29256053318456     -0.98684573832060      0.70119548303345
  N   1.73111706363834     -1.49401081375440      1.66536614421880
  C   1.56414875530254      0.65431151034091     -1.06990008695367
  N   2.26075728289383      1.45519156298233     -1.57159480562054
