13
Coordinates from ORCA-job run
  C   -0.66087223306501      0.20734553842197     -0.25293453794754
  C   0.88282367363746      0.15962937111992     -0.30308800619524
  Cl  -1.27532253231118      1.01955837760092     -1.69078864385709
  H   1.22798797733014      1.19492329492508     -0.40133688227968
  C   -1.24149349110480     -1.11664122551273     -0.11004941810897
  N   -1.67014360108575     -2.20846395006381     -0.02175484662612
  N   -1.05858510736665      1.07410191164124      0.96750810439186
  O   -0.35010686097692      2.05000795413608      1.16255970256144
  O   -2.05404936226545      0.72769137303703      1.58121358174647
  C   1.32600469094207     -0.62335190813744     -1.45713407002738
  N   1.68543979811567     -1.24350486392629     -2.38739512801404
  C   1.39858229766151     -0.39990183102810      0.94942822483297
  N   1.78973475048891     -0.84239404221387      1.96477191952334
