13
Coordinates from ORCA-job run
  C   -0.75453800508763     -0.03719181900181     -0.18452675160434
  C   0.71037545707200     -0.35718835890018     -0.56113420514358
  Cl  -1.63885211033752      0.49543618684815     -1.61237311226982
  H   0.65545654591640     -1.20413407700916     -1.25839116287082
  C   -1.39152077687863     -1.20493446963543      0.40776713639013
  N   -1.87285604804842     -2.17647923940214      0.86375414895619
  N   -0.81416802699815      1.10453794826812      0.85942182919016
  O   0.22033202972272      1.72806120824073      1.04333421626037
  O   -1.90522345619003      1.27556638072578      1.37601753886925
  C   1.45931891536886     -0.78770040584117      0.62245833553284
  N   2.04013063757243     -1.17457498402450      1.56709778591264
  C   1.37110433666737      0.75008231953601     -1.25635054940787
  N   1.91944050122060      1.58951931019561     -1.86707520981515
