13
Coordinates from ORCA-job run
  C   -0.68471552899687     -0.00909827492028     -0.16030703622501
  C   0.83309775953758     -0.26133571880597      0.04035601880307
  Cl  -1.09528478862029      0.13880125298173     -1.84702068642017
  H   1.00264931743126     -0.33024719662025      1.12186397596292
  C   -1.45928373648062     -1.05619210758793      0.49000844578829
  N   -2.06985424109753     -1.91278334099045      1.01623495472708
  N   -0.97779227205298      1.32108151763048      0.60994738855812
  O   -1.41602926491236      2.26785763617282     -0.01140520176845
  O   -0.70099903420081      1.24850705841613      1.79922738095477
  C   1.60356006816428      0.86761559990339     -0.48640484402932
  N   2.21265084226275      1.78651971903163     -0.89160551713807
  C   1.22258168177327     -1.52165843201759     -0.59178887159391
  N   1.53041919719233     -2.54006771319369     -1.08910600761931
