13
Coordinates from ORCA-job run
  C   -0.75089036010016     -0.04409740240186     -0.20090600317501
  C   0.72326577721526     -0.37292899792764     -0.53005828443289
  Cl  -1.60062103393498      0.43692265580272     -1.66750379086691
  H   0.68693801839987     -1.24332476140818     -1.19913920387783
  C   -1.39913137294708     -1.19306391672344      0.41550560791100
  N   -1.88480502558657     -2.15101165639651      0.89500131796407
  N   -0.83844813364215      1.13243459940225      0.80123993459082
  O   -1.94193420611657      1.31723984993433      1.28578473355305
  O   0.18952015596207      1.76630357066526      0.98702633846748
  C   1.44399032526931     -0.76283186404411      0.68480578737101
  N   2.00553470507676     -1.12216838472516      1.65158268232093
  C   1.40018902923396      0.71044108987684     -1.24679940263586
  N   1.96539212117027      1.52508521794552     -1.87553971718986
