13
Coordinates from ORCA-job run
  C   -0.69398983952688      0.18805838803096     -0.16602090129215
  C   0.83131937565268      0.18395305712349     -0.41525042321012
  Cl  -1.51306247432019      0.97147807732308     -1.51517451266582
  H   1.13169629822909      1.22755242455634     -0.56080317297548
  C   -1.21070570270749     -1.15182885599682      0.05448984679937
  N   -1.59062650642421     -2.25525544778096      0.20159166096979
  N   -0.95563888679120      1.05062498147838      1.09252270837610
  O   -0.25812096507409      2.04882170076345      1.19028973167820
  O   -1.84997723255418      0.67781394470700      1.83339628034689
  C   1.14365960925753     -0.59466891187907     -1.61434441333334
  N   1.39677345067905     -1.21159439891386     -2.58108979464392
  C   1.51957684043213     -0.35358464014015      0.76156271604672
  N   2.05009603314774     -0.78037031927184      1.71883027390376
