13
Coordinates from ORCA-job run
  C   -0.68701713231251     -0.06939235510874     -0.13257511180110
  C   0.84687606155882     -0.20792307605105      0.05579226937097
  Cl  -1.14836036411348     -0.24278522397821     -1.80357130327415
  H   1.04829901152756     -0.06985525297042      1.12520398406578
  C   -1.38753103143797     -1.02091375245684      0.71756210024894
  N   -1.93765903502762     -1.80160471530298      1.40411059677913
  N   -1.03139104508632      1.36076824894336      0.40172377397971
  O   -1.53526103317466      2.16001161445571     -0.36102747962147
  O   -0.72034240089260      1.51403312337203      1.57462573446001
  C   1.54121168045334      0.84128525931791     -0.69408585363067
  N   2.08904668419023      1.69917288531200     -1.28011366991141
  C   1.28604114932080     -1.54306880342758     -0.34937919775782
  N   1.63608745499442     -2.62072795210520     -0.65826584290792
