13
Coordinates from ORCA-job run
  C   -0.78425310662209     -0.03009805821738     -0.24933846589924
  C   0.70106955335963     -0.39929870000206     -0.51953489096024
  Cl  -1.55138386910985      0.44849837775465     -1.74941336387459
  H   0.68181162059353     -1.23382750461691     -1.23233526298348
  C   -1.47903310717889     -1.15542814929631      0.35620209119244
  N   -2.02412229340459     -2.10227730949682      0.79188669072131
  N   -0.78492783769061      1.15420043274971      0.75655215889023
  O   -0.83727591968813      0.82342507147965      1.93265077650481
  O   -0.66835390656685      2.27064776419940      0.28435386976298
  C   1.36188814307998     -0.84636084650643      0.71006457417574
  N   1.90313722470653     -1.22232128924548      1.68263521512958
  C   1.43060111150870      0.71539234704187     -1.13028340217218
  N   2.04984238701263      1.57744786415610     -1.63343999048735
