13
Coordinates from ORCA-job run
  C   -0.69660461312044     -0.03276527073242     -0.09458222764669
  C   0.83857994208123     -0.24326582432257     -0.01671694108786
  Cl  -1.26387185766271     -0.03532583511099     -1.74177572340983
  H   1.10887830213803     -0.21364155771619      1.04603852227027
  C   -1.38350465218280     -1.03250792463006      0.71013978779723
  N   -1.92250947114348     -1.85228970971208      1.35885876929980
  N   -0.94837151326820      1.35387967317166      0.58599417877751
  O   -0.56205537610076      1.38760570165422      1.74596931268779
  O   -1.46331932110597      2.23736145908807     -0.06878189518955
  C   1.53074506501914      0.84634380001793     -0.70903429781766
  N   2.07924339486138      1.73496988613323     -1.24660685380348
  C   1.19787819819296     -1.54885230798420     -0.57012831720191
  N   1.48391190229161     -2.60351208985659     -1.00037431467559
