13
Coordinates from ORCA-job run
  C   -0.69320806091914     -0.00129105345094     -0.12845405123588
  C   0.83145472017181     -0.26623157771680     -0.01604079256141
  Cl  -1.18713115627673      0.21951382313164     -1.78465976436355
  H   1.05446210020695     -0.38587358879483      1.05137045301387
  C   -1.43932442584454     -1.07208393479414      0.51589016695372
  N   -2.02353035315658     -1.94979581314874      1.03724756839852
  N   -0.93903904194327      1.29671544320870      0.71093828591728
  O   -1.40561782229511      2.26922042185776      0.15350597123487
  O   -0.59881710757100      1.17412697673507      1.87932912781410
  C   1.57923847922013      0.88598856826860     -0.52421163236668
  N   2.16957932219312      1.82767524356027     -0.90420891676196
  C   1.18434024451354     -1.49773605912320     -0.72173265472124
  N   1.46659310170082     -2.49822844973339     -1.26797376132165
