13
Coordinates from ORCA-job run
  C   -0.69143798883522      0.20535704053280     -0.14077456289964
  C   0.82104813628871      0.14776447761846     -0.45051355082687
  Cl  -1.53954591249375      0.98451292494871     -1.47494131257761
  H   1.14783294697480      1.17755904716618     -0.63275437719798
  C   -1.24028038895377     -1.11196658929392      0.13195562648501
  N   -1.64737102819796     -2.19918501054512      0.32147567646250
  N   -0.88518922567623      1.10327105908798      1.10550749602250
  O   -0.10947607609692      2.04246085061634      1.19887256750685
  O   -1.81739501250223      0.81731955561693      1.83825029318706
  C   1.05796812762557     -0.66551893913188     -1.64414399689393
  N   1.24969313500140     -1.30840341555038     -2.60807679030807
  C   1.54423972866688     -0.38558975938784      0.70709356264484
  N   2.10891355819872     -0.80658124167827      1.64704936839534
