11

C	-0.366102	-0.048005	-1.469742
C	0.0	0.0	0.0
Br	-2.300671	-0.28651	-1.828086
H	1.095027	0.0	0.0
H	0.114963	-0.909034	-1.937931
H	-0.3527	0.920918	0.469946
C	0.045467	1.166711	-2.163987
N	0.333916	2.145248	-2.745261
C	-0.488122	-1.157766	0.723578
N	-0.848972	-2.104911	1.318955
H	2.668516	0.0	0.0
