11

C	-0.53504	-0.0217	-1.430474
C	0.0	0.0	0.0
Br	0.022957	1.606843	-2.382441
H	1.092619	0.0	0.0
H	-1.624384	0.014613	-1.461116
H	-0.332429	0.922933	0.486002
C	-0.092732	-1.185388	-2.189705
N	0.221364	-2.11308	-2.840134
C	-0.524612	-1.139271	0.733428
N	-0.941324	-2.064706	1.331223
H	2.699572	0.0	0.0
