11

C	-0.394396	0.028894	-1.475728
C	0.0	0.0	0.0
Br	0.049547	-1.687467	-2.309798
H	1.092672	0.0	0.0
H	0.233964	0.765316	-1.986027
H	-0.380988	-0.897902	0.491503
C	-1.804476	0.294443	-1.733277
N	-2.943449	0.511977	-1.931023
C	-0.484743	1.190798	0.676849
N	-0.87554	2.15689	1.220745
H	2.692485	0.0	0.0
