11

C	-0.365844	-0.046684	-1.469875
C	0.0	0.0	0.0
Br	-2.299759	-0.288717	-1.829127
H	1.094979	0.0	0.0
H	0.117247	-0.905981	-1.939149
H	-0.352963	0.920316	0.470904
C	0.043382	1.169768	-2.162393
N	0.331369	2.148853	-2.742945
C	-0.48778	-1.158668	0.722364
N	-0.848465	-2.10656	1.316665
H	2.668587	0.0	0.0
