17

C	0.0	0.0	0.0
C	-0.256294	0.031975	-1.576277
Br	1.945004	0.0	0.0
H	0.520888	-0.625701	-1.970507
C	-0.505174	1.153132	0.706836
N	-0.597438	2.209615	1.233766
N	-0.407109	-1.260822	0.667932
O	-0.366569	-2.281137	-0.035939
O	-0.500828	-1.260261	1.899398
N	-0.014041	1.369443	-2.104678
H	0.900618	1.687525	-1.802992
H	-0.696332	1.999668	-1.691394
C	-1.572325	-0.469692	-2.160235
H	-1.875328	-1.411177	-1.705916
H	-2.375735	0.257288	-2.041989
H	-1.394591	-0.622904	-3.233933
H	-1.886919	0.0	0.0
