17

C	0.0	0.0	0.0
C	-0.349737	-0.152559	-1.559888
Br	1.934195	0.0	0.0
H	-1.363278	-0.545493	-1.552284
C	-0.445024	1.227788	0.627157
N	-0.56611	2.301004	1.106628
N	-0.514548	-1.163462	0.769532
O	-0.554156	-1.06195	2.005413
O	-0.514559	-2.254271	0.160461
N	0.442843	-1.081134	-2.34102
H	0.430414	-1.970164	-1.853605
H	1.406521	-0.774567	-2.394126
C	-0.350342	1.21698	-2.215424
H	0.623186	1.707827	-2.11784
H	-1.108239	1.860003	-1.7652
H	-0.569483	1.089325	-3.277604
H	-2.015494	0.0	0.0
