17

C	0.0	0.0	0.0
C	-0.451994	0.030581	-1.512104
Br	1.945749	0.0	0.0
H	-0.376999	1.087327	-1.793497
C	-0.470566	1.178053	0.693529
N	-0.772133	2.241621	1.116203
N	-0.500798	-1.185694	0.678826
O	-0.760391	-2.208346	-0.045592
O	-0.261958	-1.251539	1.918708
N	-1.892978	-0.295056	-1.543353
H	-2.386958	0.128586	-2.319338
H	-2.016862	-1.300025	-1.477945
C	0.349349	-0.821952	-2.477831
H	-0.174355	-0.815244	-3.43991
H	1.351737	-0.421434	-2.606566
H	0.405067	-1.840801	-2.092525
H	-1.778528	0.0	0.0
