17

C	0.0	0.0	0.0
C	-0.355943	0.011685	-1.537671
Br	1.938551	0.0	0.0
H	-1.39086	-0.332365	-1.553865
C	-0.441923	1.179519	0.72548
N	-0.557245	2.209453	1.290743
N	-0.581359	-1.205678	0.658576
O	-0.590262	-1.215925	1.902825
O	-0.596369	-2.243853	-0.044693
N	0.517733	-0.862074	-2.335777
H	0.436889	-1.787099	-1.921873
H	0.077582	-0.915595	-3.250283
C	-0.292153	1.422264	-2.098563
H	0.709077	1.841824	-1.978321
H	-0.521753	1.394693	-3.169371
H	-1.020161	2.070102	-1.606951
H	-2.079398	0.0	0.0
