15
Coordinates from ORCA-job run
  C   -0.73204654850292      0.33597871944105     -0.26187241966917
  C   0.50805488821606     -0.55101945546263     -0.09051794186201
  Br  -1.18034432097737      0.35534171088077     -2.21561161027325
  H   0.26234248914330     -1.55486680614871     -0.46061405237780
  N   -1.76948310043968     -0.22406654070696      0.54190739811081
  H   -2.57580453954388      0.38762046345742      0.58740367528113
  H   -2.05712850665027     -1.12829560455950      0.18341582299318
  C   -0.52191278342920      1.72418271232550      0.14477274084220
  N   -0.48311536817237      2.83878997297329      0.51490402478264
  N   0.97049353768719     -0.45429262640617      1.26019033596728
  H   0.18048127135231     -0.48746900080972      1.89246312435358
  H   1.61308163970177     -1.20565751072872      1.47852343538222
  N   1.64027525474697     -0.10846011539799     -0.98630139113474
  O   1.87960864285319      1.08906848680917     -1.05727831821656
  O   2.26449744401491     -1.01685440566680     -1.53138482417950
