15
Coordinates from ORCA-job run
  C   -0.70955944218249      0.47638454274799     -0.16314838695971
  C   0.53016955634492     -0.26596476888581      0.37781562353256
  Br  -0.18549743645728      1.96315431405699     -1.34027888329362
  H   0.17619057747734     -0.99494131604089      1.11226006561976
  N   -1.52756872110000     -0.41148632505555     -0.93544801972258
  H   -2.39467221843974      0.03578596893341     -1.20576275697561
  H   -1.72306468647415     -1.26763190580380     -0.42739416299829
  C   -1.37752329347799      1.09216113856162      0.99437711157713
  N   -1.99036490924210      1.50940472554681      1.90753061945586
  N   1.46293729719600      0.61296467714483      0.96285000382358
  H   2.15910123181684      0.11605666613558      1.50152269008930
  H   1.91435206278656      1.18947508002252      0.26405729890490
  N   1.08613880362781     -1.13911814379530     -0.74978645012647
  O   1.93096363361137     -0.63190613328479     -1.47936722850719
  O   0.64839754451291     -2.28433852028361     -0.81922752441962
