15
Coordinates from ORCA-job run
  C   -0.65757000090292      0.55682535809718     -0.12033601512661
  C   0.48139683496187     -0.36819919441382      0.35680634368204
  Br  0.05893566311222      2.15919637298334     -1.00936476015702
  H   0.02319471838149     -1.17034537001052      0.94225454057245
  N   -1.48970744629330     -0.12154828198455     -1.06958050384678
  H   -1.78541949857338     -1.02669903640700     -0.71949276309189
  H   -2.29884329762473      0.43791319488095     -1.30888791794201
  C   -1.35031821929983      1.03793451383943      1.08538726706729
  N   -1.98891527635894      1.35773697051075      2.01996910930630
  N   1.43919545565909      0.32141933488168      1.12617177125867
  H   1.98039179483686      0.95859457073458      0.55558189265661
  H   2.05649176897548     -0.31377200429763      1.61320323344822
  N   1.04076598694600     -1.09752748706981     -0.86693830575264
  O   0.51917958597181     -2.17361528596065     -1.14618195769520
  O   1.96922193020828     -0.55791365578393     -1.45859193437945
