15
Coordinates from ORCA-job run
  C   -0.85696480167573      0.14563519228107     -0.44284763928980
  C   0.43621873149894     -0.62269943118586     -0.07904129739694
  Br  -1.45497219061974     -0.16482591028099     -2.28189012061168
  H   0.31981114346157     -1.65367254947190     -0.42087352074860
  N   -1.89088769950210     -0.38342779264293      0.40452272413216
  H   -2.76378697345919      0.10893391234911      0.26020470268915
  H   -1.59204999288806     -0.33266919417940      1.37185417047586
  C   -0.60814471980442      1.58953611988617     -0.28787980817389
  N   -0.40582582864383      2.72613052657280     -0.05961399456510
  N   0.62693104162038     -0.57048093562883      1.33010223398636
  H   1.25269673505153     -1.30213082873376      1.63773522991269
  H   1.03067805747733      0.31821134067798      1.60478368521332
  N   1.66547744269725     -0.07109545309000     -0.83579220644597
  O   2.70783162492561     -0.01534262873013     -0.18942566116213
  O   1.53298742986046      0.22889763217667     -2.01383849801542
