12

C	0.0	0.0	0.0
C	-0.321027	-0.04459	-1.504905
Cl	1.788149	0.0	0.0
H	-1.412479	-0.096271	-1.543556
H	0.181202	-0.918407	-1.920737
C	-0.531262	1.177916	0.699927
N	-0.686134	2.076672	1.459527
C	-0.448921	-1.21995	0.682588
N	-0.658117	-2.16582	1.344571
C	0.160455	1.143181	-2.193106
N	0.467383	2.102385	-2.801789
H	-2.264368	0.0	0.0
