12

C	0.0	0.0	0.0
C	-0.29522	0.004419	-1.535585
Cl	1.788229	0.0	0.0
H	0.177291	-0.888184	-1.955288
H	-1.379803	-0.050723	-1.647283
C	-0.497375	1.224353	0.639312
N	-0.533752	2.280163	1.169238
C	-0.68623	-1.167756	0.583003
N	-0.674165	-2.249126	1.079835
C	0.212885	1.187288	-2.217876
N	0.581268	2.126564	-2.819067
H	-2.149997	0.0	0.0
