15

C	0.0	0.0	0.0
C	-0.521348	-0.033369	-1.423661
Br	1.942609	0.0	0.0
H	-0.118934	0.780628	-2.014369
H	-1.627182	0.008997	-1.294711
N	-0.265776	1.519115	0.48717
O	-0.237908	2.42697	-0.335485
O	-0.450565	1.652542	1.689591
N	-0.647551	-0.900541	0.793315
H	-1.714215	-0.684409	0.577365
H	-0.452069	-0.717772	1.772474
N	-0.160922	-1.287848	-2.116637
O	-0.728034	-2.325953	-1.784178
O	0.673099	-1.204236	-3.025551
H	-2.883766	0.0	0.0
