15

C	0.0	0.0	0.0
C	-0.529036	-0.004702	-1.426985
Br	1.950548	0.0	0.0
H	-1.646441	-0.02294	-1.240482
H	-0.205876	0.850838	-2.007448
N	-0.335402	1.417907	0.567007
O	-0.40697	1.52234	1.779218
O	-0.431385	2.336738	-0.239847
N	-0.548792	-0.930885	0.890451
H	-1.584893	-0.729717	0.7924
H	-0.395998	-1.851591	0.490618
N	-0.119832	-1.202116	-2.1732
O	0.301234	-1.031841	-3.321319
O	-0.250783	-2.311882	-1.647804
H	-2.881244	0.0	0.0
