15

C	0.0	0.0	0.0
C	-0.547699	0.126132	-1.413388
Br	1.955828	0.0	0.0
H	-0.215436	1.020547	-1.926485
H	-1.665604	0.115659	-1.199778
N	-0.336337	1.358634	0.689699
O	-0.515866	1.344152	1.894968
O	-0.336252	2.356097	-0.02495
N	-0.540209	-1.011572	0.805497
H	-0.402742	-1.887192	0.312407
H	-1.573372	-0.79986	0.749891
N	-0.202114	-1.010208	-2.272049
O	0.148553	-0.752893	-3.429727
O	-0.335341	-2.160622	-1.837998
H	-2.897663	0.0	0.0
