16
Coordinates from ORCA-job run
  C   -0.69634290420243      0.28583140590709      0.41573270712836
  C   0.79314913710224     -0.07352908693237      0.34077188947995
  Br  -1.24884581226401      0.72639761055345      2.21757512496066
  H   1.36532587220206      0.73549456343028      0.80113588127862
  N   -0.88824414824687      1.61865935152255     -0.37238024248467
  O   0.03042098049377      2.43179289339679     -0.34511705060136
  O   -1.95549565581717      1.75748387682489     -0.95633380259596
  N   -1.47881675584031     -0.75633138149115     -0.10851222546377
  H   -2.46353293385392     -0.52557173958552     -0.10438710539511
  H   -1.15919250873527     -0.93328895532874     -1.05634076523659
  N   1.07593609407878     -0.21503526526400     -1.10012431569983
  H   1.81333235837173     -0.89600678671070     -1.22710331682233
  H   1.39141502085286      0.66820814441153     -1.48527094911924
  N   0.99690167529374     -1.27036865861420      1.10231479659548
  H   0.44657721857682     -2.03346059166249      0.73063986820244
  H   1.97541236198797     -1.51927538045741      1.14739950577335
