16
Coordinates from ORCA-job run
  C   -0.61135257439983      0.47293078400770      0.30035185192785
  C   0.75990693828772     -0.22815066341759      0.33707692866735
  Br  -0.51996053824991      2.24383464357443      1.18695342551979
  H   0.89755032317791     -0.49197165879259      1.39905475682440
  N   -1.01427179008348      0.78232917086674     -1.14078165088988
  O   -0.15514356300728      1.25843618510119     -1.86635152120886
  O   -2.17863624784601      0.56008771654147     -1.45247213671187
  N   -1.59014126747715     -0.38675408630721      0.84499316541440
  H   -2.52446757403853     -0.07021985404897      0.61702842629319
  H   -1.47923040263862     -0.44865836225639      1.84915863527584
  N   1.86180690470394      0.61705467473209     -0.01800347201573
  H   2.73324419295561      0.19626105971263      0.27439047549997
  H   1.87122665239705      0.77059170948640     -1.01746836720048
  N   0.60685186247156     -1.38398263164589     -0.54250514276537
  H   1.47497826158190     -1.90386164975812     -0.57023123988037
  H   -0.13336117783488     -1.98692703779591     -0.20319413475023
