16
Coordinates from ORCA-job run
  C   -0.46080041739724      0.60030961218816      0.20448831853617
  C   0.87594373985679     -0.07127173592337     -0.17649808789378
  Br  -0.16843871659937      2.41460782394929      0.84418542076402
  H   1.39579606058315      0.58167589627032     -0.88220641718172
  N   -1.29460710339577      0.79313793849356     -1.09565427226374
  O   -0.67651927635181      1.01221480723745     -2.13307928368465
  O   -2.51171289716425      0.71388655878853     -0.98372893956924
  N   -1.13673735803875     -0.16147256948310      1.16787937041440
  H   -2.05386846347678      0.21194972933411      1.37418512673224
  H   -1.20454270029889     -1.11159232914829      0.81301421282690
  N   0.50463898640747     -1.36777654545798     -0.73807485117949
  H   0.33715821374372     -1.28611500752290     -1.73377426760650
  H   1.28982177008417     -1.99044852071677     -0.59273288610140
  N   1.72961267388125     -0.30116126147889      0.96306006335701
  H   2.21230801694847      0.55057068848133      1.21576774768069
  H   1.16294747121782     -0.58751508501145      1.75416874516910
