16
Coordinates from ORCA-job run
  C   -0.53593941906739      0.62689749240124      0.24302369729726
  C   0.85498480990944      0.08513353603301     -0.11086217700246
  Br  -0.45947327820628      2.43548301648906      0.92817064400986
  H   1.34147361081930      0.79883618071569     -0.78003748538844
  N   -1.32934277137369      0.76463836477323     -1.09305287811419
  O   -2.53649556305684      0.56867242189827     -1.03263750814820
  O   -0.69687400144007      1.06652874987790     -2.10036956759395
  N   -1.17760393847371     -0.22822465914654      1.15405787992587
  H   -2.11231398724017      0.08938278634988      1.37387827808685
  H   -1.20554190657762     -1.15466194670689      0.73842540956929
  N   0.60039818042091     -1.21429820398381     -0.76119088323989
  H   0.52226974530588     -1.09610729257259     -1.76514661414808
  H   1.37808800729080     -1.83451394282901     -0.57631882484443
  N   1.61640316460567     -0.00035610474942      1.10033257356826
  H   2.56855553032285     -0.28740443965868      0.91997886662408
  H   1.17141181676091     -0.62100595889135      1.76374858939817
