16
Coordinates from ORCA-job run
  C   -0.62994364101457      0.49325005804260      0.08497512045662
  C   0.81089192327377      0.02576537962498     -0.14272396846939
  Br  -0.56240846966342      2.36513147574980      0.89038028665257
  H   1.32584308101273      0.79399615940056     -0.72571402269913
  N   -1.31187699789279      0.73300984273247     -1.25170835801297
  O   -0.64658584410841      1.27777217201606     -2.11894725582347
  O   -2.48368865201436      0.38612706840297     -1.33838512496501
  N   -1.33695295701766     -0.43425326899920      0.82487876025552
  H   -2.31448876600053     -0.21449498272840      0.94807990648547
  H   -0.84822639171346     -0.64546029434092      1.68539041061544
  N   0.72453976443310     -1.16309517770040     -0.94939525645666
  H   0.39769229506301     -1.94429417007355     -0.39569442543087
  H   1.60967264491302     -1.38226491905600     -1.38522100372635
  N   1.39233004753156     -0.21633651899219      1.18087113182826
  H   1.61925761725157      0.66443981078502      1.63036301602238
  H   2.25294434594644     -0.73729263486379      1.06385078326761
