16
Coordinates from ORCA-job run
  C   -0.62336683337447      0.32744042551413      0.33470616013003
  C   0.65545281667902     -0.35611183339144     -0.17501979659035
  Br  -0.30100402044912      1.38078260450554      1.91404440921078
  H   0.32557495272327     -0.90827209408375     -1.06893809673911
  N   -1.05436204356015      1.27416602975275     -0.82423362849736
  O   -0.95504376626189      2.48302706950952     -0.72724349624933
  O   -1.47009593228547      0.65331913766190     -1.80272567948980
  N   -1.62459554885972     -0.64595787071966      0.61220153444356
  H   -2.42781902259428     -0.23316338180011      1.07054993357497
  H   -1.91675104372829     -1.07403525950934     -0.26052237490338
  N   1.17328800807943     -1.20588624472479      0.88328491677502
  H   0.41880487310096     -1.75747928682142      1.27743199951518
  H   1.86593249271986     -1.83606904356628      0.49653032459840
  N   1.58738101481155      0.64526708608348     -0.62607910847381
  H   2.09415654718035      1.00493055298124      0.17509542653440
  H   2.25244750581896      0.24804210860821     -1.27608252383919
