16
Coordinates from ORCA-job run
  C   -0.72438450102269      0.35087621206404      0.18611928212926
  C   0.76560749619053      0.01196794576366      0.33472852581929
  Br  -1.44593072275419      0.83165558457629      1.99627590297154
  H   1.23934200882024      0.83142226123109      0.87851513671298
  N   -0.86852703712690      1.63000395296431     -0.62058671814063
  O   -0.14651208444403      2.55997569096717     -0.29567841484439
  O   -1.70445524222561      1.63226128688471     -1.51717290923190
  N   -1.39287566708679     -0.69527063885008     -0.44818217597270
  H   -2.33825916792704     -0.45674956347337     -0.71416330571721
  H   -1.34846289240365     -1.52013068513265      0.13703833411373
  N   1.29244832754802     -0.01615047131790     -1.00584372363767
  H   2.29972392471638     -0.10354467543288     -1.00790598583853
  H   0.86714030325805     -0.76501292522463     -1.53822556411961
  N   0.84423966203957     -1.25339123607736      1.07281892929770
  H   1.40900763657220     -1.91022764509931      0.55220048839497
  H   1.25189795584588     -1.12768509384309      1.98906219806316
