16
Coordinates from ORCA-job run
  C   -0.68471967104837      0.37106064658164      0.22957374088594
  C   0.71089206426241     -0.29745495636451      0.30054889958840
  Br  -0.62259728340185      2.25307425529773      1.01020435023319
  H   0.71834959305960     -0.74669922757761      1.30786376123291
  N   -1.13165069121796      0.62010510170933     -1.20621511537756
  O   -0.26610860946404      0.86744544028842     -2.03101367194646
  O   -2.33998098460056      0.58392568492475     -1.41146150724656
  N   -1.64473586829937     -0.43031963423487      0.83692831263969
  H   -1.48390749672203     -0.53887852088923      1.82797691446397
  H   -2.58577316716582     -0.11539195154984      0.64247884611233
  N   1.81945241382850      0.60369051165075      0.06303715925179
  H   1.81312900462986      1.38632436827488      0.70357838957149
  H   2.67969475173318      0.08562292363995      0.19622992495253
  N   0.69941349259288     -1.38078050166808     -0.65732845719890
  H   1.14367680586177     -1.06500148198916     -1.51084746644869
  H   1.17386564595178     -2.19672265809415     -0.29955408071400
