16
Coordinates from ORCA-job run
  C   -0.67840808571405      0.34773579493283      0.28396791162886
  C   0.54993285420220     -0.39418342763843     -0.26157376493337
  Br  -0.12140139924601      1.37317290414482      1.93799675353645
  H   0.21020140221817     -0.80004983914464     -1.21944846164800
  N   -1.04877742396417      1.40702455367352     -0.79272366171954
  O   -1.45840312059898      0.89965617194507     -1.83218126875407
  O   -0.90969125295403      2.59622085800750     -0.57191330377552
  N   -1.71734893252831     -0.50678830659920      0.51974303234026
  H   -1.52037090796450     -1.49157798841805      0.48552931153894
  H   -2.66826617853798     -0.18858161048648      0.51810757031567
  N   0.80097530540577     -1.52844836187882      0.61436173985630
  H   1.12579813667500     -1.20242364756706      1.51848386334264
  H   1.51516704137513     -2.12329487318329      0.21245019301542
  N   1.59363782511057      0.55756201181167     -0.56005627233494
  H   2.30657097201714      0.13374441994884     -1.13901525206889
  H   2.01938376450405      0.91923134045171      0.28427160965979
