16
Coordinates from ORCA-job run
  C   -0.58871826996450      0.45851601043778      0.07674477276774
  C   0.88970260148771      0.03679958958310     -0.04859044257264
  Br  -0.62551223432196      2.34040453085364      0.85668111147534
  H   1.42512291291803      0.83692663799414     -0.56663179389597
  N   -1.22230389005201      0.67177674226594     -1.28650413254153
  O   -2.43514208614816      0.51819759443271     -1.35882966223289
  O   -0.47710915531009      0.99863417371207     -2.20412015959433
  N   -1.31873865027343     -0.48564009771354      0.77362416191617
  H   -0.84253333679073     -0.72178992959229      1.63616894960345
  H   -2.29677505086330     -0.26167808803967      0.88679572813577
  N   1.06044668179928     -1.18113359841222     -0.80337100586221
  H   0.94149100975296     -1.00446218208070     -1.79168617591960
  H   0.38246684311091     -1.87158558354419     -0.50242144520649
  N   1.35003535494921     -0.22220427401749      1.30951967672062
  H   2.20322703016240     -0.76239924788240      1.23461528470575
  H   1.55334023954368      0.64763772200313      1.78700513250076
