16
Coordinates from ORCA-job run
  C   -0.59748513524984      0.38935958318764      0.11310717351651
  C   0.65028505794412     -0.48809257911379     -0.18619797791715
  Br  -0.11712734731587      1.85900112271491      1.41002751522890
  H   0.39797400570702     -0.98248640615950     -1.13226555115341
  N   -1.04862488477076      1.15588626553776     -1.12281262320792
  O   -0.22646906070231      1.31994883618901     -2.01946225124495
  O   -2.20506750710203      1.55737895142811     -1.12901285785041
  N   -1.66817533310676     -0.40283012095270      0.52132112844144
  H   -2.52040533172648      0.12930225646870      0.64169544175022
  H   -1.40766116866916     -0.89995396160375      1.36456184295457
  N   0.75206856992674     -1.43391702420949      0.92120813816595
  H   0.36044866222366     -2.32701070732634      0.65010771460489
  H   1.73748581688991     -1.57879558189787      1.10241359428682
  N   1.91356869482202      0.17391743793753     -0.36586382785849
  H   1.87996256298737      0.75076259538076     -1.19549270518029
  H   2.10122239814236      0.77752933241899      0.42666524546333
