16
Coordinates from ORCA-job run
  C   -0.68747177927692      0.36560248900453      0.25195660086497
  C   0.57127515593251     -0.46947987848858     -0.12287354599993
  Br  -0.31275204428041      1.40803893072003      1.86037858288573
  H   0.26307827564651     -1.00670610860175     -1.02795693596219
  N   -0.90792177260783      1.31446023525760     -0.92559184959123
  O   -0.48270254600602      2.45872795835496     -0.87977346421636
  O   -1.43136165703945      0.78019810968977     -1.90325139996712
  N   -1.88375893045974     -0.37874712998430      0.43833563672986
  H   -2.22941143030873     -0.67222908869796     -0.46893120169807
  H   -1.64281790311136     -1.19752416154797      0.98723510532158
  N   0.74426559097923     -1.45069986455583      0.92830231972472
  H   1.13931948477469     -0.99941919646992      1.74671182009137
  H   1.42210887226846     -2.13274352377134      0.60848200731024
  N   1.76947421998738      0.27109382123691     -0.44401025959537
  H   1.68877050662184      0.75896781242431     -1.32761246074499
  H   1.97890595687986      0.95045959542956      0.27859904484677
