16
Coordinates from ORCA-job run
  C   -0.74021942721376      0.39901044698720      0.34029585816092
  C   0.68789560502689     -0.18653604019955      0.43279272109252
  Br  -0.89950277936680      1.85677796197308      1.65202442566505
  H   0.86549565464574     -0.28401690433739      1.50712845350484
  N   -0.94031410985154      1.04595406155558     -1.05509061819646
  O   -1.72612333610280      1.96730859885581     -1.18751456510582
  O   -0.35593413287906      0.46252859001821     -1.96875556546481
  N   -1.72853170223600     -0.58042642669914      0.46606822931440
  H   -1.35197416765243     -1.47527311270443      0.74397353157991
  H   -2.57129930465442     -0.29352594522104      0.93623635837325
  N   1.64074108281629      0.78229090297927     -0.06763853744975
  H   1.72796018608618      0.71210031456735     -1.07278676831613
  H   2.54721880475653      0.64163272585672      0.35641395071284
  N   0.68801375877316     -1.54226384850879     -0.10211583027630
  H   1.56397345420189     -1.99479972835544      0.12782757667325
  H   0.58960041365016     -1.51076159676744     -1.10985922026776
