16
Coordinates from ORCA-job run
  C   -0.66604583647660      0.36297125409633      0.19059271349223
  C   0.64605569481175     -0.36001024621621     -0.20657108001191
  Br  -0.42814402922005      1.30540930827737      1.86892665699963
  H   0.39317054321960     -0.85727594449316     -1.15028406333068
  N   -0.95534325953330      1.35276997087108     -0.94015663154683
  O   -1.26376059413827      0.78299301331113     -1.98524337876111
  O   -0.85252612090746      2.55349401323937     -0.76968650124899
  N   -1.84004417797942     -0.44786339473229      0.30170977024858
  H   -1.78449711045663     -1.05718001907641      1.10591913635722
  H   -1.96878670750942     -0.98297705634923     -0.54951230219166
  N   1.07477650419292     -1.39329163502347      0.71469127672234
  H   0.42529109947180     -2.16959012670437      0.74288746169937
  H   1.18931019729797     -1.02078468339137      1.65027785278828
  N   1.65028683400716      0.63220883871626     -0.49181135129991
  H   2.48068614802119      0.16324814199418     -0.83250996511254
  H   1.90057081519876      1.13587856548075      0.35177040519600
