16
Coordinates from ORCA-job run
  C   -0.62658615128825      0.25718408913820      0.25827419495377
  C   0.68185238453801     -0.40612103750282     -0.23213133488237
  Br  -0.38098866704288      1.13803475552740      1.96325705524901
  H   0.39275372430586     -0.89343440264944     -1.17181913209355
  N   -0.97807554660612      1.32568411217404     -0.81358098262698
  O   -0.83152829605964      2.51534236834956     -0.59732661954492
  O   -1.36797974540348      0.81569103865167     -1.86335311908705
  N   -1.64922923606519     -0.72089971909107      0.38499831425505
  H   -2.48251622844705     -0.33768779215254      0.81488744202663
  H   -1.88114753074892     -1.07253964145675     -0.53843804407913
  N   1.19005630490236     -1.43480563536011      0.64950208969004
  H   1.47116073470606     -1.01789880967548      1.53046854684817
  H   0.45712885287065     -2.10701288534777      0.85008230855502
  N   1.63151149931181      0.62600724643412     -0.55565609771598
  H   2.45193006715600      0.19484538963749     -0.96317306439338
  H   1.92065783387079      1.11761092332353      0.28300844284566
