16
Coordinates from ORCA-job run
  C   -0.62205609342046      0.48181345905123      0.46441671137807
  C   0.70700152612147     -0.30365131380259      0.36178120137430
  Br  -0.39514295014429      2.04750110531478      1.60622247236926
  H   0.99393147917258     -0.48533402363551      1.40660800355055
  N   -0.92899385044010      1.00446366940538     -0.98026246281464
  O   -0.59285716745346      2.12679168494852     -1.31965230420151
  O   -1.46083722365751      0.15724651928001     -1.69534718542745
  N   -1.62213723400241     -0.34454511480138      0.97783534796923
  H   -2.54247968732289      0.07108587606889      0.94495582284321
  H   -1.57939344977647     -1.24327086807741      0.51034877240413
  N   1.66395895630283      0.46064477487530     -0.41714364145453
  H   2.56638324802826      0.00284602509165     -0.37946621174758
  H   1.77107677405649      1.40179931478560     -0.05592658259931
  N   0.43961610946880     -1.59361437535906     -0.24032410901741
  H   1.11690504603638     -2.27823885573383      0.06724006940558
  H   0.48602451703077     -1.50653787741156     -1.24928590403191
