16
Coordinates from ORCA-job run
  C   -0.63583666653681      0.31503273111599      0.08650729986345
  C   0.70767244814741     -0.37052976838108     -0.22576336994310
  Br  -0.41519343338193      1.38576043826493      1.76486550868444
  H   0.54345295096807     -0.84597501097226     -1.19478013175742
  N   -0.98314007044236      1.28289978518851     -1.05322400948120
  O   -1.50545957258051      2.35476877112042     -0.78368437979753
  O   -0.76905880538850      0.83903771847301     -2.17312281141989
  N   -1.70028629442197     -0.60049865907472      0.15146222795156
  H   -1.50687521763181     -1.32407624120986      0.83073433950010
  H   -2.57859069736789     -0.14974796601612      0.37961858206657
  N   1.07169488566887     -1.41406415907995      0.71240971882987
  H   0.55660201667069     -2.27231094063190      0.56989923026369
  H   0.99649076079457     -1.10837323594408      1.67494015890137
  N   1.70560709048839      0.65563923366078     -0.40087223233980
  H   2.51754297586540      0.23773431353481     -0.83824529888655
  H   1.99637762914837      1.01670298995147      0.50025516756443
