16
Coordinates from ORCA-job run
  C   -0.58422777866959      0.46278550335994      0.08414824406191
  C   0.89001673610761      0.03003424110480     -0.05087031591527
  Br  -0.60221696338149      2.33458726476830      0.88797482823070
  H   1.43069690495564      0.83198817135312     -0.56064910725149
  N   -1.22065211996203      0.69862572910105     -1.27405759846416
  O   -0.47532152525476      1.02508814312196     -2.19175008793193
  O   -2.43571541787565      0.56164828446885     -1.34259371044526
  N   -1.32063702886611     -0.48389474668159      0.77135669171008
  H   -0.84442282610341     -0.73463832978981      1.62974115217509
  H   -2.29621032645554     -0.25211100091937      0.88997903488437
  N   1.04873253656507     -1.18004665759551     -0.82088856790121
  H   0.92566367032948     -0.99046207914523     -1.80634329042021
  H   0.36666846569804     -1.86870229443337     -0.52494257901391
  N   1.35215725228909     -0.24966996785669      1.30251019803925
  H   1.56362395118506      0.61229195812777      1.79054216189035
  H   2.20084446943865     -0.79552421898415      1.21784294635169
