16
Coordinates from ORCA-job run
  C   -0.62682057435975      0.49794811950567      0.35435134303978
  C   0.75457761242905     -0.23570634043591      0.35249749926911
  Br  -0.50325724569969      2.03985105596645      1.52901956846861
  H   0.98303040930628     -0.38014660574871      1.42154704435657
  N   -0.88634260158497      0.95027584453661     -1.07874716619739
  O   -1.23085277991489      0.02478117856520     -1.81533267183547
  O   -0.69493024697053      2.10457557203437     -1.41554851793472
  N   -1.76883524132794     -0.26414556165884      0.74908892233318
  H   -1.69531877605673     -0.54447352435640      1.71829064954356
  H   -1.86743640002582     -1.07050251697349      0.14500388725488
  N   1.70308207038202      0.56895096837281     -0.38128883819078
  H   1.84940419599230      1.46953644779087      0.05640329856317
  H   2.58117304284941      0.06773797300662     -0.42095307031953
  N   0.76094513885395     -1.53870670757143     -0.25981221558994
  H   0.43144497734285     -1.48501434930018     -1.21619791335538
  H   0.21013641878447     -2.20696155373361      0.26067818059434
