16
Coordinates from ORCA-job run
  C   -0.66473869324573      0.38897169386608      0.14705452248300
  C   0.55279347065941     -0.45225754231189     -0.24772226388826
  Br  -0.10579461417457      1.58468957511954      1.66936292927519
  H   0.23216456783404     -0.99443290988052     -1.13923491358270
  N   -1.06855227201481      1.30429692057744     -1.01636454231649
  O   -1.60337972134095      2.37266379729445     -0.75657509245436
  O   -0.91200581752894      0.82225769674743     -2.12999987931064
  N   -1.76772792479093     -0.41418347489301      0.42965972793534
  H   -2.54205144359734      0.09040670724875      0.84034148254355
  H   -1.47503878664448     -1.20407894253170      0.99302258918440
  N   0.75116584697520     -1.43704828265236      0.81033066976423
  H   1.33063461464471     -2.19504542077888      0.47250793760207
  H   1.21719204632427     -1.00654120358083      1.60137133631866
  N   1.63782731883454      0.41828202180865     -0.63426298160295
  H   2.30454611558808     -0.07574747897631     -1.21170742708498
  H   2.11296529247750      0.79876684294318      0.17421590513393
