15

C	0.0	0.0	0.0
C	-0.548907	-0.198791	-1.400145
F	1.358743	0.0	0.0
H	-1.649034	-0.206864	-1.318401
H	-0.215388	-1.159734	-1.793365
C	-0.505417	1.233455	0.68814
H	-0.056314	1.309906	1.676766
H	-0.21898	2.100438	0.089271
H	-1.593602	1.180693	0.764324
N	-0.342418	-1.25054	0.825507
O	-0.406604	-1.111888	2.041254
O	-0.406604	-2.319742	0.225905
C	-0.100678	0.873739	-2.28003
N	0.272066	1.731381	-2.990137
Br	-3.846953	0.0	0.0
