15

C	0.0	0.0	0.0
C	-0.536794	-0.193869	-1.403048
F	1.372263	0.0	0.0
H	-1.635184	-0.252175	-1.323716
H	-0.153152	-1.127782	-1.816142
C	-0.49364	1.234938	0.691874
H	-0.208061	2.100634	0.090795
H	-1.581368	1.187465	0.77902
H	-0.032902	1.307287	1.675568
N	-0.34247	-1.250852	0.819543
O	-0.393946	-2.318744	0.215736
O	-0.428792	-1.114091	2.034359
C	-0.144018	0.921384	-2.255587
N	0.175767	1.816124	-2.94492
Br	-3.785822	0.0	0.0
