15

C	0.0	0.0	0.0
C	-0.558345	-0.110429	-1.405496
F	1.358568	0.0	0.0
H	-0.481092	0.876557	-1.870901
H	-1.629533	-0.345482	-1.318342
C	-0.525027	1.19205	0.74629
H	-0.192656	2.09617	0.230881
H	-0.129573	1.185112	1.760786
H	-1.617536	1.148826	0.759826
N	-0.335028	-1.280413	0.78128
O	-0.735181	-2.254571	0.154352
O	-0.090495	-1.24943	1.983916
C	0.153032	-1.069591	-2.243581
N	0.739696	-1.789702	-2.960515
Br	-3.863671	0.0	0.0
