15

C	0.0	0.0	0.0
C	-0.547852	-0.320403	-1.377684
F	1.36383	0.0	0.0
H	-1.647775	-0.329826	-1.29305
H	-0.204656	-1.308394	-1.686917
C	-0.506749	1.286436	0.581127
H	-1.59454	1.236493	0.667672
H	-0.226153	2.099196	-0.092111
H	-0.054268	1.44996	1.557738
N	-0.339774	-1.178091	0.926651
O	-0.301158	-2.301423	0.431287
O	-0.511067	-0.929329	2.113807
C	-0.110652	0.67603	-2.347475
N	0.25329	1.471205	-3.130572
Br	-3.840846	0.0	0.0
