15

C	0.0	0.0	0.0
C	-0.595624	-0.384473	-1.33775
F	1.358617	0.0	0.0
H	-0.467737	0.4522	-2.030686
H	-1.675853	-0.533776	-1.180222
C	-0.556913	1.275606	0.565313
H	-1.645179	1.177695	0.633294
H	-0.302901	2.109258	-0.093613
H	-0.119129	1.445116	1.550012
N	-0.313439	-1.128626	1.008512
O	-1.18188	-1.94167	0.721963
O	0.35999	-1.110674	2.036043
C	0.031122	-1.57647	-1.8961
N	0.543996	-2.519811	-2.368258
Br	-4.011296	0.0	0.0
