16
Coordinates from ORCA-job run
  C   -0.56046515442632      0.56898827329713     -0.06242508862110
  C   0.10279220536184     -0.75719793698042      0.34353069269766
  Br  -1.95830920631206     -0.06657079504902     -1.61069015200458
  H   -0.69929953132287     -1.46619689596591      0.57370110439563
  N   -1.29690605293369      1.12003158385716      0.98673602618191
  H   -1.94254176749216      0.45497267232261      1.38981688710955
  H   -1.80119634461247      1.95551425417988      0.71899994036590
  N   0.34684061809418      1.47737554314946     -0.60933322199101
  H   -0.04064440962055      2.40482191288759     -0.72364526371894
  H   0.73132401989459      1.15878241337573     -1.48708829954187
  C   0.87069248231646     -0.53066012365777      1.57520536969135
  N   1.49142625247862     -0.40786919379830      2.56420357666045
  C   1.01717721635531     -1.36030806463606     -0.72457267548876
  H   0.47062915346210     -1.50229181418087     -1.65659211172563
  H   1.88509827496189     -0.72047105017905     -0.89298529433560
  H   1.38338224379513     -2.32992077862216     -0.38386148967497
