16
Coordinates from ORCA-job run
  C   -0.59477009955098      0.66543246475347      0.13034753007851
  C   0.16829694063447     -0.60837458218218      0.58396799347338
  Br  -1.28393025887485      1.49645546268168      1.85852888073558
  H   -0.51329588173529     -1.21635018618777      1.18974513664039
  N   0.17475747282470      1.69235283011478     -0.50009116544295
  H   0.53063077023443      1.35693848315100     -1.38761773622221
  H   0.93016570083334      2.01728590038652      0.08957576420548
  N   -1.63586920298098      0.30655176614976     -0.75247353326990
  H   -2.13068920459227      1.13808697584556     -1.05156587045106
  H   -2.28577982131262     -0.34668052043970     -0.33387873780037
  C   1.30007802591715     -0.22743878918057      1.42836671215321
  N   2.25286522209964      0.05644330882903      2.05339933682082
  C   0.67398362784348     -1.43031121260802     -0.60864002828984
  H   1.37104406738722     -0.84650403171962     -1.21263889299162
  H   1.20300184783140     -2.31531162505779     -0.25041658354093
  H   -0.15948920655885     -1.73857624453621     -1.23760880609849
