16
Coordinates from ORCA-job run
  C   -0.38035293077931      0.68724425822448      0.01306103594988
  C   0.20154539651234     -0.69419041558114      0.36317650537485
  Br  1.12625501224161      2.02843687337748      0.04019102135384
  H   -0.68273682020853     -1.33669772534813      0.47383223060132
  N   -1.01709633830168      0.62674156117853     -1.26055340246939
  H   -0.36195817573313      0.43722649927688     -2.00933100855659
  H   -1.48229432186637      1.50466782410908     -1.45971734699646
  N   -1.26961021210427      1.09743099062962      1.06764270443076
  H   -2.15521857278900      0.61579698552786      0.94659859360508
  H   -1.42659148896530      2.09697301707273      1.05550690832958
  C   0.87105279166756     -0.65705736246943      1.66384480802901
  N   1.43519303809233     -0.71522489095725      2.69151583154601
  C   1.11555899306677     -1.30176190916611     -0.70211874601124
  H   1.95399795397860     -0.63710080073264     -0.91580097007834
  H   0.55792017022336     -1.49829335198406     -1.61950917745750
  H   1.51533550496503     -2.25319155315784     -0.34833898765084
