16
Coordinates from ORCA-job run
  C   -0.55086726496867      0.57824881543694     -0.07905861621699
  C   0.08179667568388     -0.75206823485363      0.36093853272202
  Br  -1.93977203932956     -0.05942896851633     -1.63440171100697
  H   -0.73677792074023     -1.44021194953615      0.59627607722824
  N   -1.29152865666389      1.16170924141242      0.94975341776123
  H   -1.76943672787493      2.00598788833135      0.66181351282156
  H   -1.96177150282210      0.51826955982146      1.34779056454541
  N   0.38082531228030      1.45921294323335     -0.62909292991411
  H   0.01098454224003      2.38979259210271     -0.77218113275663
  H   0.77711421466601      1.11411565531966     -1.49140120227246
  C   0.84347487757152     -0.51359391589722      1.59439330549310
  N   1.48351464884164     -0.38021685896132      2.56965045033937
  C   0.99631785547500     -1.39491190345851     -0.68380709819175
  H   1.88105758480592     -0.77827958610233     -0.85102474556986
  H   0.45945904596537     -1.54137853863443     -1.62066286131746
  H   1.33560935486973     -2.36624673969798     -0.32098556366472
