16
Coordinates from ORCA-job run
  C   -0.34262537299909      0.70704837230802     -0.00264301545629
  C   0.16002165449825     -0.69714665914837      0.37831394558526
  Br  1.23590083549948      1.96274757209031      0.00353499406495
  H   -0.75951642621315     -1.28668800804815      0.49636192552059
  N   -0.97769110351496      0.65549119331358     -1.27750239425097
  H   -0.33187341640258      0.41292302493474     -2.01904353456603
  H   -1.39126643185702      1.55405853494184     -1.49742299336165
  N   -1.21171370954712      1.18747503455142      1.03920490963587
  H   -2.12347019416373      0.75665064274408      0.92100077034425
  H   -1.30948968427238      2.19412375348676      1.00888007223178
  C   0.82562728373668     -0.67068847651400      1.68113480494880
  N   1.39353068555900     -0.72990529254195      2.70663188092800
  C   1.04380629725049     -1.37688648569003     -0.66885913348029
  H   1.38720971464997     -2.34197220145917     -0.29354740475314
  H   0.48092319306172     -1.56017288094621     -1.58581457078730
  H   1.91962667471445     -0.76505812402287     -0.89023025660385
