16
Coordinates from ORCA-job run
  C   -0.53455520398008      0.64720892941933     -0.09304300230124
  C   0.27413571900469     -0.60082889441195      0.35024020439534
  Br  0.81477997233136      2.15247463782537     -0.33779184625681
  H   -0.49269215159123     -1.38124780971495      0.44963529920752
  N   -1.20041187428642      0.54151780133790     -1.35794817883596
  H   -1.86454562592024     -0.22429774897347     -1.32920950993784
  H   -0.55540825974399      0.43198962789249     -2.12725929113175
  N   -1.51780240250070      0.93367973379919      0.87381964517811
  H   -1.13282150869738      1.09110086961741      1.79634958713711
  H   -2.07001591106034      1.73027426243239      0.58192760553114
  C   0.84100732272366     -0.39536043378979      1.68337262649988
  N   1.27824766484196     -0.22771979632209      2.76067656143701
  C   1.34320257730704     -1.07754581260359     -0.63108710727395
  H   0.90290277881279     -1.25299874717895     -1.61422474644313
  H   2.14544633676501     -0.34692144418044     -0.72431712531876
  H   1.76753056599389     -2.02032517514884     -0.28114072188668
