16
Coordinates from ORCA-job run
  C   -0.68673249631088      0.38999175819820     -0.25338246714018
  C   0.09767469321433     -0.81183031155109      0.32209678839758
  Br  -1.82139831454121     -0.25112589231752     -1.72456045352491
  H   -0.65155159231633     -1.52083640734291      0.68675683768502
  N   -1.60730414772793      0.85280907263139      0.76576218769810
  H   -2.22341774963398      1.56347637341234      0.38786410753309
  H   -1.08112841636781      1.25899639358877      1.53451354216331
  N   0.24477092681734      1.32909337102571     -0.83944410969133
  H   0.82253672680770      1.72659411431389     -0.10325409665284
  H   -0.25432520457694      2.08280996708401     -1.29750565144231
  C   0.83967301763044     -0.31022784336854      1.48490488867089
  N   1.41486652625656      0.14754578131713      2.40162672916060
  C   1.05375480078276     -1.48777718608202     -0.66090547167234
  H   1.59172422100903     -2.29434462958787     -0.15896450825541
  H   0.49113838936780     -1.90976039064690     -1.49297071002045
  H   1.76871861958913     -0.76641417067459     -1.05353761290879
