16
Coordinates from ORCA-job run
  C   -0.67163680322741      0.45137995909575     -0.13693315489065
  C   0.08993809486806     -0.80636032826126      0.32757716975540
  Br  -1.97766166200079     -0.18450105090731     -1.56088954681225
  H   -0.67489202049672     -1.54561182568367      0.58020844795116
  N   -1.51067613128699      0.92081574366886      0.93283839161167
  H   -2.23035663411845      1.54303056663504      0.58720077015980
  H   -0.93187608674470      1.41582999789907      1.60517477474028
  N   0.22435039105148      1.42949977443837     -0.63173464672976
  H   0.74864293819138      1.11568466443578     -1.43866693541325
  H   -0.26029860307927      2.28767968348614     -0.86349155417937
  C   0.79846622953201     -0.46102087753630      1.56493521601805
  N   1.37110962323734     -0.17807966382739      2.55038664301891
  C   1.07130441490517     -1.38267995740058     -0.69410193022216
  H   1.48209914169240     -2.32227559550790     -0.32124675530052
  H   1.90808121584397     -0.70237370635970     -0.86254694131541
  H   0.56140589163254     -1.58101738417484     -1.63770994839186
