16
Coordinates from ORCA-job run
  C   -0.58968518327132      0.66912825727457      0.13150839335591
  C   0.16233020979293     -0.61225128655670      0.58307959466410
  Br  -1.27772662404519      1.49932923762450      1.86037735951370
  H   -0.52487373906698     -1.21654715578713      1.18605616479029
  N   0.18922114253585      1.69219555033084     -0.49335779033686
  H   0.94528524144134      2.00965475498041      0.09953567494531
  H   0.54519299539658      1.35690344274551     -1.38089845665751
  N   -1.63094247749842      0.32082632531747     -0.75560317499064
  H   -2.28703500143517     -0.32862980342745     -0.34076180354707
  H   -2.11860873136242      1.15717807869510     -1.05307404838077
  C   1.29605260037269     -0.24091981185145      1.42918124715082
  N   2.24942900174199      0.04423356614809      2.05265514054500
  C   0.66335391267400     -1.43533580284586     -0.61078754193928
  H   1.18621067294098     -2.32444470455615     -0.25366087106026
  H   1.36452199862752     -0.85515349334434     -1.21350006022478
  H   -0.17172601884439     -1.73716715474739     -1.24074982782798
