16
Coordinates from ORCA-job run
  C   -0.63801046209733      0.55306949561080     -0.20355290460360
  C   0.04846103656723     -0.74113919186184      0.30739262816117
  Br  -1.94758869691873     -0.10396858223806     -1.64288187089095
  H   -0.75072862097137     -1.44852681212244      0.55128643467501
  N   -1.46763699669751      1.24015840588201      0.74067533564804
  H   -2.21729975140449      0.65142152925970      1.07858179406672
  H   -0.89639854253636      1.55949528675505      1.51677325852484
  N   0.31082935396266      1.46795028488588     -0.68100732215048
  H   0.87299166890033      1.11235257496829     -1.44087169027118
  H   -0.13785448991074      2.33595826423854     -0.94488743797460
  C   0.73733571399225     -0.40744843277692      1.55887644770662
  N   1.26280765535239     -0.13794982725278      2.57404099974924
  C   1.02304922715682     -1.39335031208667     -0.67567894382376
  H   1.36506320138820     -2.35121011256026     -0.27971910275501
  H   1.90404692850684     -0.76636479409165     -0.82524218126207
  H   0.52993277470976     -1.57144777660966     -1.63178544479995
