16
Coordinates from ORCA-job run
  C   -0.84478453931965      0.42599992210528     -0.15413612497675
  C   0.00555539415424     -0.85186902723078      0.06859418194576
  Br  -2.75171303662868     -0.20791175148147     -0.16141839959888
  H   -0.33342665816333     -1.58398794281919     -0.67090548196938
  N   -0.65793754902481      1.33459545725767      0.91036889736094
  H   0.25969346810447      1.32071835982155      1.32758433823181
  H   -0.96065983231778      2.26693976035093      0.66742357024114
  N   -0.68190443595233      1.06404108647992     -1.43582603098933
  H   -0.90040947192734      0.44941235169570     -2.21027888540566
  H   0.25685486418196      1.43425878874133     -1.52752588031553
  C   -0.23212690080688     -1.41980862339432      1.39678669368415
  N   -0.34237187173886     -1.88626947650547      2.46886807920074
  C   1.50995860665741     -0.61899741025085     -0.13112713504319
  H   1.71002691021146     -0.24298736680055     -1.13534326334959
  H   1.92060896072095      0.08043024794980      0.59989026502289
  H   2.04363609184915     -1.56356437591955     -0.01395482403914
