16
Coordinates from ORCA-job run
  C   -0.28077309353694      0.77656369745951     -0.14369275150487
  C   0.16090580343604     -0.65147514169471      0.26628909200269
  Br  1.30510339841145      1.94772026081462     -0.14430066230805
  H   -0.75992007762607     -1.25308759019980      0.20807260640070
  N   -0.78299052090510      0.71447471016414     -1.48727374740916
  H   -1.53969562701281      0.03856114865723     -1.53876531557876
  H   -1.14950457151736      1.62666137454178     -1.73677297793505
  N   -1.21651524809737      1.40527262140063      0.76287845919793
  H   -0.81661092960893      1.53129061576403      1.68638235983677
  H   -2.04856201804139      0.82756789366554      0.84147292114881
  C   0.57138148130902     -0.66084812555448      1.67047491758711
  N   0.90072242971666     -0.66654110721580      2.79758322753408
  C   1.22104479241405     -1.29225913126117     -0.63118548125016
  H   1.33850162697183     -2.34707928255048     -0.37419313961723
  H   0.91682276835460     -1.20409853525174     -1.67348841071952
  H   2.18108978573233     -0.79372340873931     -0.50348109738529
