16
Coordinates from ORCA-job run
  C   -0.35664933615123      0.69955073420445      0.01441405243558
  C   0.17151491075134     -0.70467297761144      0.36017499158584
  Br  1.19669828594601      1.98503615604520      0.06465010465316
  H   -0.73736107454297     -1.31438110260560      0.45572870984536
  N   -0.98385843673433      0.67019442892745     -1.26492139128128
  H   -1.41199846311999      1.56687747672109     -1.46366439992974
  H   -0.33012023323799      0.45819526826526     -2.00886444446058
  N   -1.24174870577741      1.13393279665081      1.06325903423061
  H   -1.35084300139346      2.13975524585209      1.06746819538358
  H   -2.14704949938914      0.69685006550900      0.92141924694843
  C   0.82858956066935     -0.70034726284811      1.66736527795241
  N   1.39123087636369     -0.77361483652389      2.69485356598093
  C   1.07477229818837     -1.33835595431962     -0.69919121410113
  H   0.52142533406264     -1.50746428635037     -1.62464405591642
  H   1.43451457731133     -2.30660914050679     -0.34812411408380
  H   1.93988290705378     -0.70394661140956     -0.89792355924288
