16
Coordinates from ORCA-job run
  C   -0.71143193441078      0.51441952789385     -0.19245820056760
  C   -0.01965880312175     -0.85993199088821      0.01349245367592
  Br  -2.70872570683390      0.07400138584033     -0.24642799220573
  H   -0.43272575218963     -1.54655319040250     -0.73169491865459
  N   -0.35845746748771      1.40351409507305      0.83729250621064
  H   -0.57687650917014      1.04816969164011      1.75948468839431
  H   -0.79799775927179      2.30350973336362      0.69180287520574
  N   -0.45531175872731      1.16853602035505     -1.43905131335024
  H   -0.71297281421117      0.59699331791724     -2.23214766611921
  H   0.51777064570270      1.44513679736300     -1.49005799024983
  C   -0.33884332942955     -1.38676939159220      1.34070984407456
  N   -0.53662395936725     -1.75822413457950      2.43750497155836
  C   1.50161293886239     -0.76355006473324     -0.15346084169909
  H   1.75251634919192     -0.46913648617633     -1.17367316316823
  H   1.96002958373880     -1.73544293598349      0.03718464797672
  H   1.91669627672522     -0.03467237509079      0.54250009891825
