16
Coordinates from ORCA-job run
  C   -0.66009603705889      0.55573853937577     -0.16465824420850
  C   0.04518316941734     -0.73870019326672      0.32573590720121
  Br  -1.83090119717685     -0.03793623573311     -1.73418450534119
  H   -0.73205543993097     -1.44050901379904      0.65080835882509
  N   -1.41094905689596      1.10704253761175      0.88668573521928
  H   -2.08085651343592      0.46187357520703      1.28312060170247
  H   -1.86620551097731      1.96101349955399      0.59062423531016
  N   0.17354061586259      1.59355488414835     -0.68826661914037
  H   0.68869866476246      1.29818874474814     -1.50544114583221
  H   0.80349742082844      1.91796957287094      0.03831758443389
  C   0.85489920607937     -0.37441292246974      1.49461482439556
  N   1.55699636251002     -0.08339840174734      2.39004393112614
  C   0.94263249888477     -1.42459370135579     -0.70604357127766
  H   1.73318666675207     -0.74943846363086     -1.03898313313754
  H   1.42037269405484     -2.29550230481562     -0.25421779371474
  H   0.36205645632399     -1.75089011669774     -1.56715616556160
