16
Coordinates from ORCA-job run
  C   -0.38960109517281      0.73889508366598     -0.10130045666408
  C   0.14272375830243     -0.65493779017141      0.31549360932263
  Br  1.20696904257456      1.99630961326778     -0.10604005695453
  H   -0.76351541992582     -1.27436112765340      0.35930067168066
  N   -1.02932435138548      0.64632184274459     -1.35706015186366
  H   -0.39767789672556      0.37587822490556     -2.09834414953091
  H   -1.45345155679020      1.53866849349448     -1.58071735030722
  N   -1.32306203352123      1.33472079449423      0.81062148329080
  H   -0.90887826578797      1.48618796950848      1.72164108839625
  H   -2.13460942669693      0.73089755264962      0.89389216516227
  C   0.68519967493301     -0.59326297796317      1.67277776901222
  N   1.10507350120267     -0.55956065407457      2.76891304526338
  C   1.13358525277158     -1.31114644224277     -0.64735324134711
  H   0.66519269555266     -1.48071009024066     -1.61869853064711
  H   2.02021630424495     -0.69010306629340     -0.77357618441228
  H   1.44215981642411     -2.28279742609134     -0.25754971040131
