18

C	0.0	0.0	0.0
C	-0.515684	0.006298	-1.493939
F	1.325478	0.0	0.0
H	-1.594649	0.103182	-1.509441
N	-0.362093	1.391126	0.802644
O	0.652771	2.101191	0.939885
O	-1.448331	1.716788	1.278351
N	-0.400573	-1.174176	0.879196
O	-1.003185	-2.137231	0.418885
O	0.02539	-1.078718	2.036941
N	-0.296469	-1.314527	-2.115256
O	0.814997	-1.841597	-2.04417
O	-1.244509	-1.774628	-2.755697
C	0.062028	1.130776	-2.302773
H	1.144538	1.100619	-2.391625
H	-0.251105	2.065336	-1.827549
H	-0.422263	1.097671	-3.283524
F	-2.162187	0.0	0.0
