18

C	0.0	0.0	0.0
C	-0.636464	-0.028727	-1.356573
F	1.324319	0.0	0.0
H	-1.790386	-0.143374	-1.028149
N	-0.259784	1.421025	0.727414
O	-1.358266	1.731271	1.135094
O	0.761436	2.097897	0.828363
N	-0.463451	-1.053322	0.978331
O	-0.043101	-0.89239	2.123323
O	-1.086145	-2.006888	0.551732
N	-0.080783	-1.175402	-2.131386
O	0.587321	-2.036461	-1.554055
O	-0.33031	-1.203414	-3.338699
C	-0.313903	1.254159	-2.10799
H	0.762466	1.466749	-2.095289
H	-0.638429	1.161236	-3.142367
H	-0.846209	2.089049	-1.651964
F	-2.760803	0.0	0.0
