18

C	0.0	0.0	0.0
C	-0.407713	-0.036837	-1.515398
F	1.336111	0.0	0.0
H	-0.699863	-1.073751	-1.688099
N	-0.444078	1.130352	0.866549
O	-0.401035	2.233602	0.330693
O	-0.636508	0.902094	2.050912
N	-0.251722	-1.366763	0.732637
O	-1.129948	-2.167423	0.381284
O	0.605653	-1.59937	1.609011
N	0.886306	0.127822	-2.291508
O	1.330432	1.269706	-2.424353
O	1.407058	-0.892603	-2.762283
C	-1.403613	0.90216	-2.16352
H	-1.283306	1.919082	-1.806871
H	-2.386643	0.550432	-1.881828
H	-1.254413	0.880768	-3.251674
F	-2.243522	0.0	0.0
