14

C	-0.386253	0.074514	-1.479543
C	0.0	0.0	0.0
F	-0.166705	-1.215348	-2.005329
H	1.09229	0.0	0.0
H	-1.451557	0.265338	-1.625238
N	0.410593	1.072408	-2.065315
H	0.257446	1.140526	-3.061476
H	1.395972	0.915945	-1.860542
N	-0.57166	-1.256666	0.583359
O	0.202849	-2.109902	0.992417
O	-1.800782	-1.334903	0.58168
C	-0.532457	1.139086	0.731378
N	-0.976377	2.052943	1.320056
Cl	3.259067	0.0	0.0
