14

C	-0.388916	0.086018	-1.477295
C	0.0	0.0	0.0
F	-0.155545	-1.195501	-2.016419
H	1.092333	0.0	0.0
H	-1.456151	0.26649	-1.619034
N	0.394988	1.098548	-2.053952
H	0.233463	1.181003	-3.047645
H	1.382696	0.946691	-1.85974
N	-0.569935	-1.26063	0.577078
O	-1.796979	-1.356749	0.541857
O	0.204262	-2.096851	1.020269
C	-0.53394	1.132005	0.741199
N	-0.994991	2.032071	1.337645
Cl	3.26021	0.0	0.0
