18
Coordinates from ORCA-job run
  C   -0.58269777704955     -0.23301695783393      0.18916009495430
  C   0.88436661162212     -0.00351616180427     -0.23843270555536
  Br  -0.61720892141539     -0.82277128149411      2.06988468448662
  H   0.83037284872005      0.27064004375420     -1.30240670727949
  C   -1.38858544831975      1.05475547762130      0.09084422586364
  H   -2.43616318546081      0.85706921050439      0.32461337322510
  H   -1.33118448519453      1.44439414795451     -0.93188801324743
  H   -1.02964177721941      1.81869498035344      0.77995908172619
  C   -1.21704126503590     -1.33633981832921     -0.64642875848607
  H   -1.21290950949911     -1.03927650200556     -1.70125018254078
  H   -0.67571517420508     -2.27808167484248     -0.54622403542575
  H   -2.25134223634828     -1.49875449980020     -0.33818725835771
  C   1.64936209071777     -1.25195910398718     -0.17138389673127
  N   2.27888763056681     -2.24259966556713     -0.13227642954870
  C   1.63058051572043      1.10876099380260      0.50454928481008
  H   1.65462230240730      0.90761360786285      1.57587101950240
  H   1.15505525461222      2.07494743690013      0.33297464063699
  H   2.65824252538111      1.16943976691066      0.14162158196724
