18
Coordinates from ORCA-job run
  C   -0.58144498190309     -0.24851788439069      0.17351727254299
  C   0.87612277576056      0.01929276933588     -0.26364613066472
  Br  -0.57171720825732     -1.09006344308209      1.95611532263660
  H   0.79515425471978      0.44240339151296     -1.27593885230614
  C   -1.36846508315508      1.05045411614709      0.27639116287189
  H   -0.97593062682864      1.70978972384546      1.04996737820052
  H   -1.33612330244061      1.57391931471988     -0.68588787474647
  H   -2.41148479128996      0.83591467664387      0.51554582448345
  C   -1.25755460754827     -1.21909538560530     -0.78500687461377
  H   -2.28643930631655     -1.40623183115291     -0.47276570620213
  H   -1.27472548877168     -0.78250710215032     -1.78995289406180
  H   -0.73148082777946     -2.17368920282075     -0.82766810578655
  C   1.62065418117404     -1.23622994437309     -0.39949066190306
  N   2.23764801722735     -2.22863150889611     -0.51555367032990
  C   1.66487956414183      1.00449683423786      0.60418197261172
  H   1.20061134695925      1.99103231918691      0.58875658526408
  H   2.68099089704678      1.10382268283615      0.21811596523437
  H   1.72030518726108      0.65184047400521      1.63431928676892
