14

C	0.0	0.0	0.0
C	-0.522742	-0.173151	-1.420268
Br	1.954593	0.0	0.0
H	0.141669	-0.849695	-1.966145
H	-0.294822	0.977161	0.383067
H	-1.5107	-0.638002	-1.334302
C	-0.46697	-1.11761	0.913332
H	-0.103207	-2.081154	0.54448
H	-0.095947	-0.980972	1.931872
H	-1.56075	-1.118034	0.91955
N	-0.581757	1.116916	-2.113783
H	-1.468632	1.538469	-1.852309
H	-0.63113	0.950922	-3.111792
Br	-3.917711	0.0	0.0
