14

C	0.0	0.0	0.0
C	-0.384525	0.438104	-1.430642
Br	1.960492	0.0	0.0
H	0.076426	-0.276944	-2.121895
H	-0.28361	0.771047	0.720137
H	0.094258	1.404783	-1.620425
C	-0.568603	-1.340951	0.402163
H	-0.215252	-1.648946	1.387931
H	-0.290649	-2.108926	-0.324913
H	-1.659842	-1.253638	0.435062
N	-1.787253	0.544822	-1.74714
H	-2.273231	-0.339998	-1.680858
H	-2.294133	1.143961	-1.106544
Br	-4.629575	0.0	0.0
