14

C	0.0	0.0	0.0
C	-0.528321	0.153343	-1.41302
Br	1.970046	0.0	0.0
H	-0.199042	1.120458	-1.820106
H	-0.265774	0.889521	0.574409
H	-1.6182	0.188055	-1.295577
C	-0.503479	-1.251095	0.685676
H	-0.203635	-2.13288	0.120382
H	-0.125751	-1.320933	1.70805
H	-1.596512	-1.188531	0.705445
N	-0.173188	-0.98782	-2.253914
H	0.722269	-0.828722	-2.6976
H	-0.873044	-1.099337	-2.974933
Br	-4.056616	0.0	0.0
