16

C	-0.369576	-0.044468	-1.489889
C	0.0	0.0	0.0
Br	-2.309461	-0.070476	-1.741723
H	1.095992	0.0	0.0
N	0.120977	1.233716	-2.176503
O	0.023922	1.257474	-3.398293
O	0.571569	2.124574	-1.468
C	0.284873	-1.221726	-2.17704
H	0.070384	-1.192642	-3.243693
H	1.363232	-1.151965	-1.999211
H	-0.091135	-2.153634	-1.754008
C	-0.436773	-1.24226	0.637613
N	-0.778877	-2.244784	1.145688
C	-0.550117	1.131867	0.739039
N	-1.026904	1.9898	1.384219
Cl	3.150069	0.0	0.0
