17

C	-0.571082	0.002893	-1.397352
C	0.0	0.0	0.0
Cl	0.2603	-1.101404	-2.455458
H	1.093165	0.0	0.0
N	-2.078664	-0.327753	-1.410586
O	-2.681928	-0.119067	-0.363135
O	-2.578888	-0.729223	-2.452059
N	-0.505554	1.414898	-1.984489
O	-1.560161	2.03697	-2.0546
O	0.602185	1.814464	-2.293878
N	-0.331307	-1.281901	0.603583
H	0.488968	-1.582936	1.122269
H	-1.121591	-1.19675	1.229654
N	-0.355254	1.227416	0.677396
H	-1.216974	1.142489	1.19847
H	0.415355	1.467264	1.292709
H	2.692381	0.0	0.0
