17

C	-0.575218	0.022397	-1.395979
C	0.0	0.0	0.0
Cl	0.269831	-1.042822	-2.481618
H	1.09678	0.0	0.0
N	-2.076256	-0.337464	-1.404929
O	-2.68159	-0.124893	-0.359255
O	-2.570611	-0.766297	-2.437315
N	-0.542798	1.44562	-1.956202
O	-1.610491	2.046475	-2.006855
O	0.553125	1.873645	-2.267928
N	-0.326763	-1.294215	0.578659
H	-1.116522	-1.227748	1.206416
H	0.495566	-1.609276	1.086929
N	-0.357024	1.212719	0.701418
H	0.416708	1.444256	1.316833
H	-1.215542	1.113922	1.226193
H	2.688627	0.0	0.0
