17

C	-0.592149	-0.010111	-1.388191
C	0.0	0.0	0.0
Cl	0.244125	1.059546	-2.477358
H	1.096776	0.0	0.0
N	-0.574931	-1.429257	-1.958928
O	-1.645328	-2.025243	-1.9969
O	0.514288	-1.860345	-2.290369
N	-2.092208	0.357346	-1.37328
O	-2.598276	0.793832	-2.397623
O	-2.684463	0.140979	-0.321121
N	-0.356926	-1.213858	0.698312
H	-1.216322	-1.118534	1.222738
H	0.416494	-1.447645	1.312787
N	-0.316456	1.294384	0.590132
H	-1.087302	1.218877	1.240876
H	0.518486	1.604342	1.080238
H	2.684929	0.0	0.0
