17

C	-0.433885	-0.044138	-1.469223
C	0.0	0.0	0.0
Cl	-0.054041	-1.573316	-2.225628
H	1.099094	0.0	0.0
N	-1.933159	0.214368	-1.584037
O	-2.298309	1.310239	-1.988563
O	-2.659496	-0.681412	-1.164318
N	0.20535	1.074357	-2.301181
O	0.159497	0.951726	-3.518431
O	0.676429	2.018593	-1.685965
N	-0.390331	-1.167907	0.754133
H	0.357758	-1.848431	0.690379
H	-1.261686	-1.569438	0.431178
N	-0.605868	1.183964	0.607742
H	-0.701503	0.942944	1.588102
H	0.067366	1.941208	0.537831
H	2.765663	0.0	0.0
