17

C	-0.598287	-0.080181	-1.38148
C	0.0	0.0	0.0
Cl	-2.320228	-0.506579	-1.401887
H	1.095808	0.0	0.0
N	-0.384754	1.266207	-2.073811
O	-1.351236	1.94659	-2.371961
O	0.793107	1.533374	-2.247973
N	0.08111	-1.098819	-2.289986
O	0.073996	-0.860683	-3.492121
O	0.531316	-2.101912	-1.752813
N	-0.445383	-1.117344	0.84791
H	-0.345041	-1.971936	0.310717
H	0.293087	-1.181061	1.549026
N	-0.403609	1.271155	0.565779
H	-1.154842	1.108593	1.224458
H	0.401906	1.651492	1.052471
H	2.709845	0.0	0.0
