17

C	-0.570011	-0.13403	-1.391546
C	0.0	0.0	0.0
Cl	0.268027	0.855876	-2.551908
H	1.097936	0.0	0.0
N	-0.516874	-1.595516	-1.842713
O	-1.579437	-2.206396	-1.878788
O	0.590386	-2.035479	-2.092131
N	-2.074786	0.206692	-1.435011
O	-2.681062	0.083757	-0.375267
O	-2.570982	0.533444	-2.504256
N	-0.359547	-1.155313	0.79146
H	0.411338	-1.337893	1.426157
H	-1.21953	-1.016634	1.304882
N	-0.325559	1.334892	0.475601
H	-1.121238	1.318306	1.09877
H	0.493107	1.684581	0.965386
H	2.687855	0.0	0.0
