13

C	-0.30567	-0.023421	-1.470843
C	0.0	0.0	0.0
F	-1.670191	-0.108866	-1.746222
H	1.094624	0.0	0.0
H	0.17686	-0.903552	-1.896634
C	0.212677	1.191886	-2.113387
N	0.587561	2.176903	-2.629822
N	-0.395946	-1.278339	0.628816
O	-0.700183	-1.264304	1.819693
O	-0.320697	-2.293663	-0.063485
C	-0.572473	1.124975	0.700009
N	-1.008373	2.076678	1.235227
F	2.421728	0.0	0.0
