13

C	-0.476832	0.037609	-1.448562
C	0.0	0.0	0.0
F	-0.236042	1.310391	-1.939852
H	1.091318	0.0	0.0
H	-1.551331	-0.152391	-1.536492
C	0.238554	-0.926966	-2.299002
N	0.744917	-1.662653	-3.060514
N	-0.43843	-1.250405	0.645392
O	-0.927232	-2.126638	-0.079055
O	-0.249634	-1.364618	1.851958
C	-0.496292	1.133104	0.749839
N	-0.871367	2.06872	1.354365
F	2.423856	0.0	0.0
