13

C	-0.292475	-0.018696	-1.475122
C	0.0	0.0	0.0
F	-1.654941	-0.109563	-1.762341
H	1.094638	0.0	0.0
H	0.197779	-0.895867	-1.89837
C	0.224676	1.200733	-2.109591
N	0.597117	2.188953	-2.620811
N	-0.400265	-1.281669	0.618867
O	-0.736851	-1.270285	1.801313
O	-0.297414	-2.295869	-0.070972
C	-0.581913	1.121727	0.696448
N	-1.035996	2.069907	1.22244
F	2.423056	0.0	0.0
