13

C	-0.399663	0.180347	-1.452058
C	0.0	0.0	0.0
F	0.255148	-0.701232	-2.279649
H	1.091787	0.0	0.0
H	-0.080634	1.189935	-1.730423
C	-1.85282	0.066431	-1.689914
N	-3.010875	0.036055	-1.87758
N	-0.482153	-1.266319	0.583477
O	-0.838076	-2.154877	-0.192926
O	-0.440655	-1.371181	1.807905
C	-0.469091	1.119218	0.788565
N	-0.803697	2.078424	1.38107
F	2.426418	0.0	0.0
