17

C	0.0	0.0	0.0
C	-0.514834	-0.060067	-1.468054
Cl	1.791095	0.0	0.0
H	-1.56398	-0.366346	-1.311628
N	-0.537111	1.092102	0.7481
H	-0.294722	1.957815	0.278054
H	-1.573254	0.892862	0.632655
C	-0.372887	-1.240703	0.71339
N	-0.587161	-2.236266	1.297
N	0.203576	-1.115236	-2.238202
O	-0.014032	-2.283801	-1.92045
O	0.978411	-0.774337	-3.135301
C	-0.442346	1.274068	-2.172181
H	-1.210613	1.91677	-1.741843
H	0.542229	1.740339	-2.085205
H	-0.662523	1.147551	-3.232713
F	-2.740098	0.0	0.0
