17

C	0.0	0.0	0.0
C	-0.20329	-0.059375	-1.587318
Cl	1.806152	0.0	0.0
H	0.422574	-0.879432	-1.94105
N	-0.620405	0.995708	0.766233
H	-1.662792	0.714938	0.630534
H	-0.464205	1.88808	0.310169
C	-0.398346	-1.332378	0.490516
N	-0.625955	-2.408663	0.9007
N	0.439716	1.146865	-2.207547
O	1.244951	0.957616	-3.118105
O	0.084188	2.258519	-1.816517
C	-1.580305	-0.16968	-2.209391
H	-1.44269	-0.157447	-3.297899
H	-2.050239	-1.098503	-1.896503
H	-2.24008	0.614344	-1.859056
F	-2.828093	0.0	0.0
