16

C	0.0	0.0	0.0
C	-0.471001	0.210814	-1.431271
F	1.409145	0.0	0.0
H	-1.551581	0.045395	-1.42546
H	-0.314675	0.855151	0.605099
C	-0.47352	-1.294562	0.609757
H	-0.04907	-1.41742	1.609758
H	-0.164338	-2.126977	-0.023279
H	-1.563256	-1.271391	0.674184
N	0.163375	-0.784541	-2.282682
H	1.165996	-0.631227	-2.249101
H	-0.135219	-0.591588	-3.231306
N	-0.24049	1.58052	-1.915473
H	0.650194	1.90763	-1.552392
H	-0.965487	2.177291	-1.530736
Br	-3.967106	0.0	0.0
