16

C	0.0	0.0	0.0
C	-0.470747	0.210769	-1.431292
F	1.409365	0.0	0.0
H	-1.551488	0.044654	-1.42579
H	-0.314494	0.855575	0.604953
C	-0.47282	-1.294526	0.610298
H	-0.044712	-1.4173	1.608784
H	-0.166457	-2.126691	-0.024236
H	-1.562968	-1.271537	0.679407
N	0.164713	-0.785188	-2.281888
H	-0.130347	-0.592434	-3.231507
H	1.166212	-0.632646	-2.245367
N	-0.241544	1.580456	-1.91502
H	-0.966949	2.177349	-1.530342
H	0.649626	1.90825	-1.553483
Br	-3.97069	0.0	0.0
