16

C	0.0	0.0	0.0
C	-0.538702	-0.288611	-1.390928
F	1.396642	0.0	0.0
H	-1.568172	0.087549	-1.381211
H	-0.301225	1.02378	0.240387
C	-0.483963	-0.956137	1.061722
H	-0.140163	-0.625218	2.044298
H	-1.577586	-0.97742	1.056102
H	-0.080806	-1.952039	0.868218
N	-0.500977	-1.735953	-1.678299
H	-0.812154	-1.848387	-2.638677
H	-1.231974	-2.166308	-1.11663
N	0.228994	0.479906	-2.352015
H	1.148135	0.059442	-2.421445
H	-0.215799	0.428156	-3.26067
Br	-4.021498	0.0	0.0
