16

C	0.0	0.0	0.0
C	-0.523607	-0.265739	-1.409056
F	1.396456	0.0	0.0
H	-1.572537	0.0537	-1.398707
H	-0.30476	1.017872	0.271069
C	-0.48381	-0.983956	1.035276
H	-0.082529	-1.97269	0.804263
H	-1.576949	-1.001716	1.027108
H	-0.138134	-0.68764	2.028974
N	-0.381102	-1.683368	-1.750102
H	-1.137785	-2.183145	-1.293109
H	-0.559819	-1.739146	-2.746921
N	0.186301	0.49766	-2.430699
H	1.175281	0.460839	-2.209907
H	-0.105494	1.466077	-2.374012
Br	-3.999214	0.0	0.0
