16

C	0.0	0.0	0.0
C	-0.373237	-0.318472	-1.455257
F	1.406694	0.0	0.0
H	0.069321	0.499414	-2.05172
H	-0.312109	1.023437	0.23458
C	-0.525779	-0.96944	1.02439
H	-1.615971	-0.894596	1.062356
H	-0.239691	-1.986657	0.759049
H	-0.12721	-0.720755	2.011018
N	-1.77139	-0.381552	-1.79139
H	-2.255568	0.487787	-1.600951
H	-2.257946	-1.060326	-1.215584
N	0.202417	-1.619775	-1.790766
H	1.212527	-1.558019	-1.763839
H	-0.091336	-1.831411	-2.737052
Br	-4.621631	0.0	0.0
