16

C	0.0	0.0	0.0
C	-0.473887	-0.231485	-1.42616
F	1.409	0.0	0.0
H	-1.56071	-0.106423	-1.409996
H	-0.30241	1.007508	0.294518
C	-0.488774	-1.021282	0.993466
H	-0.06523	-2.003451	0.771092
H	-0.184194	-0.736538	2.002609
H	-1.580259	-1.065936	0.953279
N	-0.186603	-1.578134	-1.943932
H	0.740111	-1.858749	-1.634675
H	-0.853817	-2.233349	-1.549913
N	0.113615	0.804369	-2.264009
H	1.123864	0.728185	-2.195997
H	-0.138699	0.590971	-3.222253
Br	-4.014159	0.0	0.0
