10
Coordinates from ORCA-job run
  C   0.62283792466981     -0.26284898716674      0.09754434146854
  C   -0.65701094166211      0.14312567890427     -0.00847319259139
  H   0.96621967108678     -1.25233407710209      0.36547652377968
  H   -0.84471370766612      1.17718853153537     -0.27871900510714
  N   1.69214351350939      0.67265852958313     -0.14710084854518
  O   2.83529124487581      0.22421131935767     -0.03503020890080
  O   1.42198752618151      1.83486046687771     -0.45106000338180
  N   -1.76028417543645     -0.61222719393541      0.26670647040338
  H   -2.63109676985803     -0.31185586160379     -0.13430286389092
  H   -1.64637428570060     -1.61077840645011      0.32495878676563
