10
Coordinates from ORCA-job run
  C   0.62169427160824     -0.28255863554718      0.00263345652860
  C   -0.65725425028239      0.13747442885942     -0.04120905770371
  H   0.96395197568708     -1.30144071471687      0.11908452958793
  H   -0.84211105141903      1.19853511599403     -0.17376677992534
  N   1.69300401680917      0.67378724103044     -0.12735970661299
  O   2.83524512903681      0.21179835026574     -0.07951494608849
  O   1.42528710577845      1.86711744333001     -0.27017655047997
  N   -1.76324244051603     -0.66237777192348     -0.00714051979301
  H   -1.64875248306626     -1.61054104820486      0.31145185079692
  H   -2.62882227363604     -0.23079440908726      0.26499772369007
