10
Coordinates from ORCA-job run
  C   0.34930865156242      0.58541335988724      0.04793715813716
  C   -0.44716402886820     -0.50073837456291      0.03659648424040
  H   0.04785003635528      1.60642657507650      0.23615570549296
  H   0.00817295789692     -1.46562816761836     -0.16146752087162
  N   1.76225566996813      0.43790905305740     -0.19854185218741
  O   2.42401116369299      1.47805262935626     -0.17350275363074
  O   2.22468989914248     -0.68151222824583     -0.42020215778582
  N   -1.78114665751284     -0.51707592744028      0.32533772903593
  H   -2.27712491060983      0.35891935344047      0.31716910534021
  H   -2.31085278162736     -1.30276627295049     -0.00848189777108
