10
Coordinates from ORCA-job run
  C   0.44506405068287      0.68667035396970      0.47999092509314
  C   -0.83525068063359      0.24733803472114      0.36972154448109
  H   0.72160650966512      1.54089916050666      1.07738432277705
  H   -1.58385496966701      0.80202663013033      0.92857699582753
  N   1.54128293426119      0.08008981455701     -0.20371032401849
  O   2.65414383135448      0.58395792205337     -0.04684446911322
  O   1.32290859191858     -0.90547427501060     -0.92772435304443
  N   -1.30261149987978     -0.83003250670191     -0.29743018359095
  H   -0.67129286868942     -1.29782832524092     -0.92797575712066
  H   -2.29099589901243     -0.90764680898479     -0.45198870129107
