10
Coordinates from ORCA-job run
  C   0.47148254898693      0.64629563859824      0.50864362565784
  C   -0.77125381610341      0.10002291400150      0.53965078164050
  H   0.78928200032849      1.41710292960798      1.19273103648916
  H   -1.44219588959428      0.48158473917624      1.30433285806871
  N   1.46803103800902      0.26785381830774     -0.44026123760560
  O   2.55511288786067      0.84363687607381     -0.37908870241925
  O   1.19469594222290     -0.61026713467713     -1.27527754171475
  N   -1.27099241670113     -0.90165446189208     -0.21602965363697
  H   -2.26303441899385     -1.05230663346931     -0.21942716208381
  H   -0.73212787601534     -1.19226868572699     -1.01627400439582
