10
Coordinates from ORCA-job run
  C   0.56616471805616      0.34367117941315      0.67882373735004
  C   -0.76527669858353      0.11212495137602      0.54599152526096
  H   1.00753820385466      0.72128174686432      1.58749152601134
  H   -1.37852055443498      0.33648452713539      1.41438723148585
  N   1.51058319274372      0.08877445858630     -0.36032577862133
  O   2.69485426960556      0.32578637592785     -0.11900534774446
  O   1.09999613166751     -0.35740949082962     -1.44446778230236
  N   -1.44368200817943     -0.30489718818004     -0.54449036052264
  H   -0.90493207120295     -0.64417670589875     -1.32538282042028
  H   -2.38872518352673     -0.62263985439461     -0.43202193049713
