10
Coordinates from ORCA-job run
  C   0.55766237804851      0.22577573239699      0.73375342363285
  C   -0.58630091495440     -0.48583310146930      0.56218771796877
  H   1.05151629981211      0.31971351223738      1.68788906728528
  H   -0.99385192325073     -0.95808792223350      1.45179871813434
  N   1.23121152324588      0.89055317757947     -0.33420544477792
  O   2.27353887128939      1.48731973696348     -0.06145211779081
  O   0.74303214741691      0.83444584988839     -1.47522658845025
  N   -1.32277031438030     -0.63971145357616     -0.55862167617660
  H   -0.92171484509735     -0.32449766816439     -1.42744546011327
  H   -2.03132322213003     -1.34967786362236     -0.57867763971239
