10
Coordinates from ORCA-job run
  C   0.31176708026104      0.77674568425225     -0.44626172731101
  C   -0.89046670895058      0.32096227980654     -0.00892891497291
  H   0.42511656635658      1.70663044864236     -0.98066789887706
  H   -1.74805157700191      0.95409763237206     -0.21914693529997
  N   1.53179985746129      0.05918201003717     -0.26599453068326
  O   2.55829725977672      0.56484156556422     -0.72172028796687
  O   1.50188070744832     -1.02896769704142      0.33253676275771
  N   -1.15986733989787     -0.79088846658076      0.70815565465719
  H   -2.11214533605606     -1.09721059714313      0.78526436890755
  H   -0.41933050939751     -1.46539285990929      0.81676350878862
