10
Coordinates from ORCA-job run
  C   0.48616644379927      0.17885528669267      0.44583357623388
  C   -0.52821703415147     -0.26265296268927     -0.32235709314533
  H   0.52799711519735      0.17607652514915      1.52610492217983
  H   -0.41811470225246     -0.19883340284000     -1.40001039620931
  N   1.67108766894807      0.71649311319696     -0.17534882436353
  O   2.55268494984682      1.10506278288904      0.59427529030629
  O   1.74198299040094      0.76497520202433     -1.40367979157508
  N   -1.67114280932848     -0.85764896079178      0.12754392370821
  H   -1.90343632493181     -0.75971775560862      1.10212536182279
  H   -2.46000829752823     -0.86160982802248     -0.49448696895776
