10
Coordinates from ORCA-job run
  C   0.54721176974101      0.09778233841566      0.39702298160580
  C   -0.61550794746596     -0.07926377243126     -0.25927282874269
  H   0.72010310782103     -0.04215583466634      1.45500494004196
  H   -0.63233001124806      0.10803787526774     -1.32802983577864
  N   1.71887096171747      0.52514919732372     -0.32660055608120
  O   1.64279993688097      0.72337438176386     -1.53939768968256
  O   2.74536742116828      0.65890489855849      0.34346626566413
  N   -1.81302599218369     -0.40616300441688      0.30912177199949
  H   -1.80366905269266     -0.77923168479841      1.24422989898971
  H   -2.50882019373838     -0.80743439501658     -0.29454494801599
