10
Coordinates from ORCA-job run
  C   0.43645231869106      0.70015951440720      0.46698364663614
  C   -0.84472864512976      0.27038547700248      0.33255545860768
  H   0.71400183189739      1.52003313233752      1.11035933297429
  H   -1.59365589065629      0.81252636289473      0.90315709811196
  N   1.54089383045357      0.08554015378024     -0.19524155468049
  O   2.66141998130338      0.54663316924410      0.02569842316542
  O   1.32366021125919     -0.87512264529606     -0.95248161207542
  N   -1.32589440274247     -0.70511145289283     -0.46785852814006
  H   -0.65628944766694     -1.31125179067759     -0.91451628583773
  H   -2.25685978740914     -1.04379192079978     -0.30865597876180
