10
Coordinates from ORCA-job run
  C   0.60385778298503      0.14426591905550      0.71704696819617
  C   -0.73925481167792     -0.01142029980129      0.59092992554996
  H   1.09215876775872      0.26996772497324      1.67036599594042
  H   -1.31103654809661      0.00015091970533      1.51473283412450
  N   1.49875615417893      0.13960105911897     -0.39493446524112
  O   1.03189267766994     -0.00564595733980     -1.53678034905214
  O   2.69889927492522      0.27822606479136     -0.15546040321842
  N   -1.47324542648291     -0.11977185143706     -0.53739643563188
  H   -0.97818932380424     -0.26176278510311     -1.40328675012492
  H   -2.42383854745616     -0.43261079396317     -0.46521732054256
