14

C	-0.389635	0.029231	-1.461651
C	0.0	0.0	0.0
Cl	0.217705	-1.4235	-2.309851
H	1.08948	0.0	0.0
H	0.157886	0.870084	-1.88892
C	-1.816547	0.207989	-1.71524
N	-2.95034	0.399777	-1.955554
N	-0.490936	-1.166041	0.730929
O	-1.403675	-1.835108	0.227997
O	0.084552	-1.428012	1.788203
N	-0.384194	1.231021	0.656901
O	-0.331809	2.247201	-0.061848
O	-0.606029	1.237989	1.871945
H	2.358995	0.0	0.0
