14

C	-0.373488	-0.00259	-1.45625
C	0.0	0.0	0.0
Cl	-2.098639	-0.345644	-1.827034
H	1.091544	0.0	0.0
H	0.203619	-0.814602	-1.904999
C	-0.003013	1.263691	-2.083089
N	0.246645	2.282702	-2.610873
N	-0.373538	-1.207506	0.67601
O	-0.288397	-2.250334	0.00493
O	-0.547646	-1.156112	1.903348
N	-0.513477	1.180603	0.739754
O	-1.73629	1.310289	0.810728
O	0.314665	1.954371	1.214588
H	2.408534	0.0	0.0
