14

C	-0.542379	-0.117273	-1.410677
C	0.0	0.0	0.0
Cl	0.117084	1.223879	-2.408874
H	1.087847	0.0	0.0
H	-1.627749	-0.022405	-1.428366
C	-0.13989	-1.369801	-2.050501
N	0.154339	-2.335895	-2.650571
N	-0.422774	-1.101456	0.834578
O	-1.168582	-1.965797	0.323472
O	0.042154	-1.150731	1.981468
N	-0.423787	1.244258	0.64385
O	0.205215	1.583058	1.651653
O	-1.364026	1.87997	0.134673
H	2.358703	0.0	0.0
