14

C	-0.369251	0.020255	-1.457043
C	0.0	0.0	0.0
Cl	-2.120416	-0.225679	-1.780373
H	1.091049	0.0	0.0
H	0.13879	-0.841827	-1.892818
C	0.099671	1.224434	-2.137314
N	0.517717	2.148738	-2.728369
N	-0.371246	-1.270273	0.60519
O	-0.068806	-2.260871	-0.077321
O	-0.872505	-1.315339	1.730632
N	-0.438591	1.151514	0.761891
O	-0.01546	1.23252	1.918884
O	-1.094765	2.028702	0.178783
H	2.341615	0.0	0.0
