14

C	-0.426747	-0.002922	-1.441236
C	0.0	0.0	0.0
Cl	-2.190779	0.295429	-1.658682
H	1.090839	0.0	0.0
H	-0.255881	-1.015306	-1.808136
C	0.316593	0.928854	-2.286391
N	0.865827	1.620534	-3.060216
N	-0.358031	-1.226889	0.685238
O	0.022466	-1.329426	1.855698
O	-0.865024	-2.151365	0.024139
N	-0.409144	1.21041	0.70204
O	-0.177338	2.247429	0.068688
O	-0.893139	1.164966	1.832699
H	2.332686	0.0	0.0
