14

C	-0.361868	0.003889	-1.45647
C	0.0	0.0	0.0
Cl	-2.113003	-0.253205	-1.789131
H	1.091012	0.0	0.0
H	0.150659	-0.859476	-1.882363
C	0.102494	1.207146	-2.139952
N	0.5073	2.148456	-2.713541
N	-0.370701	-1.266065	0.616091
O	-0.072461	-2.261812	-0.060597
O	-0.86663	-1.30196	1.744879
N	-0.445729	1.156448	0.752346
O	-0.016188	1.256402	1.904102
O	-1.120241	2.015449	0.164795
H	2.343875	0.0	0.0
