14

C	-0.55525	-0.018552	-1.407857
C	0.0	0.0	0.0
Cl	0.427365	1.002405	-2.517589
H	1.087617	0.0	0.0
H	-1.55572	0.418965	-1.405326
C	-0.613161	-1.368738	-1.964621
N	-0.715222	-2.433948	-2.448272
N	-0.427231	-1.233826	0.723464
O	-1.605656	-1.279689	1.087131
O	0.397425	-2.132823	0.854
N	-0.460375	1.133059	0.744397
O	-0.909982	2.116898	0.122755
O	-0.216722	1.109559	1.963779
H	2.387079	0.0	0.0
