21

C	0.0	0.0	0.0
C	-0.360707	-0.050681	-1.514043
Cl	1.819381	0.0	0.0
H	0.389585	-0.711096	-1.966618
C	-0.53116	1.221542	0.720945
H	-0.140529	2.149219	0.300742
H	-0.256215	1.17987	1.778823
H	-1.626729	1.206197	0.642348
C	-0.453818	-1.259302	0.718778
H	-0.108867	-2.15613	0.1973
H	-0.054727	-1.275812	1.737022
H	-1.548377	-1.25739	0.762492
C	-0.225775	1.318057	-2.179855
H	-1.047546	1.972747	-1.878869
H	-0.279376	1.201268	-3.266712
H	0.724629	1.803354	-1.939695
C	-1.738301	-0.646272	-1.800546
H	-1.985311	-0.482304	-2.856371
H	-2.555425	-0.23229	-1.184972
H	-1.744268	-1.727024	-1.629399
H	-4.057492	0.0	0.0
