16

C	-0.365977	-0.039653	-1.476043
C	0.0	0.0	0.0
F	-1.76303	-0.118001	-1.626233
H	1.09721	0.0	0.0
H	0.039479	-0.971024	-1.886258
C	0.153327	1.147935	-2.248608
H	-0.305563	2.067691	-1.879108
H	1.236797	1.209821	-2.116278
H	-0.080485	1.040151	-3.31069
C	-0.497283	-1.230194	0.759152
H	-0.171404	-1.18929	1.799919
H	-1.586579	-1.301724	0.725355
H	-0.064553	-2.126465	0.307752
C	-0.49295	1.227685	0.620748
N	-0.91914	2.200761	1.122247
Br	3.52008	0.0	0.0
