16

C	-0.454642	0.005674	-1.463039
C	0.0	0.0	0.0
F	-0.033964	-1.191922	-2.046808
H	1.096063	0.0	0.0
H	0.07338	0.809376	-1.985942
C	-1.951451	0.110953	-1.673165
H	-2.170288	0.106403	-2.743549
H	-2.344884	1.03179	-1.236353
H	-2.458786	-0.74318	-1.218329
C	-0.474203	-1.228722	0.778943
H	-0.005073	-1.232436	1.764149
H	-0.152947	-2.125254	0.248188
H	-1.559755	-1.250883	0.907012
C	-0.461732	1.231877	0.635188
N	-0.884696	2.214871	1.12093
Br	3.550281	0.0	0.0
