16

C	-0.364938	-0.013605	-1.477026
C	0.0	0.0	0.0
F	-1.761679	-0.088489	-1.629614
H	1.097087	0.0	0.0
H	0.040498	-0.937999	-1.902907
C	0.155768	1.187055	-2.228021
H	-0.074588	1.097594	-3.292491
H	-0.304855	2.100074	-1.844146
H	1.238662	1.247084	-2.091166
C	-0.497408	-1.24305	0.737441
H	-0.06035	-2.130925	0.273961
H	-0.176158	-1.217873	1.780141
H	-1.586264	-1.316754	0.697957
C	-0.494141	1.216625	0.641224
N	-0.926298	2.17824	1.159475
Br	3.516381	0.0	0.0
