15

C	-0.365213	0.103691	-1.48169
C	0.0	0.0	0.0
Br	0.101972	-1.585377	-2.367016
H	1.092073	0.0	0.0
H	-1.43883	0.208343	-1.647416
C	0.477779	1.221984	-2.07565
H	1.508237	1.055714	-1.748542
H	0.132803	2.184274	-1.684541
H	0.404997	1.240183	-3.164056
N	-0.611431	-1.207532	0.640389
O	-1.790473	-1.448178	0.370955
O	0.08566	-1.864583	1.40558
C	-0.520826	1.159553	0.703469
N	-0.938562	2.114277	1.249075
F	2.53123	0.0	0.0
