15

C	-0.582203	0.007256	-1.401241
C	0.0	0.0	0.0
Br	0.084297	-1.548354	-2.397327
H	1.092014	0.0	0.0
H	-1.66773	-0.138195	-1.42822
C	-0.141736	1.261123	-2.130766
H	-0.602981	2.131717	-1.653736
H	0.952088	1.332563	-2.033087
H	-0.448442	1.234435	-3.183356
N	-0.524422	-1.256628	0.669495
O	-1.758647	-1.394148	0.764413
O	0.279701	-1.925948	1.325388
C	-0.539086	1.116846	0.74194
N	-0.979669	2.046642	1.317728
F	2.506821	0.0	0.0
