15

C	-0.407407	-0.007585	-1.468985
C	0.0	0.0	0.0
Br	0.237792	1.65144	-2.286153
H	1.092246	0.0	0.0
H	0.168441	-0.793536	-1.953186
C	-1.895736	-0.138869	-1.727211
H	-2.251446	-1.084858	-1.311153
H	-2.106653	-0.131288	-2.798827
H	-2.438742	0.686378	-1.261826
N	-0.353266	-1.29283	0.630661
O	-0.341653	-2.294118	-0.091194
O	-0.553434	-1.316287	1.844366
C	-0.575339	1.087529	0.758712
N	-1.026283	2.001742	1.345371
F	2.447249	0.0	0.0
