15

C	-0.378026	0.102075	-1.477846
C	0.0	0.0	0.0
Br	0.101685	-1.579977	-2.367183
H	1.092094	0.0	0.0
H	-1.453767	0.197185	-1.634395
C	0.447523	1.228067	-2.079972
H	0.365246	1.24445	-3.168132
H	1.483211	1.073843	-1.762931
H	0.094211	2.187092	-1.687605
N	-0.608841	-1.207367	0.644175
O	-1.788998	-1.44808	0.381347
O	0.09168	-1.86334	1.407557
C	-0.516995	1.159939	0.70624
N	-0.929147	2.11589	1.253823
F	2.528355	0.0	0.0
