15

C	-0.363653	0.093131	-1.483115
C	0.0	0.0	0.0
Br	0.10903	-1.600047	-2.356306
H	1.092126	0.0	0.0
H	-1.436768	0.195903	-1.650441
C	0.477144	1.206723	-2.08641
H	0.133115	2.173227	-1.703391
H	0.402975	1.215304	-3.174264
H	1.508163	1.041708	-1.760427
N	-0.612377	-1.20136	0.651061
O	0.079064	-1.839981	1.437116
O	-1.786352	-1.456151	0.368268
C	-0.518802	1.166042	0.69455
N	-0.933467	2.126386	1.232815
F	2.53032	0.0	0.0
