17

C	-0.486354	0.040698	-1.441395
C	0.0	0.0	0.0
F	-0.349491	-1.232467	-2.024544
H	1.096853	0.0	0.0
H	-1.566202	0.255841	-1.451622
C	0.276904	1.035767	-2.28256
H	0.129406	2.036802	-1.876308
H	-0.070855	1.0057	-3.318991
H	1.342012	0.797457	-2.242136
C	-0.492474	-1.239626	0.735264
H	-0.135948	-1.21749	1.768706
H	-1.590385	-1.278083	0.744429
H	-0.119488	-2.149472	0.263951
N	-0.432418	1.261236	0.622429
H	-1.335817	1.123927	1.068244
H	0.233271	1.504371	1.348021
Br	3.71129	0.0	0.0
