17

C	-0.442207	0.057136	-1.460079
C	0.0	0.0	0.0
F	-0.205235	-1.182524	-2.075102
H	1.097217	0.0	0.0
H	-1.533473	0.204357	-1.508065
C	0.289896	1.111021	-2.261322
H	1.366109	0.972041	-2.137829
H	0.021351	2.112631	-1.918423
H	0.028175	1.027012	-3.319041
C	-0.532588	-1.23508	0.703167
H	-0.192997	-2.144321	0.206732
H	-0.176063	-1.234976	1.734042
H	-1.630557	-1.231828	0.716776
N	-0.419635	1.203368	0.72831
H	-1.36138	1.473639	0.456754
H	0.20766	1.968028	0.509182
Br	3.752623	0.0	0.0
