17

C	-0.472025	0.003549	-1.441887
C	0.0	0.0	0.0
F	-0.079103	1.222441	-2.02546
H	1.102848	0.0	0.0
H	0.060985	-0.780364	-1.99068
C	-1.970991	-0.111576	-1.628673
H	-2.223085	0.067847	-2.676704
H	-2.324323	-1.10854	-1.355182
H	-2.473334	0.626987	-1.002755
C	-0.45954	-1.254753	0.727335
H	-1.541473	-1.247472	0.885001
H	0.032539	-1.311819	1.70199
H	-0.176744	-2.154599	0.173192
N	-0.545109	1.189952	0.676799
H	-0.134221	1.211402	1.605243
H	-0.155228	1.994387	0.194713
Br	3.74858	0.0	0.0
