17

C	-0.423991	0.012786	-1.468272
C	0.0	0.0	0.0
F	-0.042449	1.244693	-2.025214
H	1.096826	0.0	0.0
H	0.143431	-0.75563	-2.005664
C	-1.908613	-0.142543	-1.735
H	-2.264924	-1.130665	-1.43658
H	-2.104648	-0.010124	-2.801521
H	-2.479721	0.617009	-1.194289
C	-0.467656	-1.270192	0.695128
H	-0.19486	-2.16196	0.122527
H	0.01541	-1.329886	1.670781
H	-1.553207	-1.272098	0.848191
N	-0.439794	1.168085	0.760141
H	-1.437522	1.311324	0.639273
H	0.035063	1.982505	0.388459
Br	3.753682	0.0	0.0
