15

C	-0.345232	-0.024624	-1.46991
C	0.0	0.0	0.0
F	-0.137836	-1.27637	-1.957861
H	1.095178	0.0	0.0
H	-0.340223	0.958814	0.398401
N	-1.830561	0.275339	-1.660509
O	-2.167015	1.420637	-1.364368
O	-2.570952	-0.605253	-2.070244
N	0.36994	0.90253	-2.286561
H	0.122494	1.842215	-2.003054
H	1.360613	0.769956	-2.083577
N	-0.655084	-1.093951	0.710703
H	-0.614162	-0.89563	1.704453
H	-0.105394	-1.931092	0.560946
Cl	3.454541	0.0	0.0
