15

C	-0.591352	0.037619	-1.3963
C	0.0	0.0	0.0
F	-0.110429	1.12491	-2.053334
H	1.098307	0.0	0.0
H	-0.358414	-0.914126	0.478325
N	-0.153255	-1.195456	-2.173831
O	0.564259	-1.052773	-3.149584
O	-0.590508	-2.262055	-1.739266
N	-2.021506	0.063041	-1.468515
H	-2.3042	0.707276	-0.733625
H	-2.359177	-0.860277	-1.221904
N	-0.554416	1.169321	0.707971
H	-0.468913	0.99905	1.702333
H	0.061319	1.950367	0.508419
Cl	3.476651	0.0	0.0
