15

C	-0.519542	-0.067808	-1.409203
C	0.0	0.0	0.0
F	-0.195703	-1.249756	-1.997569
H	1.097868	0.0	0.0
H	-0.35515	0.93505	0.438647
N	-2.079657	-0.114055	-1.309153
O	-2.690386	-1.08361	-1.736284
O	-2.588191	0.897308	-0.82897
N	-0.100837	0.986905	-2.239353
H	-0.546529	0.955273	-3.148125
H	-0.240654	1.882581	-1.796091
N	-0.586063	-1.120538	0.749389
H	-0.059663	-1.95071	0.499272
H	-0.395688	-0.962444	1.732529
Cl	3.5361	0.0	0.0
