15

C	-0.292867	-0.124702	-1.487503
C	0.0	0.0	0.0
F	-1.610783	-0.505558	-1.735901
H	1.093362	0.0	0.0
H	-0.410654	0.928073	0.392558
N	-0.292112	1.286029	-2.162419
O	-0.950303	2.169142	-1.620257
O	0.306967	1.403707	-3.228585
N	0.582499	-1.014127	-2.10656
H	0.590542	-0.894154	-3.109966
H	1.525948	-0.895723	-1.73715
N	-0.472795	-1.147926	0.763816
H	-1.380524	-1.433193	0.41766
H	0.166122	-1.916567	0.608433
Cl	3.419521	0.0	0.0
