17
Coordinates from ORCA-job run
  C   0.37199572696093     -0.52864288535294     -0.28560527124568
  C   -0.55204192703682      0.55025854400240      0.27674323752598
  Cl  -0.48570106606887     -2.01389624022040     -0.64243238623115
  H   0.01918930535257      1.40253555672693      0.63616828604062
  C   1.55232551868010     -0.80913501181148      0.62940871931948
  H   2.21674324951177     -1.51477343949958      0.12800565620635
  H   2.09192590596674      0.11662682816378      0.83844931488059
  H   1.21054285895224     -1.24703342498079      1.56518850387943
  N   0.98020966237113      0.06391348334945     -1.57061281256754
  O   1.23479530148925     -0.68626507167135     -2.49328887211743
  O   1.24123326692527      1.26075316324150     -1.49149788235154
  N   -1.33069034097368      0.01982261225848      1.44872224464361
  O   -2.47861094541808     -0.35211174694594      1.25098412217909
  O   -0.71064361693246      0.00049078379079      2.50726209225290
  N   -1.54487334978476      1.10196132692806     -0.70688376703463
  O   -2.15920895505926      2.07845867284011     -0.29515648389031
  O   -1.65619059493607      0.55603684918098     -1.79645470148979
