14

C	0.0	0.0	0.0
C	-0.588368	-0.073756	-1.399765
F	1.384101	0.0	0.0
H	-1.711336	-0.030634	-1.149864
H	-0.301406	0.984688	0.389562
N	-0.486735	-1.112022	0.744621
H	-1.517545	-1.023269	0.660802
H	-0.261	-0.954952	1.72141
N	-0.264211	-1.374765	-2.052735
O	-1.050567	-2.29974	-1.87878
O	0.775709	-1.438418	-2.713085
C	-0.140274	1.021104	-2.239796
N	0.181006	1.952217	-2.881538
H	-2.907887	0.0	0.0
