14

C	0.0	0.0	0.0
C	-0.580293	-0.0609	-1.400571
F	1.38602	0.0	0.0
H	-1.703968	0.000296	-1.174347
H	-0.294059	0.985368	0.393667
N	-0.47465	-1.108825	0.750744
H	-1.498218	-1.135888	0.584253
H	-0.34953	-0.895955	1.737494
N	-0.280093	-1.374389	-2.041361
O	-1.062209	-2.29258	-1.808137
O	0.729756	-1.451965	-2.748318
C	-0.068118	1.013754	-2.233261
N	0.309295	1.907255	-2.898255
H	-2.978281	0.0	0.0
