16

C	0.0	0.0	0.0
C	-0.421891	-0.027792	-1.517005
Cl	1.758659	0.0	0.0
H	0.505259	0.133528	-2.082345
C	-0.441348	1.216089	0.677906
N	-0.548855	2.267975	1.193504
N	-0.399035	-1.194207	0.862103
O	-0.323861	-2.302327	0.349667
O	-0.611752	-0.964428	2.041211
C	-1.269363	1.11948	-1.858441
N	-1.808878	2.037664	-2.355523
C	-1.066972	-1.302763	-2.070652
H	-0.380861	-2.146093	-2.025121
H	-1.965962	-1.493184	-1.49437
H	-1.322034	-1.109457	-3.116923
F	-2.284266	0.0	0.0
