16

C	0.0	0.0	0.0
C	-0.249655	0.024727	-1.569817
Cl	1.76366	0.0	0.0
H	0.510097	-0.666496	-1.947556
C	-0.531365	1.120583	0.753003
N	-0.629547	2.115138	1.376103
N	-0.418622	-1.316985	0.608834
O	-0.552208	-1.344685	1.821355
O	-0.439702	-2.283255	-0.143994
C	0.154457	1.357463	-2.031254
N	0.434437	2.418152	-2.452457
C	-1.551651	-0.364053	-2.276013
H	-2.337641	0.350247	-2.067966
H	-1.314304	-0.405397	-3.348477
H	-1.882037	-1.338654	-1.932762
F	-2.268362	0.0	0.0
