19

C	0.0	0.0	0.0
C	-0.438381	-0.117534	-1.455241
F	1.377043	0.0	0.0
H	-0.021658	-1.066402	-1.812669
C	-0.539939	1.179849	0.746955
H	-1.617509	1.078113	0.888559
H	-0.33079	2.065297	0.147298
H	-0.057894	1.257752	1.720606
N	-0.329875	-1.301659	0.740949
O	-0.123059	-2.349537	0.131447
O	-0.691529	-1.224708	1.911024
N	0.135383	1.035911	-2.157942
H	-0.376029	1.173295	-3.020705
H	1.102916	0.850923	-2.390702
C	-1.945249	-0.127318	-1.607367
H	-2.450917	-0.840003	-0.955955
H	-2.383437	0.84375	-1.377944
H	-2.210564	-0.388032	-2.636275
Br	-5.071172	0.0	0.0
