13
Coordinates from ORCA-job run
  C   -0.62109986240009     -0.23463691504206     -0.28266713916025
  C   0.90115528668794     -0.25605451959226     -0.25867432626223
  Br  -1.29268311226693      0.81494290798686     -1.74630566538859
  H   1.24172966889081     -0.78468050064840      0.63360112330264
  H   1.29144015033278     -0.72770092697851     -1.15859333834914
  N   -1.15756988252830      0.28848800878556      1.08973930355826
  O   -2.01547195430919      1.14488725359698      1.09530697542476
  O   -0.65186343678047     -0.28799365533596      2.04111818063402
  C   -1.10492708538338     -1.60290738647463     -0.40160483964412
  N   -1.46202254466107     -2.71873930228584     -0.50600079552236
  N   1.47547068351469      1.12131206981066     -0.19528977709505
  O   2.51714377731909      1.30592132291168     -0.81274142942546
  O   0.87869831158414      1.93616164326590      0.50111172792752
