13
Coordinates from ORCA-job run
  C   -0.59516190557677     -0.19295558104668     -0.17636248982829
  C   0.66868196630600      0.56931072554203      0.21695309290703
  Br  -1.17176826923025      0.29708732106519     -1.94064418523257
  H   0.46870130901259      1.64012838983331      0.22974711727126
  H   1.01812127640258      0.21808721001560      1.18940443066471
  N   -1.64344006747756      0.25395967426026      0.89612250763525
  O   -2.59533954769857      0.92609434622304      0.55032893254809
  O   -1.34889014445828     -0.11434090065798      2.02561084429774
  C   -0.48987773417034     -1.63842976166234     -0.06300051107021
  N   -0.46014567986808     -2.80877563098921      0.05003516637764
  N   1.77264753417316      0.34026646406521     -0.76166128174338
  O   2.02900384574297     -0.82773184320631     -1.03372988669681
  O   2.34746741684255      1.33729958655789     -1.18480373713048
