13
Coordinates from ORCA-job run
  C   -0.70074536272493     -0.24669582083596     -0.25820005612135
  C   0.53876644161751      0.44703145393932     -0.78661717583077
  Br  -2.10488046768693     -0.02479668533187     -1.58523646068145
  H   0.34789752417163      1.51057921710254     -0.92435366086839
  H   0.86273132169020     -0.00131047245349     -1.72548943515928
  N   -1.20455309619286      0.45059629529166      1.01894130076740
  O   -1.76926672909685     -0.25608594972093      1.83598090790218
  O   -1.03046105763695      1.65809595807026      1.06082878023474
  C   -0.50349462040924     -1.66193505985608     -0.00082739079963
  N   -0.32014809846413     -2.81548386020402      0.13425706107138
  N   1.68209819665811      0.33177598750348      0.17652706369280
  O   2.76877845870517      0.69826746316915     -0.24851549373542
  O   1.43427748936929     -0.09203852667407      1.30270455952779
