15

C	0.0	0.0	0.0
C	-0.444403	-0.309936	-1.455477
Cl	1.745315	0.0	0.0
H	0.206241	0.314808	-2.072135
H	-0.138869	-1.34607	-1.615163
N	-0.388384	1.436968	0.409228
O	-0.328221	1.755871	1.584965
O	-0.617732	2.185053	-0.534362
N	-0.513098	-1.044864	0.995463
O	-0.739428	-2.142121	0.500334
O	-0.594841	-0.753075	2.177083
N	-1.795783	-0.112594	-1.857937
H	-2.028864	0.869422	-1.815641
H	-2.497428	-0.571893	-1.28033
Cl	-4.316603	0.0	0.0
