15

C	0.0	0.0	0.0
C	-0.560347	0.147264	-1.391997
F	1.355516	0.0	0.0
H	-0.307578	1.175472	-1.67696
H	-1.650281	0.103675	-1.279573
C	-0.425521	1.100658	0.883813
N	-0.579546	2.064978	1.535799
N	-0.352871	-1.325861	0.684517
O	-0.129936	-2.334005	0.020701
O	-0.703662	-1.289739	1.856072
C	-0.027447	-0.823617	-2.439908
H	1.058553	-0.932036	-2.38433
H	-0.476326	-1.808705	-2.335671
H	-0.27934	-0.436647	-3.431264
Cl	-3.578702	0.0	0.0
