15

C	0.0	0.0	0.0
C	-0.500427	-0.125361	-1.414083
F	1.369146	0.0	0.0
H	0.059072	-0.952625	-1.857692
H	-1.558946	-0.38485	-1.356395
C	-0.434231	1.207637	0.713018
N	-0.575044	2.25364	1.228323
N	-0.348541	-1.231052	0.839124
O	-0.424834	-1.070205	2.050965
O	-0.390415	-2.297925	0.240269
C	-0.307192	1.173128	-2.188246
H	-0.986107	1.939427	-1.810807
H	0.719755	1.542678	-2.122133
H	-0.542336	1.009569	-3.242218
Cl	-3.434611	0.0	0.0
