15

C	0.0	0.0	0.0
C	-0.511373	0.167013	-1.406046
F	1.355533	0.0	0.0
H	0.019757	-0.57337	-2.009657
H	-1.577085	-0.070391	-1.385793
C	-0.437929	1.038127	0.944161
N	-0.588744	1.957718	1.658714
N	-0.357172	-1.375207	0.573008
O	-0.406084	-2.298498	-0.229237
O	-0.431163	-1.462791	1.792482
C	-0.281753	1.58561	-1.915303
H	-0.927515	2.28723	-1.383835
H	-0.535175	1.638455	-2.97653
H	0.758848	1.901456	-1.798108
Cl	-3.462761	0.0	0.0
