15

C	0.0	0.0	0.0
C	-0.591541	0.181479	-1.375397
F	1.355561	0.0	0.0
H	-0.321747	1.204909	-1.660254
H	-1.680794	0.158666	-1.232376
C	-0.425508	1.069203	0.921216
N	-0.610731	2.008694	1.600522
N	-0.356207	-1.349103	0.639365
O	0.009386	-2.331939	0.002144
O	-0.885794	-1.349403	1.740944
C	-0.123683	-0.801227	-2.442954
H	-0.441524	-0.426198	-3.419163
H	-0.565441	-1.784973	-2.298865
H	0.963299	-0.908415	-2.453228
Cl	-3.674417	0.0	0.0
