15

C	0.0	0.0	0.0
C	-0.501305	-0.113718	-1.41435
F	1.369192	0.0	0.0
H	-1.565543	-0.352323	-1.355717
H	0.038793	-0.953261	-1.85944
C	-0.434637	1.202044	0.722654
N	-0.583424	2.240791	1.250407
N	-0.346963	-1.238373	0.830918
O	-0.388776	-2.30061	0.223722
O	-0.423131	-1.086379	2.043686
C	-0.27998	1.180142	-2.188363
H	-0.528028	1.023769	-3.240209
H	-0.933892	1.965666	-1.805496
H	0.757002	1.521568	-2.130432
Cl	-3.44859	0.0	0.0
