15

C	0.0	0.0	0.0
C	-0.556047	0.15938	-1.383745
F	1.355587	0.0	0.0
H	-0.134089	-0.645416	-1.987065
H	-1.638775	0.024018	-1.294358
C	-0.432978	1.050229	0.937341
N	-0.622138	1.973921	1.637392
N	-0.350825	-1.365959	0.598665
O	-0.186306	-2.325243	-0.147094
O	-0.633088	-1.403001	1.789624
C	-0.227813	1.530615	-1.965183
H	-0.723532	2.322857	-1.396612
H	0.848231	1.724568	-1.976158
H	-0.595549	1.584825	-2.994149
Cl	-3.571082	0.0	0.0
