15

C	0.0	0.0	0.0
C	-0.545378	0.338307	-1.359752
F	1.35884	0.0	0.0
H	-0.064247	1.283214	-1.636461
H	-0.180414	-0.433323	-2.04192
C	-0.449341	0.921137	1.052999
N	-0.756106	1.739494	1.83722
N	-0.360506	-1.432009	0.432339
O	-0.586736	-2.240773	-0.457295
O	-0.278413	-1.663685	1.633156
C	-2.064381	0.458807	-1.386041
H	-2.43087	1.262296	-0.748479
H	-2.398673	0.666937	-2.403259
H	-2.582555	-0.437798	-1.053447
Cl	-5.120233	0.0	0.0
