16

C	0.0	0.0	0.0
C	-0.568426	0.084424	-1.418764
F	1.347067	0.0	0.0
H	-1.661597	0.211877	-1.31581
N	-0.317146	1.351224	0.732193
O	-0.102975	1.325823	1.939247
O	-0.704698	2.31228	0.080985
N	-0.502099	-1.103553	0.676285
H	-0.197575	-1.067326	1.642596
H	-1.528731	-1.070817	0.627421
N	-0.313387	-1.261013	-2.066277
O	-1.232669	-2.067766	-2.053159
O	0.807019	-1.440227	-2.539827
C	0.064949	1.102419	-2.242064
N	0.561461	1.926915	-2.914685
Cl	-3.464211	0.0	0.0
