16

C	0.0	0.0	0.0
C	-0.522637	0.00159	-1.443257
F	1.355741	0.0	0.0
H	-1.612613	0.158454	-1.41106
N	-0.311328	1.39323	0.637739
O	-0.167254	1.436374	1.855025
O	-0.609311	2.327959	-0.09437
N	-0.525199	-1.060902	0.717657
H	-0.255285	-0.977784	1.691625
H	-1.552468	-1.018849	0.638123
N	-0.275484	-1.39081	-1.991996
O	0.884414	-1.667604	-2.285173
O	-1.246272	-2.128518	-2.092109
C	0.174205	0.939937	-2.310704
N	0.720737	1.663805	-3.056375
Cl	-3.445052	0.0	0.0
