16

C	0.0	0.0	0.0
C	-0.208981	-0.392104	-1.521414
F	1.360026	0.0	0.0
H	0.489179	0.246432	-2.063923
N	-0.339626	1.493229	0.173307
O	-0.904685	1.850167	1.192725
O	0.107471	2.215793	-0.713325
N	-0.5527	-0.736508	1.029749
H	-0.396291	-1.726373	0.874145
H	-1.570579	-0.549888	1.025142
N	-1.517709	-0.188078	-2.259132
O	-1.790704	0.972417	-2.520831
O	-2.107378	-1.190895	-2.63436
C	0.201539	-1.786794	-1.643522
N	0.592533	-2.893672	-1.689047
Cl	-3.462385	0.0	0.0
