11
Coordinates from ORCA-job run
  C   0.99060037424792      0.03830015045136      0.03817838349041
  C   -0.33340729479214     -0.27185919480454     -0.66350608277719
  Br  2.37938659073967     -1.20687429800748     -0.53318058783518
  H   -0.60977644849340     -1.31259640922076     -0.45048972445669
  H   1.32472577512254      1.03740514832127     -0.24274668073776
  H   -0.16502652534774     -0.18354011293248     -1.73882696049464
  C   0.83466560549933     -0.03201336263183      1.48505195298724
  N   0.64420957146138     -0.09482336024227      2.64246850568391
  N   -1.30123563724817      0.72913609830521     -0.24110287677541
  H   -1.73231157858264      0.46250704029852      0.63507074803048
  H   -2.03283043260675      0.83335830046301     -0.93091667711517
