11
Coordinates from ORCA-job run
  C   1.00945285802769     -0.19353237466643     -0.01604186765371
  C   -0.32737519156150     -0.03944831382641     -0.74649975675247
  Br  1.27839167758418     -2.02016312609776      0.60556487964303
  H   -0.36634261462388     -0.79786864849830     -1.53120946984040
  H   1.83995829533650      0.01501896768203     -0.69431767266247
  H   -0.30232305629655      0.94673924585570     -1.23663231922960
  C   1.08159515130336      0.72239866392669      1.11584299643913
  N   1.13439924963731      1.50169077640722      1.99313637196545
  N   -1.43468798648580     -0.23040679785321      0.16773828223209
  H   -1.64833588961895      0.62430560511075      0.66462849508661
  H   -2.26473249330237     -0.52973399804027     -0.32320993922765
