11
Coordinates from ORCA-job run
  C   0.81839013326774     -0.26162281871490      0.22937928457966
  C   -0.50291129426317      0.38548043449975     -0.17970191538010
  Br  0.49504221418335     -1.89034778433721      1.26480832435708
  H   -0.25006958728889      1.31751660208186     -0.69511681145045
  H   1.35338573658344     -0.58408550899235     -0.66526028880138
  H   -1.06070819233726      0.64640605637053      0.73005436834159
  C   1.64070717440069      0.64562443861417      1.01721560252939
  N   2.27922936380600      1.41661622146106      1.63158368081419
  N   -1.20109930510678     -0.48274764489744     -1.11304770565960
  H   -1.65999214240805     -1.23487869705557     -0.61502868437113
  H   -1.91297410083705      0.04103870097011     -1.60488585495923
