11
Coordinates from ORCA-job run
  C   0.96883081523907     -0.24630097163476      0.02519151365556
  C   -0.30229029470698      0.11660007732536     -0.73865759324707
  Br  0.89280747660117     -2.10795364647525      0.62938108093381
  H   -0.36698470879183     -0.55034715767958     -1.61011821270280
  H   1.83853507901391     -0.19710693293817     -0.63357415744526
  H   -0.16554302175129      1.13783721560051     -1.10935855360042
  C   1.18174132704575      0.62545843274677      1.17293937172903
  N   1.38536019082143      1.36014512657824      2.06590052811752
  N   -1.44997336440832      0.09500699924743      0.14692738020642
  H   -2.21607665682230      0.62094216896886     -0.25053960280579
  H   -1.76340684224059     -0.85428131173941      0.30090824515901
