11
Coordinates from ORCA-job run
  C   0.98335735730006     -0.18959069664769     -0.00418194620894
  C   -0.33023141274423      0.09596756287359     -0.72782776732799
  Br  1.03421533296129     -2.05003149651265      0.60842521907767
  H   -0.26500536863161      1.12236661951790     -1.10386770240553
  H   1.82595649919702     -0.09534009242738     -0.69265455930136
  H   -0.38272655700282     -0.57614052796244     -1.59621452431870
  C   1.18277519330122      0.69772394807431      1.13316792755028
  N   1.35363061720949      1.45299158345733      2.01580738054077
  N   -1.44714153088095      0.01076279434208      0.19243552475206
  H   -2.25509540316599      0.48705238067431     -0.18418378467508
  H   -1.69773472754347     -0.95476207538938      0.36009423231681
