11
Coordinates from ORCA-job run
  C   0.97856829748993     -0.16128380481925     -0.01494937547439
  C   -0.46352030539658     -0.50600037191168     -0.39276620753492
  Br  2.04949741404221     -1.78205836128104      0.16133865068590
  H   -0.43561969833883     -1.04700206259148     -1.34096007970933
  H   1.42946799650375      0.43289789595047     -0.81022486282121
  H   -0.87548965821105     -1.18160770225454      0.36798841193047
  C   1.01798719202064      0.59027199603255      1.23261587334492
  N   0.98486337799767      1.20062222701482      2.23573094663566
  N   -1.18374372054624      0.74555076629732     -0.57123237981553
  H   -1.52525855631462      1.09201072516825      0.31629977330717
  H   -1.97775233924687      0.61759869239458     -1.18384075054875
