11
Coordinates from ORCA-job run
  C   0.57752834019883     -0.21479453080326      0.53170889173457
  C   -0.31835009741167      0.31564822206960     -0.60766112311892
  Br  -0.29197912876134      0.02438112465032      2.26654805363134
  H   0.25618076930881      0.21182804614721     -1.53416770461013
  H   0.72598336452101     -1.29233482164184      0.42814911248211
  H   -0.48258110831348      1.38311838814897     -0.44319010863651
  C   1.87039181998410      0.45436479000811      0.54616175629502
  N   2.90250074534494      1.01384811545979      0.49966477021450
  N   -1.59385752528978     -0.33790527200891     -0.77491537742880
  H   -1.48105061552199     -1.32479444937621     -0.96690627734836
  H   -2.16476656405944     -0.23435961265378      0.05360800678517
