11
Coordinates from ORCA-job run
  C   0.99065856619543     -0.04472626412519     -0.01375513584973
  C   -0.38961404545914     -0.24792121689924     -0.64211991508895
  Br  2.23895553690817     -1.40609188648912     -0.64196482653295
  H   -0.74018484966505     -1.26036635010225     -0.40349637984864
  H   1.39142084165768      0.92077233986184     -0.32366770202676
  H   -0.27142371766564     -0.18116591827807     -1.72566762090065
  C   0.90668362186683     -0.09103492028378      1.43992062323918
  N   0.77390384293946     -0.12905331112345      2.60650694541281
  N   -1.24696697808104      0.83371999739457     -0.18170836134612
  H   -1.65121935760525      0.61145997101099      0.71915572597412
  H   -2.00321346109145      0.99340755903369     -0.83320335303230
