11
Coordinates from ORCA-job run
  C   0.97928990976775     -0.19779381027327      0.01307523283531
  C   -0.31455492012543      0.11829076179943     -0.73314788673286
  Br  1.00203576171391     -2.07375546473737      0.57502146798836
  H   -0.23210012477834      1.15359017374427     -1.08004981419818
  H   1.83974250277135     -0.09019894292931     -0.65094592355211
  H   -0.35221087389091     -0.53038056098645     -1.61987009698916
  C   1.15903996912789      0.65786309393057      1.17853045444614
  N   1.33460664623140      1.38152107042767      2.08636090254213
  N   -1.45269484012759      0.01805201355954      0.15922952028198
  H   -1.71487248523313     -0.94940954882599      0.29474172968950
  H   -2.24828154545690      0.51122121429092     -0.22194558631109
