14

C	-0.471827	-0.022458	-1.449188
C	0.0	0.0	0.0
Cl	-2.251308	0.165683	-1.541545
H	1.093404	0.0	0.0
H	-0.351954	0.939384	0.433768
N	0.132939	1.176046	-2.186022
O	-0.112114	2.26949	-1.693477
O	0.804175	0.952181	-3.183665
C	-0.114856	-1.252383	-2.142838
N	0.127448	-2.262406	-2.690258
N	-0.492375	-1.191271	0.671908
H	-1.18306	-0.962953	1.371299
H	0.287762	-1.655257	1.117686
Cl	3.33226	0.0	0.0
