14

C	-0.519324	0.00997	-1.424167
C	0.0	0.0	0.0
Cl	-0.041456	-1.457167	-2.298683
H	1.094882	0.0	0.0
H	-0.346123	-0.926927	0.460225
N	-2.060648	0.009038	-1.388586
O	-2.652303	0.718027	-2.193604
O	-2.576211	-0.738128	-0.567096
C	-0.097794	1.192909	-2.165776
N	0.258018	2.143251	-2.758039
N	-0.540937	1.190305	0.649693
H	-1.077757	0.943367	1.469337
H	0.226537	1.786403	0.93435
Cl	3.392137	0.0	0.0
