14

C	-0.552483	-0.02053	-1.414852
C	0.0	0.0	0.0
Cl	0.169392	1.265396	-2.400052
H	1.091527	0.0	0.0
H	-0.323044	0.950764	0.435345
N	-0.227577	-1.349746	-2.110036
O	-0.900478	-1.612499	-3.10199
O	0.683955	-2.014288	-1.645063
C	-2.008691	0.115963	-1.42598
N	-3.169948	0.28583	-1.373462
N	-0.580847	-1.135661	0.7115
H	0.151015	-1.816421	0.8694
H	-0.93762	-0.843192	1.609608
Cl	3.425271	0.0	0.0
