14

C	-0.507125	0.015122	-1.428153
C	0.0	0.0	0.0
Cl	-0.06525	-1.473271	-2.290725
H	1.093064	0.0	0.0
H	-0.347716	-0.926081	0.461627
N	-2.048824	0.054789	-1.411721
O	-2.612031	0.684465	-2.298089
O	-2.596007	-0.591297	-0.527741
C	-0.051328	1.180461	-2.176529
N	0.326337	2.115748	-2.778448
N	-0.517787	1.202422	0.642587
H	0.254104	1.72509	1.034286
H	-1.167607	0.971794	1.380442
Cl	3.372375	0.0	0.0
