14

C	-0.446792	-0.001296	-1.46592
C	0.0	0.0	0.0
Cl	0.124198	-1.452329	-2.302251
H	1.092952	0.0	0.0
H	-0.355706	-0.935309	0.436977
N	-1.987176	-0.040953	-1.508512
O	-2.515766	-0.941562	-0.870963
O	-2.572503	0.836401	-2.13822
C	-0.014303	1.1949	-2.177235
N	0.354383	2.169216	-2.720835
N	-0.479074	1.135157	0.751343
H	0.034159	1.973448	0.517469
H	-1.473072	1.293053	0.666277
Cl	3.400704	0.0	0.0
