19

C	0.0	0.0	0.0
C	-0.430891	-0.320739	-1.495251
Br	1.955213	0.0	0.0
H	0.410335	-0.877105	-1.918592
C	-0.635516	1.19128	0.646519
H	-0.31986	1.291786	1.684403
H	-0.372836	2.095176	0.097232
H	-1.724231	0.982491	0.579205
N	-0.29604	-1.24717	0.848284
O	-0.013054	-2.335492	0.352628
O	-0.759846	-1.091973	1.971883
C	-0.602984	0.995392	-2.245966
H	-0.7248	0.763216	-3.30563
H	0.242358	1.678837	-2.121403
H	-1.522988	1.467388	-1.894083
N	-1.622899	-1.103204	-1.684714
H	-2.394451	-0.689443	-1.091805
H	-1.447649	-2.043586	-1.355884
F	-3.188609	0.0	0.0
