19

C	0.0	0.0	0.0
C	-0.427902	-0.01513	-1.527545
Br	1.955287	0.0	0.0
H	0.403504	-0.498816	-2.048214
C	-0.635203	1.04045	0.86971
H	-1.724567	0.856407	0.760488
H	-0.323669	0.929212	1.908026
H	-0.365205	2.034824	0.514233
N	-0.300604	-1.391731	0.580078
O	-0.018541	-2.35875	-0.123387
O	-0.769148	-1.463948	1.709499
C	-0.561271	1.425276	-2.010491
H	-1.472062	1.847274	-1.580168
H	-0.677923	1.404443	-3.095876
H	0.300036	2.049004	-1.752221
N	-1.636046	-0.717271	-1.864255
H	-1.486453	-1.708175	-1.723754
H	-2.406813	-0.416455	-1.202693
F	-3.215768	0.0	0.0
