19

C	0.0	0.0	0.0
C	-0.295072	-0.012574	-1.557526
Br	1.954795	0.0	0.0
H	0.486658	0.675513	-1.917089
C	-0.617272	1.189776	0.671379
H	-1.712146	0.989765	0.590879
H	-0.332705	2.095151	0.130175
H	-0.299926	1.269191	1.711915
N	-0.387944	-1.27224	0.757751
O	0.026331	-2.343626	0.326642
O	-1.040152	-1.132836	1.784082
C	-1.619522	0.560098	-2.038155
H	-1.656167	0.401563	-3.124092
H	-2.4681	0.120022	-1.483883
H	-1.651515	1.639583	-1.862661
N	-0.132706	-1.346816	-2.138279
H	0.745181	-1.760489	-1.848361
H	-0.107076	-1.223696	-3.143968
F	-3.160441	0.0	0.0
