19

C	0.0	0.0	0.0
C	-0.248656	-0.111352	-1.57537
Br	1.959391	0.0	0.0
H	0.418946	0.67785	-1.940022
C	-0.629415	1.216929	0.60134
H	-1.726126	0.980401	0.516293
H	-0.310291	1.356203	1.635253
H	-0.360547	2.090108	0.003567
N	-0.428691	-1.208847	0.815222
O	-0.266917	-1.123362	2.027843
O	-0.883449	-2.187606	0.237795
C	-1.630495	0.213048	-2.121857
H	-1.540048	0.111701	-3.208391
H	-1.923343	1.234345	-1.876023
H	-2.409732	-0.399004	-1.666798
N	0.205925	-1.347146	-2.212253
H	1.139197	-1.581422	-1.893713
H	-0.414697	-2.084613	-1.905721
F	-3.062303	0.0	0.0
