19

C	0.0	0.0	0.0
C	-0.441408	0.080671	-1.524962
Br	1.955245	0.0	0.0
H	0.40812	-0.3174	-2.087323
C	-0.629741	0.978626	0.942315
H	-0.308082	0.799709	1.96789
H	-1.71908	0.79771	0.828362
H	-0.365791	1.995218	0.65097
N	-0.294219	-1.427388	0.491951
O	0.015883	-2.34822	-0.260336
O	-0.787239	-1.57137	1.604411
C	-0.660947	1.543794	-1.893252
H	-0.800908	1.598626	-2.974618
H	-1.583909	1.874828	-1.412734
H	0.171423	2.192699	-1.604125
N	-1.615958	-0.655956	-1.909712
H	-2.389249	-0.419979	-1.229244
H	-1.418309	-1.645141	-1.835517
F	-3.176448	0.0	0.0
