19

C	0.0	0.0	0.0
C	-0.63505	-0.133307	-1.432932
Br	1.94153	0.0	0.0
H	-1.448683	-0.833553	-1.248618
C	-0.516924	1.153722	0.816885
H	-0.246524	2.09374	0.333684
H	-0.094667	1.133731	1.819907
H	-1.608779	0.999969	0.820567
N	-0.311376	-1.303087	0.760813
O	-0.517784	-1.237221	1.96634
O	-0.28402	-2.345326	0.113257
C	0.290351	-0.676731	-2.509711
H	1.075431	0.036945	-2.779276
H	0.757181	-1.613807	-2.20156
H	-0.323693	-0.855674	-3.394816
N	-1.337354	1.054176	-1.883764
H	-2.158234	1.055693	-1.259334
H	-0.780676	1.891586	-1.757028
F	-2.932035	0.0	0.0
