14

C	-0.378707	-0.109577	-1.481873
C	0.0	0.0	0.0
F	-1.741156	0.264538	-1.610986
H	1.090733	0.0	0.0
H	-0.365404	-0.851664	0.580015
N	0.35321	0.779172	-2.341343
H	0.126901	1.732447	-2.081624
H	1.345016	0.640559	-2.145577
N	-0.164706	-1.433324	-1.932316
H	-0.331127	-1.465736	-2.930152
H	-0.767526	-2.085903	-1.449439
C	-0.499255	1.239117	0.582089
N	-0.930627	2.235376	1.029059
Br	3.527361	0.0	0.0
