14

C	-0.408202	0.041156	-1.483479
C	0.0	0.0	0.0
F	-0.242128	-1.292399	-1.924667
H	1.094115	0.0	0.0
H	-0.362103	-0.923759	0.455694
N	-1.77792	0.352378	-1.80692
H	-2.390044	-0.295648	-1.326136
H	-1.976868	1.290196	-1.483009
N	0.430455	0.95431	-2.151133
H	0.290132	0.884003	-3.149425
H	1.405902	0.804298	-1.905179
C	-0.524612	1.151684	0.717618
N	-1.006294	2.063607	1.278735
Br	3.528256	0.0	0.0
