14

C	-0.396754	-0.061416	-1.471306
C	0.0	0.0	0.0
F	-0.115834	1.2373	-2.011458
H	1.092471	0.0	0.0
H	-0.334272	-0.922413	0.478956
N	0.404399	-1.040882	-2.109004
H	0.323807	-0.951285	-3.114986
H	1.378915	-0.897611	-1.847909
N	-1.792623	-0.323602	-1.65225
H	-1.987316	-0.412811	-2.642548
H	-2.307873	0.479551	-1.311336
C	-0.580378	1.149214	0.675537
N	-1.10403	2.062957	1.194584
Br	3.533085	0.0	0.0
