14

C	-0.308067	0.008261	-1.499947
C	0.0	0.0	0.0
F	-1.688187	0.054752	-1.685866
H	1.094429	0.0	0.0
H	-0.367208	0.917363	0.464274
N	0.272323	1.194666	-2.046919
H	1.215204	1.302522	-1.681417
H	0.335239	1.06979	-3.050739
N	0.132154	-1.17735	-2.201061
H	1.133015	-1.272293	-2.042952
H	-0.324578	-1.995073	-1.810166
C	-0.544094	-1.172026	0.662431
N	-0.986577	-2.135684	1.166412
Br	3.477804	0.0	0.0
