14

C	-0.379705	0.12961	-1.470608
C	0.0	0.0	0.0
F	-1.745979	0.491166	-1.577076
H	1.091377	0.0	0.0
H	-0.350992	-0.9484	0.413337
N	0.375315	1.19731	-2.035388
H	1.35158	1.078355	-1.776715
H	0.292267	1.210598	-3.044628
N	-0.193013	-1.134684	-2.118045
H	-0.415025	-1.045289	-3.102313
H	-0.81288	-1.82736	-1.713904
C	-0.5223	1.100787	0.798231
N	-0.958805	1.956015	1.473047
Br	3.532148	0.0	0.0
