17

C	0.0	0.0	0.0
C	-0.535923	0.115834	-1.440522
Br	1.955821	0.0	0.0
H	-1.611097	0.316499	-1.24024
C	-0.331976	1.198677	0.805771
N	-0.514329	2.065065	1.580768
N	-0.554051	-1.193771	0.56578
H	-1.590681	-0.959989	0.475363
H	-0.315577	-1.213392	1.552825
C	-0.338148	-1.139678	-2.25413
H	-0.901801	-1.939127	-1.777543
H	-0.718788	-0.983187	-3.26506
H	0.713132	-1.423987	-2.319473
N	0.055239	1.304183	-2.121098
O	0.80566	1.124988	-3.083425
O	-0.256416	2.412194	-1.68303
F	-2.772561	0.0	0.0
