17

C	0.0	0.0	0.0
C	-0.523662	0.135575	-1.44489
Br	1.955971	0.0	0.0
H	-1.602428	0.320522	-1.255165
C	-0.336172	1.181318	0.828498
N	-0.483799	2.015573	1.644942
N	-0.556034	-1.203588	0.541083
H	-0.325695	-1.238188	1.530046
H	-1.593476	-0.963571	0.447648
C	-0.298219	-1.100618	-2.28148
H	-0.820025	-1.927859	-1.804679
H	-0.704857	-0.944307	-3.28217
H	0.761434	-1.343295	-2.372023
N	0.05486	1.345936	-2.098951
O	-0.24733	2.438454	-1.616972
O	0.780702	1.200946	-3.085266
F	-2.765139	0.0	0.0
