17

C	0.0	0.0	0.0
C	-0.36126	0.324766	-1.502459
Br	2.043659	0.0	0.0
H	0.516483	0.094744	-2.11065
C	-0.358327	1.113543	0.886107
N	-0.502681	2.026286	1.612075
N	-0.406877	-1.214786	0.610131
H	-1.445487	-1.051061	0.595137
H	-0.193679	-1.973883	-0.026216
C	-0.803287	1.75445	-1.703925
H	-0.956679	1.96124	-2.763421
H	-0.038017	2.432907	-1.318923
H	-1.73911	1.881356	-1.157279
N	-1.378745	-0.622849	-2.092667
O	-2.285556	-0.163467	-2.772331
O	-1.122487	-1.823537	-1.99417
F	-2.500259	0.0	0.0
