17

C	0.0	0.0	0.0
C	-0.510591	0.040166	-1.469503
Br	1.964724	0.0	0.0
H	-1.573506	0.302293	-1.29873
C	-0.357297	1.245144	0.706988
N	-0.541929	2.22456	1.328624
N	-0.536801	-1.085463	0.756806
H	-0.297454	-1.955701	0.293876
H	-1.574182	-0.879118	0.639682
C	-0.384127	-1.285111	-2.184347
H	-0.634596	-1.16172	-3.238223
H	-1.105738	-1.975017	-1.74703
H	0.625948	-1.697001	-2.12246
N	0.146169	1.131921	-2.242443
O	-0.107262	2.286899	-1.898695
O	0.901956	0.835005	-3.171678
F	-2.738589	0.0	0.0
