17

C	0.0	0.0	0.0
C	-0.35305	0.550284	-1.435544
Br	2.042604	0.0	0.0
H	0.510346	0.363515	-2.079905
C	-0.365258	0.954604	1.05203
N	-0.499712	1.730693	1.924232
N	-0.40357	-1.300555	0.400331
H	-1.441628	-1.138888	0.413164
H	-0.197311	-1.941706	-0.357941
C	-0.70854	2.015713	-1.423683
H	-1.623949	2.137992	-0.844735
H	-0.865294	2.378532	-2.440859
H	0.106441	2.584301	-0.968086
N	-1.420309	-0.249191	-2.150914
O	-2.317825	0.351804	-2.724139
O	-1.201469	-1.455934	-2.265938
F	-2.494337	0.0	0.0
