17

C	0.0	0.0	0.0
C	-0.189614	-0.065106	-1.589427
Br	1.986496	0.0	0.0
H	0.453413	0.70928	-2.008183
C	-0.368958	1.375181	0.374967
N	-0.578342	2.492194	0.673263
N	-0.63917	-0.916468	0.836994
H	-0.500263	-1.845354	0.454028
H	-1.687683	-0.625165	0.668162
C	-1.569433	0.042904	-2.210221
H	-1.440031	-0.041896	-3.296204
H	-2.007473	1.005122	-1.957794
H	-2.250987	-0.695651	-1.805479
N	0.405389	-1.334727	-2.122289
O	0.059248	-2.399879	-1.610256
O	1.157847	-1.242613	-3.091806
F	-2.840241	0.0	0.0
