17

C	0.0	0.0	0.0
C	-0.306564	0.226887	-1.520103
Br	2.041599	0.0	0.0
H	0.471467	-0.303927	-2.071984
C	-0.359096	1.145715	0.837073
N	-0.48621	2.075313	1.544457
N	-0.361293	-1.253326	0.563541
H	-1.10848	-1.035754	1.220709
H	-0.85471	-1.751461	-0.165668
C	-0.326292	1.691295	-1.886477
H	-1.196324	2.15365	-1.415012
H	-0.404366	1.811819	-2.966721
H	0.593226	2.171897	-1.537269
N	-1.559066	-0.452635	-2.049465
O	-1.545018	-1.684451	-1.995355
O	-2.365108	0.207897	-2.685276
F	-2.420517	0.0	0.0
