16

C	0.0	0.0	0.0
C	-0.497863	0.056471	-1.461373
F	1.40642	0.0	0.0
H	-1.61161	0.086991	-1.328377
N	-0.46242	1.181817	0.638983
H	-1.491309	1.148248	0.53886
H	-0.255027	1.071789	1.624493
N	-0.436533	-1.190395	0.655462
H	-0.138265	-2.016416	0.145855
H	-1.466976	-1.12526	0.641247
C	-0.067198	-1.105556	-2.219446
N	0.220929	-2.089168	-2.794701
N	-0.046854	1.301315	-2.158551
O	1.035576	1.263792	-2.745754
O	-0.783441	2.277989	-2.083377
H	-2.917044	0.0	0.0
