18

C	-0.309323	-0.049821	-1.498059
C	0.0	0.0	0.0
F	-0.131492	1.231344	-2.048923
H	1.100946	0.0	0.0
C	0.671176	-0.98767	-2.178627
H	1.657429	-0.728995	-1.768293
H	0.435355	-2.017645	-1.911912
H	0.624761	-0.865414	-3.264348
C	-1.723732	-0.402621	-1.757043
N	-2.85054	-0.685113	-1.936338
N	-0.403602	-1.298065	0.555288
H	-1.239966	-1.212778	1.123254
H	0.354415	-1.623068	1.140287
C	-0.607553	1.197602	0.700937
H	-0.278153	1.204763	1.744099
H	-1.706886	1.167885	0.684297
H	-0.278554	2.128136	0.236566
F	2.709127	0.0	0.0
