18

C	-0.495386	0.009438	-1.437281
C	0.0	0.0	0.0
F	-0.019741	-1.147872	-2.071085
H	1.101922	0.0	0.0
C	-2.007518	-0.005361	-1.595343
H	-2.389992	-0.816913	-0.976337
H	-2.44325	0.940985	-1.269266
H	-2.269006	-0.173047	-2.642797
C	0.068224	1.164335	-2.167951
N	0.42086	2.113589	-2.763079
N	-0.51019	-1.246375	0.622693
H	0.169769	-1.957343	0.36997
H	-0.396632	-1.126755	1.624193
C	-0.499047	1.205931	0.774538
H	0.04571	1.253353	1.721739
H	-0.286603	2.136966	0.243342
H	-1.5739	1.152605	0.989359
F	2.665373	0.0	0.0
