18

C	-0.367495	0.046271	-1.464199
C	0.0	0.0	0.0
F	-1.773897	0.140912	-1.643341
H	1.096568	0.0	0.0
C	0.297386	1.214692	-2.168031
H	1.35052	1.189688	-1.875308
H	0.181246	1.140675	-3.251326
H	-0.165808	2.144096	-1.830208
C	0.034834	-1.214485	-2.122977
N	0.391457	-2.163183	-2.715061
N	-0.495949	-1.248948	0.576503
H	0.141402	-1.526128	1.312799
H	-1.417146	-1.117965	0.98062
C	-0.470734	1.243041	0.750577
H	-0.21462	1.118604	1.806345
H	-1.555177	1.39221	0.669144
H	0.040691	2.144169	0.404314
F	2.664974	0.0	0.0
