18

C	-0.51735	0.02796	-1.434201
C	0.0	0.0	0.0
F	0.022436	-1.063331	-2.121897
H	1.098097	0.0	0.0
C	-2.027466	-0.088577	-1.561465
H	-2.304191	-0.215827	-2.610383
H	-2.328487	-0.964438	-0.986276
H	-2.524214	0.801679	-1.170022
C	-0.059912	1.24607	-2.13708
N	0.210681	2.232453	-2.714139
N	-0.452271	-1.273746	0.603353
H	-0.764376	-1.094677	1.551417
H	0.385521	-1.841719	0.679512
C	-0.487717	1.193716	0.80214
H	-1.562265	1.143407	1.028771
H	-0.285438	2.136259	0.287889
H	0.067367	1.217267	1.744011
F	2.655248	0.0	0.0
