18

C	-0.505114	0.004979	-1.435373
C	0.0	0.0	0.0
F	-0.009524	-1.13903	-2.077393
H	1.101926	0.0	0.0
C	-2.017825	-0.041836	-1.581035
H	-2.283159	-0.205694	-2.628496
H	-2.375965	-0.868037	-0.967007
H	-2.471753	0.891949	-1.243601
C	0.023715	1.172849	-2.170532
N	0.362493	2.123065	-2.770131
N	-0.497034	-1.252081	0.623648
H	-0.489763	-1.098052	1.627219
H	0.238589	-1.93205	0.454986
C	-0.498223	1.204354	0.775816
H	0.042365	1.245942	1.726292
H	-1.575133	1.157464	0.986116
H	-0.2791	2.136691	0.248612
F	2.660292	0.0	0.0
