18

C	-0.317197	-0.061563	-1.496173
C	0.0	0.0	0.0
F	-0.098403	1.203455	-2.067299
H	1.096512	0.0	0.0
C	0.624411	-1.04143	-2.167254
H	0.366484	-2.057063	-1.867621
H	1.623001	-0.797934	-1.783634
H	0.565115	-0.944466	-3.254111
C	-1.744883	-0.366141	-1.734137
N	-2.881491	-0.622366	-1.888263
N	-0.421132	-1.279327	0.579768
H	0.29161	-1.567278	1.239352
H	-1.301372	-1.182108	1.074438
C	-0.590558	1.217786	0.682855
H	-1.689989	1.205222	0.664646
H	-0.244833	2.13744	0.208872
H	-0.264271	1.232123	1.726965
F	2.707271	0.0	0.0
