13
Coordinates from ORCA-job run
  C   0.30502166589454     -0.13635170960298      0.01149830007882
  C   -0.69247269452746      0.76531749635663     -0.20632714737940
  H   -0.50306916974179      1.80059702530222     -0.44292199818332
  C   1.72989498045528      0.32584894147353     -0.09562753270214
  H   2.25794170656877      0.14567461973103      0.84556691457578
  H   1.79049920244319      1.38901459717437     -0.32277733316779
  H   2.24521138204867     -0.23051431076297     -0.88265315996805
  N   0.13910707682633     -1.46122533026765      0.24655995948452
  H   0.91308485389096     -1.97011307434879      0.63707511422410
  H   -0.79617319588230     -1.77448155823165      0.45745068918830
  N   -2.08296106404015      0.46095368656800     -0.10956173340708
  O   -2.43471196384778     -0.70015335039598      0.15881736138968
  O   -2.87337278008825      1.38743296700425     -0.29809943413343
