13
Coordinates from ORCA-job run
  C   0.17506224902183     -0.42671244180101      0.15204535822388
  C   -1.09061493588457      0.05332934184407      0.24521670581677
  H   -1.89298136806512     -0.48359885680162      0.73401175750600
  C   1.33214126823970      0.27215412239001     -0.50135460106138
  H   1.14016436678197      0.41010389028805     -1.56533303594638
  H   2.24520959729926     -0.31440813729290     -0.38221249135617
  H   1.47694265919163      1.26675923751051     -0.08279222485898
  N   0.45103459722833     -1.69440491076364      0.61129168197561
  H   1.39847247547240     -1.86567695500596      0.90465358882133
  H   -0.24308876126479     -2.13003222847741      1.19870977883772
  N   -1.53239127529730      1.30284411917230     -0.29837320957438
  O   -0.74409637407896      2.01765983717157     -0.92482865864730
  O   -2.71485449864440      1.58998298176602     -0.09203464973670
