13
Coordinates from ORCA-job run
  C   0.30195848936119     -0.11903191555661      0.08257765635555
  C   -0.68413126054365      0.75231285788723     -0.26927356615240
  H   -0.48538983746040      1.76103606072879     -0.59593147958611
  C   1.72866260070155      0.34647303160879      0.02544263618193
  H   2.18239394317808      0.28230647615634      1.01765620811796
  H   2.30746544966412     -0.28896596874288     -0.65161753116184
  H   1.80109135156021      1.37443420502571     -0.32623669744909
  N   0.11776531550059     -1.37293462228478      0.56480405498065
  H   -0.81008445821495     -1.76032841517409      0.48370282045385
  H   0.90087573941388     -2.00303985012644      0.54405662358791
  N   -2.07325737893628      0.42674660021034     -0.28436142228319
  O   -2.43705206983623     -0.70779940428098      0.06834788215445
  O   -2.85029788438812      1.30679094454858     -0.65916718519965
