13
Coordinates from ORCA-job run
  C   0.29944393806367     -0.14803663846158      0.01242990804224
  C   -0.66573176643320      0.78051828677071     -0.23577236823556
  H   -0.44086155240178      1.79345772822615     -0.53082038252173
  C   1.73905262019447      0.24908067003847     -0.14669516752551
  H   1.83658906441784      1.29205389101550     -0.44388521025570
  H   2.27631682194566      0.10947458251267      0.79618920567251
  H   2.21855398582660     -0.37697623580582     -0.90342410216799
  N   0.08630860987846     -1.44995309581659      0.32357638671568
  H   -0.85572746003657     -1.71362052941652      0.56930929727894
  H   0.84829088210226     -1.96975588031605      0.72317468347977
  N   -2.06450980184247      0.53892133336208     -0.09370040738926
  O   -2.45608871436434     -0.59040611710781      0.24592508261553
  O   -2.82163662735060      1.48524200499879     -0.31730692570891
