13
Coordinates from ORCA-job run
  C   0.18214247479056     -0.40405519686120      0.12335576904062
  C   -1.11009633687547      0.00075211631933      0.05254427196108
  H   -1.92827470349779     -0.64032393367237      0.35485443589208
  C   1.40885015124906      0.37010489389201     -0.25411485384022
  H   2.05750277979896      0.46883002611938      0.62238613567968
  H   1.96012580312391     -0.18899530982444     -1.01451809164444
  H   1.16839030183390      1.35644307206483     -0.63007114331939
  N   0.45348853434396     -1.69836857635137      0.51746384796228
  H   -0.28973044933154     -2.20160158787700      0.97660538596833
  H   1.35895275981139     -1.84766673032868      0.93262795604685
  N   -1.60190428303032      1.26220643766039     -0.43452764427495
  O   -2.82860084898411      1.39356604189521     -0.39245557515048
  O   -0.83184618323252      2.12910874696389     -0.85215049432142
