13
Coordinates from ORCA-job run
  C   0.18645738478835     -0.40651373626803      0.18989765724593
  C   -1.10362851422140      0.01386217846308      0.18570100701123
  H   -1.90488852610282     -0.52745431780474      0.67146946448339
  C   1.34205920667805      0.30480718737353     -0.45242696663831
  H   1.41733653195703      1.33094968607521     -0.09616589567869
  H   1.20034375433881      0.36245577512873     -1.53149830714889
  H   2.27426954128671     -0.22541775790270     -0.24799948569074
  N   0.49745285096934     -1.62326118364751      0.75239904516405
  H   1.43540889625007     -1.72634511616191      1.10246373323604
  H   -0.20539826747810     -2.05228910253555      1.33417698654584
  N   -1.57440969512551      1.19940715744268     -0.46610192870104
  O   -2.77828701701149      1.43990202369547     -0.33902856585627
  O   -0.78871614632903      1.90889720614174     -1.10188674397253
