13
Coordinates from ORCA-job run
  C   0.19816338280898     -0.41050395869651      0.16775012109541
  C   -1.06762894824381      0.04964852116894      0.33184598057735
  H   -1.83541985866543     -0.50116054380800      0.85921738477849
  C   1.30160639341166      0.30005430139678     -0.56139842580080
  H   1.54192948531429      1.23990400478942     -0.06468619801044
  H   2.19850704326881     -0.32188211848486     -0.58967483344912
  H   0.99948278296536      0.55571792148184     -1.57571184278041
  N   0.57079971488130     -1.58948124114765      0.77214913539543
  H   1.31980551412639     -2.09800671085499      0.33233403196216
  H   -0.16887200866382     -2.17666583531677      1.12533119829560
  N   -1.54463803809905      1.31452196177323     -0.14281509764101
  O   -0.77814781549935      2.08213415242544     -0.73279459893357
  O   -2.73458764760532      1.55671954527310      0.07745314451093
