13
Coordinates from ORCA-job run
  C   0.18247653252960     -0.44974032464759     -0.00780663745739
  C   -1.05211127117741     -0.02804043428305     -0.38140267233010
  H   -1.80235326012065     -0.68864422171045     -0.79594075973284
  C   1.26917296306602      0.41546048403185      0.56185827244090
  H   2.17946575881697     -0.16850536544040      0.71132020973592
  H   0.95887771429506      0.83247346938213      1.51996820297667
  H   1.47793193624475      1.26250808376680     -0.08942194521195
  N   0.48309836797594     -1.79084362587646     -0.06662274967706
  H   1.45454169670991     -2.02791312736450     -0.18006139274902
  H   -0.14619670551362     -2.38119083984340     -0.58806369392757
  N   -1.52884249361775      1.31681750678104     -0.25532078243539
  O   -2.67095404623906      1.52348477522107     -0.67469555507217
  O   -0.80610719296975      2.18413361998294      0.24518950344000
