13
Coordinates from ORCA-job run
  C   0.30812706625693     -0.10648527263087      0.07426765342705
  C   -0.70310508636888      0.66324304882585     -0.41675906768607
  H   -0.53638859133524      1.48114049758151     -1.10006603028568
  C   1.71849955414057      0.21261203431887     -0.33188657869571
  H   2.30927391254417      0.48102744548643      0.54767262068565
  H   1.75395636161186      1.03818383917396     -1.04095634897849
  H   2.18539796081266     -0.66019407810670     -0.79796157232720
  N   0.17453119724171     -1.10789673123711      0.97736537200484
  H   0.93680177967372     -1.75434394426651      1.08337246481367
  H   -0.76128600656594     -1.43058992003531      1.17052611774778
  N   -2.08395150080066      0.44992904669473     -0.12956099773556
  O   -2.41066921320170     -0.47034374450522      0.63891206273325
  O   -2.89218743400919      1.20371777870038     -0.67492569570352
