13
Coordinates from ORCA-job run
  C   0.30298113436308     -0.14164893164727     -0.01771082677806
  C   -0.67366823096459      0.80800038711102     -0.00870217920437
  H   -0.46199435197896      1.86365000705949      0.05786964997513
  C   1.73683550225692      0.29912392321234      0.05274053347128
  H   2.22696706736693     -0.14530582211723      0.92414402099044
  H   2.27382336475307     -0.03061230605712     -0.84027444929793
  H   1.81981649994645      1.38203895378518      0.13008317867283
  N   0.11044732872831     -1.47557479725874     -0.16324522250401
  H   0.86292926277876     -2.09042312922983      0.09393567443212
  H   -0.83630369076178     -1.81275632550379     -0.07745512071021
  N   -2.07071132984030      0.52098306833952     -0.04263586751391
  O   -2.84133677513147      1.48122531280860      0.01037237195038
  O   -2.44778578151642     -0.66070034050217     -0.11812176348370
