13
Coordinates from ORCA-job run
  C   0.19737285337684     -0.44293375462895      0.02459827647778
  C   -1.10552059842152     -0.10156812917149     -0.13978197466089
  H   -1.90442085375269     -0.82831878634694     -0.20764232122108
  C   1.34775122485868      0.51549725796678      0.13267381323481
  H   2.27687337911616     -0.02702956477189      0.31819579642775
  H   1.18096324018045      1.24061077678317      0.92752544147479
  H   1.45315204378896      1.08677396862481     -0.78951065216033
  N   0.55152484501505     -1.77267584907988      0.01818688825758
  H   1.38698820029111     -2.01458512454124      0.52464027226253
  H   -0.19327830931137     -2.44550827189704      0.11391287982810
  N   -1.58758991827388      1.24083947026089     -0.27240250062186
  O   -2.81000467994761      1.36318110263756     -0.39058075158696
  O   -0.79381142692019      2.18671690416423     -0.26081516771221
