13
Coordinates from ORCA-job run
  C   0.31351012918047     -0.10514537210981      0.05163577531313
  C   -0.76827870128144      0.46321177165829     -0.55024363528042
  H   -0.68737630571158      1.09937941924135     -1.41768239455905
  C   1.67581025773900      0.14648688238248     -0.52813939588630
  H   1.62748382711984      0.80378030236829     -1.39487737217876
  H   2.32485134007099      0.61220093032489      0.21953922500608
  H   2.13409147112961     -0.79860221427456     -0.83015993010357
  N   0.27721122623730     -0.95953512702338      1.10377248944177
  H   -0.59936414724582     -1.04000278709604      1.59630861903943
  H   1.12884866559718     -1.11122721161802      1.61584413421978
  N   -2.10880558296541      0.32927960016722     -0.08098580641662
  O   -2.98275471280418      0.93790268535697     -0.70109146862929
  O   -2.33722746706596     -0.37772887937768      0.91507976003382
