13
Coordinates from ORCA-job run
  C   0.29505330798853     -0.14962109332295      0.05034904418138
  C   -0.62611741672957      0.80591438105416     -0.25621440460902
  H   -0.37164912069426      1.84809868186689     -0.36924153809173
  C   1.72954096737417      0.26094576674354      0.22035432272138
  H   1.85703738928748      1.33466881775237      0.09208268796937
  H   2.35565608962074     -0.25606888777250     -0.51120052087188
  H   2.08491527368256     -0.00959010599252      1.21919315601483
  N   0.05520547989479     -1.48039651740250      0.14560890604727
  H   0.73823040534581     -2.04963391277423      0.61449730568440
  H   -0.91045467931146     -1.77052046273352      0.17066863712375
  N   -2.02102478018392      0.55244091219211     -0.41522388333558
  O   -2.74280569027718      1.52240146930620     -0.65366832069912
  O   -2.44458722599769     -0.61063904891706     -0.30620539213506
