13
Coordinates from ORCA-job run
  C   0.31992052073096     -0.04752861238822      0.10243934326869
  C   -0.75657797222161      0.33016768029582     -0.63915227839054
  H   -0.68471924966875      0.92241129973870     -1.53857021082881
  C   1.69349517058729      0.23946879449300     -0.44051957520564
  H   2.40676174955539      0.40157368781925      0.37219136775718
  H   2.04189132588206     -0.59457762769473     -1.05163521467549
  H   1.68891745609618      1.14662602043974     -1.04580664452550
  N   0.27891802670371     -0.80579873018639      1.23029224334895
  H   -0.61400711672734     -0.87745107503114      1.69480886495889
  H   1.09429389519146     -0.79347862450414      1.81970274365643
  N   -2.11867166241397      0.07873043422448     -0.26974612994481
  O   -2.98604563338043      0.46440656915892     -1.05344485302413
  O   -2.36417651033493     -0.46354981636528      0.81944034360478
