13
Coordinates from ORCA-job run
  C   0.30971909432856     -0.11987482367774      0.03852609150968
  C   -0.73604834406178      0.60862484493470     -0.44232262977682
  H   -0.60760264164874      1.44167672910457     -1.11553856646743
  C   1.70099807369132      0.24339172782727     -0.39484685943719
  H   1.70111662066020      1.10168071017523     -1.06489352120982
  H   2.16515175124276     -0.60215984641145     -0.90873843221005
  H   2.31653345003717      0.48803063091189      0.47603102101720
  N   0.21480028860768     -1.21596478384807      0.83071718186163
  H   -0.68452543761486     -1.40262815855704      1.24748662315512
  H   1.03990846771146     -1.51466170168165      1.32112605379913
  N   -2.09978350681221      0.38147935079250     -0.09050846873473
  O   -2.93817314126148      1.14095518421465     -0.57950342951073
  O   -2.38209467488008     -0.54954986378484      0.68246493600400
