16

C	0.0	0.0	0.0
C	-0.402961	0.108927	-1.488566
Cl	1.78313	0.0	0.0
H	0.215437	0.893586	-1.92787
H	-0.081019	-0.83931	-1.935359
N	-0.362161	1.29979	0.724079
O	-0.539098	1.241418	1.935606
O	-0.395397	2.324179	0.048434
C	-0.602372	-1.165788	0.731147
H	-1.691521	-1.044576	0.731878
H	-0.249033	-1.214628	1.759462
H	-0.338394	-2.086428	0.206934
N	-1.773753	0.362474	-1.816937
H	-2.436821	-0.287958	-1.407125
H	-2.066165	1.270916	-1.483919
Br	-4.524155	0.0	0.0
