16

C	0.0	0.0	0.0
C	-0.571824	0.063428	-1.407588
Cl	1.759008	0.0	0.0
H	-1.660889	0.114364	-1.273419
H	-0.33276	-0.905245	-1.856954
N	-0.386847	1.26389	0.783134
O	-0.164498	1.253676	1.98891
O	-0.852528	2.20937	0.157938
C	-0.54193	-1.192717	0.756424
H	-0.215514	-2.105481	0.256133
H	-1.6352	-1.13192	0.749504
H	-0.171071	-1.189308	1.779817
N	-0.006661	1.117082	-2.246678
H	-0.526268	1.966499	-2.065841
H	-0.159994	0.862329	-3.213749
Br	-4.034112	0.0	0.0
