16

C	-0.351375	0.100847	-1.451875
C	0.0	0.0	0.0
Cl	-2.034466	0.687743	-1.744103
H	1.096697	0.0	0.0
H	-0.29561	0.969064	0.418288
N	0.661594	1.051227	-2.00142
O	1.808988	0.470347	-2.10918
O	0.48321	2.253771	-1.676621
N	-0.16706	-1.126327	-2.334368
O	-0.352291	-0.993197	-3.53852
O	0.220907	-2.155408	-1.778725
C	-0.57767	-1.132127	0.827937
H	-0.390501	-0.914873	1.881335
H	-1.658156	-1.236927	0.692586
H	-0.100444	-2.080625	0.589358
H	2.609034	0.0	0.0
