16

C	-0.493691	0.082106	-1.398869
C	0.0	0.0	0.0
Cl	0.202977	1.405725	-2.306924
H	1.096379	0.0	0.0
H	-0.33428	-0.956166	0.410623
N	-0.249717	-1.209788	-2.193421
O	0.342293	-2.120112	-1.632085
O	-0.685171	-1.214413	-3.340422
N	-2.027779	0.191738	-1.415326
O	-2.549337	1.284366	-1.598197
O	-2.610378	-0.848553	-1.109913
C	-0.476086	1.162543	0.861274
H	-1.55537	1.150967	1.047102
H	0.043204	1.102797	1.820553
H	-0.211565	2.120411	0.409565
H	2.7724	0.0	0.0
