16

C	-0.507952	0.07356	-1.389359
C	0.0	0.0	0.0
Cl	-2.299145	0.065137	-1.548408
H	1.091637	0.0	0.0
H	-0.31511	-0.95861	0.417223
N	0.047348	1.326423	-2.058042
O	-0.620755	2.352052	-1.983754
O	1.1791	1.209013	-2.509717
N	-0.035414	-1.091095	-2.256429
O	0.434698	-2.061897	-1.679586
O	-0.20485	-0.967011	-3.464128
C	-0.443011	1.165399	0.874609
H	-0.050301	0.994335	1.879806
H	-1.528305	1.280998	0.931036
H	-0.009418	2.102835	0.521266
H	2.769863	0.0	0.0
