16

C	-0.460809	0.126559	-1.407379
C	0.0	0.0	0.0
Cl	0.187426	-1.110401	-2.460619
H	1.095238	0.0	0.0
H	-0.330912	0.893926	0.533907
N	-1.995905	0.110245	-1.472115
O	-2.567136	-0.944951	-1.717132
O	-2.533897	1.164625	-1.140906
N	-0.117789	1.497616	-2.012438
O	-0.423198	1.649876	-3.190348
O	0.402745	2.326059	-1.280459
C	-0.490169	-1.266604	0.686091
H	-0.021115	-1.313578	1.671488
H	-1.576553	-1.30092	0.816038
H	-0.177975	-2.155612	0.136069
H	2.77404	0.0	0.0
