16

C	-0.50406	-0.007003	-1.372418
C	0.0	0.0	0.0
Cl	-2.359125	0.038203	-1.545559
H	1.102684	0.0	0.0
H	-0.272095	0.964741	0.437284
N	0.015416	1.195499	-2.14073
O	0.842283	1.898985	-1.545234
O	-0.341183	1.328357	-3.312349
N	-0.027145	-1.214359	-2.152944
O	-0.503089	-1.419081	-3.269683
O	0.904999	-1.843359	-1.630605
C	-0.498643	-1.133826	0.884342
H	0.041406	-1.08473	1.834177
H	-0.287763	-2.107285	0.443099
H	-1.570551	-1.058748	1.086572
H	2.602475	0.0	0.0
