16

C	-0.467077	-0.079042	-1.401266
C	0.0	0.0	0.0
Cl	-2.23548	-0.315866	-1.631618
H	1.091483	0.0	0.0
H	-0.316718	0.956623	0.417771
N	-0.12102	1.170832	-2.21011
O	0.30221	2.142647	-1.598631
O	-0.318347	1.09958	-3.416995
N	0.284585	-1.208188	-2.090313
O	1.39036	-0.896853	-2.523893
O	-0.19461	-2.335769	-2.011728
C	-0.433575	-1.169249	0.874392
H	0.01231	-1.02577	1.862439
H	-0.049642	-2.112667	0.481877
H	-1.51837	-1.250833	0.980312
H	2.736489	0.0	0.0
