17
Coordinates from ORCA-job run
  C   0.29617083363455      0.10012494590721     -0.70345559115383
  C   -0.87694289291011      0.11894631653016      0.30003189144115
  Br  -0.03340467737423      1.64590888350649     -1.96252655484521
  H   -1.80137458151594      0.09659469779321     -0.29960086084597
  N   0.29081431002540     -1.13934864437520     -1.40915806072763
  H   -0.54393200849641     -1.22942181496951     -1.97785489224778
  H   1.09622724417362     -1.21645209520580     -2.01815966991545
  C   1.63389579456043      0.34543575233826     -0.04116955755690
  H   1.61881202832911      1.30375583484625      0.47500771798679
  H   2.43258656346825      0.36382383817716     -0.78625882203528
  H   1.82281354474256     -0.45539557979520      0.67661241462550
  N   -0.87102531334442      1.33481054882180      1.08494119110373
  H   -0.46872743880306      1.12852990819605      1.99066877096709
  H   -1.80142188465928      1.70634001918120      1.20757399791520
  N   -0.71244989579968     -1.04373906355731      1.16809281116699
  H   -1.56753863055228     -1.19775268982049      1.68947276148162
  H   -0.51450299547851     -1.86316085757429      0.60578245263995
