17
Coordinates from ORCA-job run
  C   0.39369863172283      0.37795877956640     -0.56714153244455
  C   -0.58967566121318      0.39543856321680      0.61742995376150
  Br  0.45857927028947      2.17292388658960     -1.36405097545084
  H   -0.24699335104066      1.15508510417959      1.33300344884385
  N   -0.14270693523036     -0.53001107602720     -1.56045700144077
  H   -0.16950500966026     -1.44936321642337     -1.12797371292617
  H   0.45960770868753     -0.55943756942887     -2.37459149048594
  C   1.81005836626959      0.05073722510605     -0.10924643983811
  H   2.15299192797701      0.74724099336278      0.66061372597243
  H   1.83359344713745     -0.96899815181196      0.28372817601919
  H   2.50082166751904      0.11103227755600     -0.95235348656961
  N   -0.54047740023405     -0.96837808246819      1.19707879184177
  H   0.15691888714764     -1.01767911736456      1.93170404294767
  H   -1.43788741607316     -1.17385838672888      1.61810851728786
  N   -1.89605196739457      0.76559490655417      0.15441209547468
  H   -2.58617279648642      0.70791850934648      0.89135107771406
  H   -2.15579936941791      0.18279535477516     -0.63161519070703
