17
Coordinates from ORCA-job run
  C   0.40412309509630      0.34189171735520     -0.54775440267317
  C   -0.53191314757084      0.40495625487844      0.67243632694322
  Br  0.35950719552026      2.05571113277927     -1.50284863167134
  H   -0.09942510637959      1.10530500735161      1.39499848903338
  N   -0.13575979924485     -0.67380357069644     -1.45128637464415
  H   0.19718033508489     -1.57707158976366     -1.12615820163673
  H   0.22606312832107     -0.53314418204022     -2.38700277470849
  C   1.84782727529139      0.09749907940269     -0.13533975004508
  H   2.21441071516264      0.89777097260178      0.51145317151888
  H   2.48676731905413      0.04932109665260     -1.01932201925197
  H   1.89882315941844     -0.84692126580113      0.40959059544283
  N   -0.48476466745236     -0.93771253659568      1.27640701645103
  H   -0.70303175462520     -0.87826826146972      2.26354893437754
  H   -1.20292715784934     -1.50585502859230      0.84067987638049
  N   -1.83701247813992      0.88940139673646      0.28058970753390
  H   -2.14667976579675      0.34992904784282     -0.52122845578791
  H   -2.49418834589026      0.76099072935830      1.04023649273759
