17
Coordinates from ORCA-job run
  C   0.40539171362450      0.28496149412695     -0.56863747274979
  C   -0.64856548196104     -0.24040584461976      0.42425655442429
  Br  0.29147875676541      2.32559970717543     -0.53890102893976
  H   -0.54129732211966     -1.33727521987878      0.34675667406599
  N   0.13792104821228     -0.18126615959028     -1.87114357690383
  H   -0.79486331609467     -0.54500236933800     -1.98592185601583
  H   0.86772805258030     -0.73289398866719     -2.29051695585470
  C   1.81603800611255     -0.04234405347819     -0.12181902888023
  H   2.06349613275460      0.45906526566840      0.81398422433878
  H   2.53309471598824      0.28612854927050     -0.87800545607669
  H   1.91029510621504     -1.12847275300543      0.00075470365092
  N   -1.96436314252348      0.07779173312998     -0.07635934799274
  H   -2.68327359356604     -0.38897698198385      0.46175525228455
  H   -2.10892964775557      1.08079064998623     -0.03297228747895
  N   -0.40746663340836      0.24948010730335      1.77396310964478
  H   -1.23501521272135      0.08633149874984      2.33439957517012
  H   0.35833081789723     -0.25351163484921      2.20940691731309
