17

C	0.0	0.0	0.0
C	-0.603442	0.011701	-1.395115
F	1.395917	0.0	0.0
H	-1.720746	0.027362	-1.132005
C	-0.479045	1.17756	0.819884
H	-0.068826	1.117817	1.830611
H	-1.577764	1.121066	0.834764
H	-0.142434	2.102549	0.344628
C	-0.370775	-1.269489	0.674335
N	-0.564907	-2.260709	1.273973
C	-0.251372	-1.221393	-2.223575
H	0.830031	-1.361737	-2.29
H	-0.652543	-1.124916	-3.234472
H	-0.697356	-2.105628	-1.763756
C	-0.233624	1.233594	-2.091526
N	0.044958	2.205879	-2.692901
H	-3.060263	0.0	0.0
