17

C	0.0	0.0	0.0
C	-0.296844	-0.058609	-1.525617
F	1.38935	0.0	0.0
H	0.163499	0.86451	-1.903776
C	-0.608431	1.199361	0.675101
H	-1.702078	1.063236	0.671679
H	-0.337013	2.109271	0.132091
H	-0.245435	1.270167	1.702881
C	-0.397225	-1.253499	0.67088
N	-0.59713	-2.275803	1.215302
C	-1.747123	-0.135415	-1.99337
H	-1.756764	-0.064815	-3.087234
H	-2.372252	0.633465	-1.541988
H	-2.222269	-1.061635	-1.677582
C	0.470829	-1.166665	-2.112256
N	1.042607	-2.057473	-2.621957
H	-3.757437	0.0	0.0
