17

C	0.0	0.0	0.0
C	-0.246817	-0.070743	-1.518007
F	1.392198	0.0	0.0
H	0.473363	-0.840864	-1.814445
C	-0.28297	1.32664	0.724457
H	0.263162	2.133755	0.231451
H	-1.343501	1.53229	0.762245
H	0.117105	1.216964	1.739238
C	-0.655074	-1.141956	0.65656
N	-0.60134	-2.173302	1.25249
C	0.127952	1.228612	-2.232439
H	0.24623	1.050614	-3.301947
H	1.071234	1.615025	-1.847655
H	-0.64965	1.978722	-2.093142
C	-1.550769	-0.539665	-1.980215
N	-2.381358	-0.971521	-2.706575
H	-2.278549	0.0	0.0
