17

C	0.0	0.0	0.0
C	-0.582893	-0.835302	-1.153868
Cl	1.771491	0.0	0.0
H	-0.07881	-0.470845	-2.054365
N	-0.421471	1.461442	-0.17805
O	-0.97762	2.011485	0.762799
O	-0.158125	1.948691	-1.270101
C	-0.459421	-0.486086	1.295595
N	-0.742216	-0.980827	2.323562
C	-2.085671	-0.614147	-1.247342
H	-2.50349	-1.285811	-2.001342
H	-2.354502	0.401084	-1.535633
H	-2.6208	-0.810544	-0.313672
N	-0.199991	-2.218208	-0.895728
H	0.176751	-2.648389	-1.728595
H	-1.010162	-2.746379	-0.594986
Cl	-5.183258	0.0	0.0
