17

C	0.0	0.0	0.0
C	-0.750791	-0.475526	-1.243961
Cl	1.760173	0.0	0.0
H	-1.809943	-0.362287	-0.948806
N	-0.408399	1.512937	0.198976
O	0.458449	2.366293	0.108556
O	-1.595433	1.672066	0.41734
C	-0.430659	-0.71882	1.198438
N	-0.680532	-1.34477	2.160967
C	-0.464097	-1.937991	-1.545286
H	-1.084518	-2.24655	-2.389842
H	0.589351	-2.085576	-1.808221
H	-0.710718	-2.582936	-0.69771
N	-0.460473	0.444518	-2.328732
H	0.210025	0.051221	-2.97535
H	-1.31322	0.662782	-2.825691
Cl	-4.184261	0.0	0.0
