16

C	0.0	0.0	0.0
C	-0.500537	-0.025435	-1.484112
Cl	1.801401	0.0	0.0
H	-1.558634	0.249651	-1.419136
N	-0.482949	1.064985	0.8239
H	-0.339368	1.935745	0.320981
H	-1.497992	0.918399	0.885307
C	-0.37457	-1.289033	0.603554
N	-0.592302	-2.328628	1.104208
N	-0.355783	-1.23911	-2.207862
H	-1.099932	-1.868982	-1.933594
H	0.545619	-1.67341	-2.05099
N	0.204084	1.08991	-2.215175
O	-0.080457	2.236968	-1.863081
O	1.032558	0.803374	-3.071826
Cl	-3.444503	0.0	0.0
