16

C	0.0	0.0	0.0
C	-0.538264	-0.307963	-1.423536
Cl	1.792104	0.0	0.0
H	-1.619369	-0.145272	-1.358856
N	-0.485089	1.266966	0.439332
H	-1.508608	1.232437	0.352567
H	-0.252067	1.401084	1.417225
C	-0.358593	-1.153038	0.858059
N	-0.567175	-2.07722	1.554165
N	-0.258112	-1.602391	-1.946752
H	0.692986	-1.890594	-1.757449
H	-0.913451	-2.266366	-1.556013
N	0.000341	0.729541	-2.372131
O	1.045018	0.463152	-2.964324
O	-0.642882	1.76839	-2.492531
Cl	-3.490321	0.0	0.0
