16

C	0.0	0.0	0.0
C	-0.508679	0.038772	-1.45559
Cl	1.846609	0.0	0.0
H	-1.60901	0.005573	-1.34906
N	-0.529205	0.987118	0.821091
H	-0.50976	0.784187	1.805911
H	-0.25085	1.920327	0.569287
C	-0.3458	-1.33419	0.513292
N	-0.57202	-2.429736	0.869616
N	-0.013649	-0.992914	-2.295783
H	0.901831	-1.315396	-2.013231
H	-0.663641	-1.760524	-2.358179
N	-0.230723	1.386384	-2.11792
O	-0.521509	1.467138	-3.302521
O	0.219968	2.313156	-1.442134
Cl	-3.605486	0.0	0.0
