16

C	0.0	0.0	0.0
C	-0.532827	-0.30922	-1.424682
Cl	1.79251	0.0	0.0
H	-1.616737	-0.159718	-1.363987
N	-0.487829	1.265671	0.439011
H	-1.51099	1.230121	0.345327
H	-0.262889	1.3988	1.418796
C	-0.35635	-1.15549	0.857636
N	-0.564208	-2.081979	1.550845
N	-0.236558	-1.599067	-1.951556
H	-0.884892	-2.271843	-1.564673
H	0.718096	-1.876769	-1.763205
N	-0.004398	0.73866	-2.369547
O	1.046538	0.487956	-2.957556
O	-0.663118	1.767935	-2.492036
Cl	-3.487408	0.0	0.0
