16

C	0.0	0.0	0.0
C	-0.520477	-0.327549	-1.43097
Cl	1.792707	0.0	0.0
H	-1.609041	-0.210803	-1.383241
N	-0.502702	1.267681	0.417579
H	-1.529185	1.206932	0.350413
H	-0.255866	1.43933	1.385911
C	-0.362694	-1.144202	0.864734
N	-0.584895	-2.067182	1.558352
N	-0.180548	-1.607266	-1.953953
H	0.788332	-1.842221	-1.774089
H	-0.796434	-2.308828	-1.564279
N	-0.014407	0.73391	-2.37436
O	-0.705318	1.739665	-2.516305
O	1.059469	0.519461	-2.93778
Cl	-3.491699	0.0	0.0
