15

C	-0.450686	-0.108572	-1.457077
C	0.0	0.0	0.0
F	-1.843545	-0.084841	-1.5316
H	1.097077	0.0	0.0
C	0.037057	1.037505	-2.247847
N	0.345209	1.96737	-2.894932
C	-0.00488	-1.365095	-2.085256
N	0.287341	-2.372882	-2.610709
C	-0.499762	-1.1596	0.731503
N	-0.911862	-2.067934	1.353696
C	-0.474106	1.306162	0.64019
H	-1.561902	1.399016	0.619394
H	-0.131068	1.330381	1.675174
H	-0.020656	2.153707	0.122877
Cl	3.217383	0.0	0.0
