15

C	-0.449328	-0.135801	-1.454504
C	0.0	0.0	0.0
F	-1.843186	-0.111566	-1.531179
H	1.10715	0.0	0.0
C	0.038632	0.993129	-2.268183
N	0.341753	1.909368	-2.937275
C	-0.007468	-1.405727	-2.056792
N	0.277164	-2.427546	-2.560923
C	-0.501409	-1.145635	0.751801
N	-0.930134	-2.042804	1.377621
C	-0.470723	1.31828	0.617301
H	-1.557984	1.415548	0.592906
H	-0.012164	2.155123	0.086995
H	-0.129693	1.358061	1.652601
Cl	3.205611	0.0	0.0
