15

C	-0.442458	0.070161	-1.460391
C	0.0	0.0	0.0
F	-1.834553	0.144297	-1.541438
H	1.107231	0.0	0.0
C	0.086575	1.282494	-2.112727
N	0.434789	2.268291	-2.647576
C	-0.028023	-1.120923	-2.222695
N	0.244955	-2.075649	-2.848733
C	-0.498059	-1.238472	0.587981
N	-0.911482	-2.216673	1.089473
C	-0.467971	1.222016	0.792836
H	-1.555424	1.318345	0.791071
H	-0.015773	2.12398	0.375622
H	-0.11675	1.123082	1.820613
Cl	3.202496	0.0	0.0
