19

C	-0.556875	0.075974	-1.406694
C	0.0	0.0	0.0
F	-0.130214	-1.008166	-2.134089
H	1.096556	0.0	0.0
C	-2.061529	0.156944	-1.511085
H	-2.4218	1.008823	-0.934887
H	-2.349729	0.241975	-2.559243
H	-2.490016	-0.759832	-1.100098
N	-0.009426	1.290252	-2.174128
O	0.420503	2.243917	-1.538821
O	-0.099589	1.238688	-3.397323
C	-0.415976	-1.317897	0.645228
H	0.199102	-1.456011	1.540973
H	-1.472731	-1.316158	0.9368
H	-0.21742	-2.163456	-0.016621
N	-0.538759	1.111793	0.810255
H	0.109452	1.886928	0.696733
H	-0.466251	0.826711	1.782722
H	2.948876	0.0	0.0
