19

C	-0.354545	-0.03044	-1.470592
C	0.0	0.0	0.0
F	0.013942	1.168661	-2.033857
H	1.103762	0.0	0.0
C	0.315876	-1.134354	-2.24101
H	0.152665	-0.9803	-3.310627
H	1.381068	-1.078265	-2.007721
H	-0.075928	-2.104117	-1.952105
N	-1.868253	-0.096659	-1.657307
O	-2.384059	-1.198393	-1.470112
O	-2.476711	0.928051	-1.941992
C	-0.456626	-1.211898	0.790533
H	-0.112441	-2.143489	0.339089
H	-1.542825	-1.240213	0.900975
H	0.001052	-1.152466	1.783313
N	-0.570196	1.214727	0.603517
H	-0.156981	1.27986	1.529823
H	-0.187758	2.004621	0.09213
H	2.945175	0.0	0.0
