19

C	-0.401787	0.104244	-1.470153
C	0.0	0.0	0.0
F	-1.717555	0.538319	-1.594403
H	1.09373	0.0	0.0
C	0.506186	1.004465	-2.265005
H	0.363962	2.02622	-1.909764
H	1.5433	0.712288	-2.074334
H	0.26397	0.960561	-3.330051
N	-0.394557	-1.280861	-2.091104
O	-1.463443	-1.880403	-2.181179
O	0.701462	-1.724026	-2.419463
C	-0.565066	-1.217696	0.707354
H	-0.165172	-2.145635	0.290232
H	-1.658644	-1.247886	0.660887
H	-0.259277	-1.156437	1.752518
N	-0.364935	1.230254	0.709242
H	-1.174646	1.672631	0.295283
H	0.425578	1.86432	0.66871
H	2.911252	0.0	0.0
