19

C	-0.528705	0.025526	-1.425268
C	0.0	0.0	0.0
F	-0.274777	-1.172796	-2.039231
H	1.095051	0.0	0.0
C	-1.995794	0.342978	-1.572686
H	-2.26487	0.367694	-2.631339
H	-2.208949	1.29454	-1.094163
H	-2.571914	-0.445609	-1.086665
N	0.234581	1.06728	-2.236063
O	0.871414	0.695778	-3.211777
O	0.11142	2.229951	-1.861472
C	-0.452657	-1.26789	0.706445
H	-0.200068	-2.154199	0.126051
H	0.093442	-1.333139	1.651926
H	-1.527483	-1.263398	0.92186
N	-0.498876	1.176922	0.745546
H	-0.479507	0.912028	1.725334
H	0.209204	1.901805	0.64502
H	2.90764	0.0	0.0
