19

C	-0.356815	-0.090521	-1.468017
C	0.0	0.0	0.0
F	0.034549	1.076834	-2.082071
H	1.103959	0.0	0.0
C	0.293456	-1.242438	-2.188021
H	1.36258	-1.190937	-1.959806
H	-0.114257	-2.193943	-1.854605
H	0.130685	-1.13489	-3.263602
N	-1.871846	-0.136811	-1.655418
O	-2.458073	0.87887	-2.005614
O	-2.41188	-1.215001	-1.403404
C	-0.461906	-1.173118	0.842803
H	-1.54847	-1.194656	0.951993
H	-0.119542	-2.124977	0.43403
H	-0.005222	-1.071654	1.832766
N	-0.567918	1.243894	0.544974
H	-0.221639	1.310652	1.49888
H	-0.121265	2.010468	0.049345
H	2.942629	0.0	0.0
