19

C	-0.525136	0.012356	-1.427998
C	0.0	0.0	0.0
F	-0.283901	-1.198999	-2.021483
H	1.105178	0.0	0.0
C	-1.989089	0.347758	-1.597755
H	-2.580531	-0.414009	-1.087524
H	-2.204371	1.315453	-1.152843
H	-2.242837	0.34152	-2.661498
N	0.250048	1.033017	-2.263739
O	0.21435	2.19191	-1.855571
O	0.785836	0.65835	-3.296412
C	-0.454362	-1.258088	0.721503
H	-0.163803	-2.152228	0.170963
H	-1.535202	-1.263516	0.900719
H	0.058545	-1.29323	1.687641
N	-0.518407	1.17643	0.731895
H	-0.183279	1.061465	1.68478
H	-0.010907	1.980948	0.37385
H	2.926919	0.0	0.0
