19

C	-0.317729	-0.160364	-1.488217
C	0.0	0.0	0.0
F	-0.092088	1.036413	-2.131316
H	1.097708	0.0	0.0
C	0.483913	-1.232173	-2.174773
H	0.297195	-1.204919	-3.252169
H	0.235899	-2.219985	-1.795536
H	1.535419	-1.01497	-1.952752
N	-1.815363	-0.399245	-1.646227
O	-2.555035	0.584249	-1.596341
O	-2.208332	-1.563636	-1.709224
C	-0.507044	-1.160468	0.838671
H	-1.599038	-1.147326	0.935088
H	-0.203865	-2.130233	0.437173
H	-0.073817	-1.052213	1.834315
N	-0.443961	1.2701	0.559928
H	-1.321876	1.559188	0.142678
H	0.252581	1.963719	0.317861
H	2.902438	0.0	0.0
