19

C	-0.403945	0.096218	-1.469146
C	0.0	0.0	0.0
F	-1.721744	0.526978	-1.591705
H	1.095545	0.0	0.0
C	0.499664	0.996343	-2.270458
H	1.537955	0.707561	-2.082791
H	0.35455	2.019332	-1.918542
H	0.255317	0.94705	-3.334349
N	-0.394776	-1.292349	-2.084592
O	-1.462372	-1.896853	-2.163005
O	0.700934	-1.731826	-2.42096
C	-0.564118	-1.213654	0.715201
H	-0.162932	-2.143607	0.304002
H	-0.258327	-1.145029	1.759683
H	-1.65764	-1.24577	0.669283
N	-0.365592	1.234404	0.703174
H	-1.171576	1.678981	0.282721
H	0.42706	1.865479	0.659465
H	2.908434	0.0	0.0
