19

C	-0.49488	0.014135	-1.43604
C	0.0	0.0	0.0
F	-1.845833	0.310402	-1.480585
H	1.101081	0.0	0.0
C	0.271204	0.968225	-2.307913
H	0.088484	1.96741	-1.915665
H	1.335747	0.742883	-2.225902
H	-0.067202	0.902847	-3.345269
N	-0.391207	-1.39146	-2.010683
O	0.711511	-1.74089	-2.417321
O	-1.397769	-2.096586	-1.992395
C	-0.503049	-1.183637	0.811518
H	-0.131668	-1.074758	1.833988
H	-0.115562	-2.130482	0.427008
H	-1.597654	-1.234775	0.82927
N	-0.357345	1.30421	0.568176
H	-1.199106	1.23271	1.127708
H	0.412798	1.583752	1.1668
H	2.889047	0.0	0.0
