19

C	-0.521393	0.013678	-1.430171
C	0.0	0.0	0.0
F	-0.324882	-1.212951	-2.009657
H	1.100637	0.0	0.0
C	-1.971258	0.402688	-1.610724
H	-2.593811	-0.317572	-1.077402
H	-2.148906	1.391842	-1.197318
H	-2.223439	0.374795	-2.674657
N	0.296837	0.993953	-2.271159
O	0.843529	0.584854	-3.284296
O	0.285775	2.160737	-1.884022
C	-0.459021	-1.255578	0.722246
H	0.023098	-1.272462	1.704451
H	-1.544568	-1.27725	0.867331
H	-0.136896	-2.150252	0.190477
N	-0.51463	1.181644	0.724805
H	-0.168764	1.077845	1.675247
H	-0.010448	1.983083	0.353958
H	2.926391	0.0	0.0
