19

C	-0.421489	-0.068217	-1.458591
C	-0.044195	-0.175537	0.026471
Br	0.053344	-1.832842	-2.307685
H	1.018065	-0.463842	0.05678
C	-1.906434	0.142512	-1.676351
H	-2.496569	-0.68988	-1.293284
H	-2.125273	0.290047	-2.737732
H	-2.17176	1.041595	-1.114294
C	0.431649	1.001244	-2.124596
H	-0.020035	1.96683	-1.881444
H	1.43471	1.024388	-1.682095
H	0.444968	0.874132	-3.210449
N	-0.925697	-1.124288	0.721399
H	-0.533023	-1.257141	1.649348
H	-0.837031	-2.021068	0.25272
N	-0.182661	1.16191	0.586702
H	0.808238	1.513408	0.525107
H	-0.445297	1.066107	1.561941
F	2.360281	1.421342	0.070828
