19

C	-0.116966	-0.048454	-1.503522
C	0.056769	-0.119647	0.019203
Br	-2.079007	-0.032444	-1.951666
H	1.133177	-0.340815	0.131774
C	0.497172	1.222961	-2.051567
H	-0.106174	2.082588	-1.76044
H	0.572052	1.179542	-3.142785
H	1.473973	1.353575	-1.557204
C	0.455356	-1.29404	-2.158513
H	0.028142	-2.191873	-1.711806
H	0.267383	-1.290249	-3.234995
H	1.538336	-1.291988	-1.993621
N	-0.70197	-1.233636	0.576956
H	-1.674097	-0.942381	0.62568
H	-0.381138	-1.376243	1.529085
N	-0.210981	1.177784	0.631284
H	0.729114	1.632811	0.535203
H	-0.320361	1.001187	1.626765
F	2.355048	1.583593	0.141947
