19

C	-0.388858	-0.01647	-1.475716
C	-0.035776	-0.166648	0.011709
Br	0.024779	-1.782871	-2.352854
H	1.013136	-0.499412	0.049127
C	-1.860869	0.259316	-1.70795
H	-2.096681	1.157554	-1.131459
H	-2.489738	-0.555544	-1.349537
H	-2.059177	0.43652	-2.768812
C	0.516498	1.029371	-2.109619
H	0.100886	2.008047	-1.855061
H	0.540808	0.921533	-3.197457
H	1.512756	1.003318	-1.652267
N	-0.963909	-1.091457	0.677408
H	-0.909323	-1.980962	0.190137
H	-0.58687	-1.260767	1.605859
N	-0.126335	1.16428	0.595691
H	-0.416623	1.063834	1.56248
H	0.879734	1.474104	0.559625
F	2.430158	1.332661	0.117937
