18

C	-0.003574	-0.013789	0.013735
C	-0.592118	-0.139635	-1.402125
Cl	1.828034	-0.006318	-0.067824
H	-1.691336	-0.322043	-1.146311
C	-0.37335	1.297305	0.557214
N	-0.561721	2.352611	1.037972
C	-0.463677	-1.086822	0.990448
H	-1.557067	-1.031527	0.936224
H	-0.09541	-0.852227	1.991784
H	-0.099586	-2.063426	0.680776
N	0.002498	-1.315191	-2.090759
O	0.639285	-1.136651	-3.133149
O	-0.192981	-2.428976	-1.598516
C	-0.453091	1.11189	-2.237457
H	0.575559	1.477229	-2.289734
H	-1.09933	1.871366	-1.796343
H	-0.799407	0.919223	-3.253316
F	-2.839388	0.015113	-0.169376
