17

C	0.0	0.0	0.0
C	-0.256479	-0.193626	-1.522929
Br	2.117017	0.0	0.0
H	0.33983	-1.053058	-1.849445
N	-0.452515	1.198902	0.601112
H	-1.468221	1.142776	0.68376
H	-0.185577	2.012138	0.061873
N	-0.49196	-1.078133	0.720296
H	-0.393346	-0.952783	1.717041
H	-0.163463	-1.978606	0.407977
C	0.237701	0.974738	-2.252436
N	0.576539	1.925179	-2.853785
C	-1.732626	-0.427047	-1.854608
H	-2.371275	0.395518	-1.539168
H	-2.113849	-1.304298	-1.337142
H	-1.838363	-0.562387	-2.934575
Br	-4.620662	0.0	0.0
