17

C	0.0	0.0	0.0
C	-0.205463	-0.31978	-1.53106
Br	2.020064	0.0	0.0
H	0.437113	-1.185247	-1.723554
N	-0.519581	1.281299	0.318401
H	-1.510067	1.287591	0.06222
H	-0.46805	1.405546	1.323985
N	-0.443559	-1.014115	0.903266
H	-0.15287	-1.938657	0.60668
H	-1.464015	-0.965433	0.941141
C	0.310361	0.773365	-2.361238
N	0.659104	1.621027	-3.09608
C	-1.608088	-0.685298	-2.013926
H	-2.036803	-1.482593	-1.410408
H	-1.528516	-1.025665	-3.050881
H	-2.305106	0.145255	-1.966037
Br	-4.112849	0.0	0.0
