17

C	0.0	0.0	0.0
C	-0.472725	-0.030627	-1.471608
Br	2.036279	0.0	0.0
H	-1.568678	-0.1103	-1.345807
N	-0.444416	1.12154	0.760934
H	-1.470132	1.063366	0.764896
H	-0.147683	1.991688	0.340098
N	-0.45633	-1.152324	0.650789
H	-0.151155	-2.016459	0.228931
H	-0.260624	-1.117169	1.640214
C	-0.0065	-1.23714	-2.149435
N	0.362829	-2.209852	-2.696664
C	-0.138581	1.216416	-2.283314
H	-0.620859	2.086826	-1.834404
H	0.939842	1.380547	-2.33726
H	-0.532036	1.11201	-3.296688
Br	-3.774839	0.0	0.0
