14
Coordinates from ORCA-job run
  C   -0.92409088891633     -0.35017944945335      0.08026796279894
  C   0.57562091034097     -0.14502251478219      0.12550066628170
  F   -1.22719579420607     -1.37533113976852      0.93603988306900
  H   0.85914466066289      0.26664094856809      1.10097637884596
  H   -1.29816763902371     -0.57473950188280     -0.91554874126619
  N   -1.67552398519658      0.84939832915329      0.58445362629218
  O   -2.74789975276001      1.08488522163785      0.04020538686262
  O   -1.18220457593974      1.45154723336977      1.53440450264128
  N   0.96717443972496      0.91013712899445     -0.87180261804859
  O   0.07107730194890      1.56394299132887     -1.39979917219594
  O   2.17019915534109      1.03926918988998     -1.06062590783623
  N   1.22302966697645     -1.36684598321410     -0.27556876118041
  H   2.22722500165804     -1.24319570704791     -0.23794542088481
  H   0.96161149938915     -2.10950674679343      0.36044221462049
