14
Coordinates from ORCA-job run
  C   -0.63468662719008      0.58535422579768      0.58959387406472
  C   0.51362573663454     -0.24506059536005      0.03186081227358
  F   -0.85664320829955      1.65825634377327     -0.19561421481354
  H   0.82626251248865     -0.99257746865822      0.76632351431511
  H   -0.49023304648389      0.90175626873532      1.62282420827541
  N   -1.85869619799287     -0.29869589903328      0.57852224113349
  O   -2.88499643484679      0.13698250359209      0.08829083336692
  O   -1.68074403186740     -1.40433060188397      1.08455601341415
  N   1.69547167931842      0.70554338407658     -0.05759442204459
  O   2.32554716185801      0.75649840877816     -1.10549042467577
  O   1.96582855486917      1.29510633499282      0.98227149371161
  N   0.16867266767533     -0.76136999883559     -1.25974683492533
  H   0.91408609743825     -0.57970506400960     -1.91951946093672
  H   -0.00249486360181     -1.75575784196520     -1.20527763315906
