14
Coordinates from ORCA-job run
  C   -0.88835342087617     -0.34439201146918      0.14611744152609
  C   0.63112557163314     -0.17877286267576      0.16981398129871
  F   -1.21312573267426     -1.34813240840301      1.00000703742815
  H   0.93133592136423      0.14866490370363      1.16577616541347
  H   -1.28317019757499     -0.54648136185008     -0.84963810031464
  N   -1.52903822442713      0.92641142275047      0.63040298715213
  O   -1.52127878988595      1.11751495288091      1.84012740497488
  O   -1.95346563532905      1.67665538324583     -0.24445980009519
  N   0.95370037474087      0.94251186254615     -0.77694881559874
  O   0.84538804700677      0.66843697276364     -1.96933354267303
  O   1.26952392248860      2.02477219663866     -0.29454353766349
  N   1.37112085186535     -1.33198506277850     -0.22557767062750
  H   1.35958679702350     -2.03269655124792      0.50222066973471
  H   1.02565051464510     -1.72150743610485     -1.09296422055553
