14
Coordinates from ORCA-job run
  C   -0.97311001129815     -0.26919243878567      0.21126226801707
  C   0.54505850212397     -0.29288534405587      0.14325273933329
  F   -1.39863903756057     -1.25500115815007      1.04245865380171
  H   0.95178839964930      0.00503771577271      1.11005044172749
  H   -1.45710226374102     -0.36320973543296     -0.76058404976598
  N   -1.47391864682390      1.01952122466962      0.81084781268235
  O   -2.55946349307242      1.41696673259952      0.40491447888841
  O   -0.79992717032877      1.51201891463710      1.71090419635218
  N   0.99641440473032      0.81888396041102     -0.81694709434834
  O   0.15195529241323      1.61057916539944     -1.23099233148331
  O   2.18734842028342      0.81326462189069     -1.10522781854437
  N   1.02645614088932     -1.57194543987415     -0.22474773219478
  H   2.03056334105480     -1.62201029264163     -0.12424503428737
  H   0.77257612168047     -1.82202792643976     -1.17194653017834
