14
Coordinates from ORCA-job run
  C   -0.70339017817214      0.65517111556586      0.27520754431731
  C   0.48846741487938     -0.27280101773701      0.14810663155332
  F   -0.88760689705859      1.32342684170809     -0.88911364693212
  H   0.62980949141948     -0.80611209201462      1.08870149274144
  H   -0.61210636325586      1.35675035723758      1.10252604819192
  N   -1.91100207846415     -0.20529681119513      0.55315623769901
  O   -1.86884059136968     -0.78080912376958      1.63476984785645
  O   -2.79282144520885     -0.25620982618229     -0.28747555076552
  N   1.72091583694677      0.65856959234299      0.05354077914195
  O   1.88645447604740      1.42033029771862      1.00088001285913
  O   2.43415657171555      0.55507596053432     -0.93619749877899
  N   0.31900711433187     -1.15261750524846     -0.93459119674494
  H   1.05853976680893     -1.83688198079155     -0.99616981599503
  H   0.23741688137989     -0.65959580816881     -1.81334088514391
