12

C	-0.272312	-0.000328	-1.472005
C	0.0	0.0	0.0
F	-1.634543	0.030746	-1.787798
H	1.094339	0.0	0.0
H	0.160422	-0.898042	-1.907979
H	0.195849	0.887555	-1.899277
N	-0.43003	-1.254506	0.653424
O	-0.771074	-1.208058	1.835826
O	-0.351015	-2.290952	-0.006944
C	-0.543126	1.150019	0.687979
N	-0.938696	2.135496	1.192003
F	2.456669	0.0	0.0
