15
Coordinates from ORCA-job run
  C   0.82834202923327     -0.21052055820277     -0.57430046464682
  C   -0.65886089983208      0.20326436478847     -0.48542028885097
  Br  1.20643821203215     -1.14751307963885     -2.21799671872904
  H   -0.81197286613298      0.91053802576891     -1.30910185621435
  N   1.12846328431995     -1.12886948302533      0.62651277952960
  O   1.66973276271948     -0.58704149108246      1.58275426797985
  O   0.72589528507918     -2.27735105595194      0.54803990578773
  C   1.68209317989141      0.96431148089275     -0.49119097728201
  N   2.32457805210005      1.94909262912560     -0.46756011386448
  C   -0.98636073586591      0.88745755945963      0.84788240974403
  H   -0.30835431040076      1.72264157783996      1.03048811134518
  H   -2.00732809455436      1.26968435752785      0.80680083889803
  H   -0.91918287720229      0.18601747197441      1.68027599278749
  C   -1.54628973287400     -0.93812136589808     -0.71208178911997
  N   -2.32519328851310     -1.80359043357815     -0.86610209736426
