15
Coordinates from ORCA-job run
  C   0.71634827393118     -0.41920151661963     -0.42572747079118
  C   -0.44519444284733      0.55040032675193     -0.09944838291104
  Br  0.11327949460850     -2.04623416067622     -1.25313598396760
  H   0.03808836182836      1.45622842919584      0.28665118221240
  N   1.39361954895379     -0.70727832712490      0.93991484686469
  O   1.93375167552962      0.28062212735776      1.42219642831502
  O   1.28762550101708     -1.81488563792894      1.43285793930840
  C   1.70986469307725      0.21650446834467     -1.27742963079649
  N   2.49379613631638      0.74565848278532     -1.97660313143978
  C   -1.41119163601576      0.00218565802712      0.95283639511820
  H   -2.21309703001327      0.72514214885289      1.10912082632069
  H   -1.85140591939036     -0.94131904716624      0.62985391861476
  H   -0.89971368142009     -0.14581505673298      1.90550659680973
  C   -1.13907983961641      0.90213325323515     -1.33686020821559
  N   -1.72569113595891      1.19685885169824     -2.31073332544221
