15
Coordinates from ORCA-job run
  C   0.84174454311538     -0.08425279577600     -0.30057094851635
  C   -0.69420266946329      0.00301241039685     -0.28177425363897
  Br  1.57854152712332      0.95914487896384     -1.76055974696354
  H   -1.03454978246223     -0.32511003395294     -1.26837669918130
  N   1.25016502780354     -1.54843511967395     -0.57177846637930
  O   2.17806270779477     -1.99376353247740      0.08597265039210
  O   0.60916806136572     -2.11459936994898     -1.44369575172076
  C   1.42768956610986      0.35145297922057      0.95510752803280
  N   1.84048194690745      0.75542257511858      1.97995737890097
  C   -1.20955673176634      1.40908661140586      0.03305654943944
  H   -0.86252177254034      1.74141216800116      1.01291978451492
  H   -2.30043582295122      1.39526445247873      0.04116525981622
  H   -0.87783641015205      2.11704254016329     -0.72621407742168
  C   -1.17941826324050     -0.95774875472308      0.71385871036702
  N   -1.56833192764406     -1.70692900919651      1.53093208235844
