15
Coordinates from ORCA-job run
  C   0.73867439919324     -0.51505868891694     -0.24408776852120
  C   -0.53238519465107      0.36626730361479     -0.30440105060489
  Br  0.33839090918967     -2.37822479471308      0.00667186072662
  H   -0.16929599254556      1.37693192907705     -0.52740454826938
  N   1.55714851647996      0.04397437086944      0.94933455041085
  O   1.66709253224903     -0.62626539639175      1.95919961540849
  O   1.96903323963996      1.18081440810673      0.75428568745543
  C   1.54929874398778     -0.35150224002992     -1.44108025972880
  N   2.18166759804496     -0.21060328569651     -2.42277380052755
  C   -1.31623430701491      0.38593522848625      1.00938398033648
  H   -2.20382230676255      1.00760339401190      0.88368786843954
  H   -1.63231183894813     -0.61765836855861      1.29405972008036
  H   -0.71389103722971      0.81514820705350      1.81177014460724
  C   -1.36670636420727     -0.07087100753196     -1.42221239911893
  N   -2.06565889742541     -0.40649105938090     -2.30443360069427
