14
Coordinates from ORCA-job run
  C   -0.63821566498474     -0.22797249050413      0.30822450852377
  C   -0.15490367756520     -0.09137933309063     -1.12255012966724
  Br  -2.58264714613734     -0.33202019459518      0.23902082851296
  H   -0.33423487534832     -1.02744957379618     -1.65178691422713
  H   -0.64210783689432      0.73245805606896     -1.63583587530485
  N   -0.35617078746000      1.11627222660663      1.04890212649940
  O   -0.17985203132558      1.03415092245007      2.25584811213206
  O   -0.35511262158606      2.13648804321351      0.37222843834548
  N   -0.13764160918413     -1.35559093340425      0.97642387554443
  H   0.87125201102202     -1.28703243202597      1.04649618032396
  H   -0.53809966762174     -1.44092522453904      1.90179691063328
  N   1.31730983772241      0.18167300388734     -1.21621043626690
  O   1.73917144263594      0.41925416886825     -2.33902391412877
  O   1.98825262672704      0.14107376086063     -0.18553371092047
