18

C	0.0	0.0	0.0
C	-0.256863	0.282926	-1.518485
F	1.363082	0.0	0.0
H	0.48506	1.06536	-1.725316
C	-0.523727	1.074523	0.909116
H	-0.213193	2.06635	0.571418
H	-0.149015	0.871209	1.913794
H	-1.623094	0.998144	0.903483
N	-0.619256	-1.261593	0.40759
O	-0.364124	-1.658161	1.574593
O	-1.779666	-1.383386	-0.20007
C	-1.594339	0.785281	-2.05475
H	-1.951219	1.63211	-1.469263
H	-2.34891	0.008757	-2.003999
H	-1.444071	1.109822	-3.091202
C	0.187882	-0.884567	-2.288367
N	0.552617	-1.79489	-2.934441
H	-2.983809	0.0	0.0
