18

C	0.0	0.0	0.0
C	-0.254885	0.174479	-1.535148
F	1.363082	0.0	0.0
H	0.471929	0.956152	-1.790842
C	-0.525434	1.13817	0.827357
H	-0.148059	1.01247	1.843567
H	-1.624484	1.057612	0.829663
H	-0.220266	2.102815	0.415537
N	-0.618575	-1.228101	0.499365
O	-1.779853	-1.394341	-0.095676
O	-0.35978	-1.53886	1.691221
C	-1.599586	0.609877	-2.112768
H	-2.333197	-0.184215	-2.027831
H	-1.44521	0.879955	-3.164985
H	-1.987278	1.476773	-1.577986
C	0.21883	-1.033355	-2.219328
N	0.596186	-1.986254	-2.792627
H	-2.983465	0.0	0.0
