18

C	0.0	0.0	0.0
C	-0.2573	0.238607	-1.526149
F	1.363021	0.0	0.0
H	0.481015	1.018917	-1.756835
C	-0.526399	1.097927	0.878655
H	-0.161012	0.919117	1.890244
H	-1.624962	1.02485	0.867
H	-0.209845	2.079294	0.519687
N	-0.618655	-1.251182	0.43855
O	-0.360872	-1.621627	1.613183
O	-1.780636	-1.385978	-0.165207
C	-1.598442	0.716774	-2.078771
H	-2.341694	-0.071631	-2.025407
H	-1.974356	1.562756	-1.505202
H	-1.446446	1.032265	-3.118152
C	0.197488	-0.946628	-2.263138
N	0.598529	-1.857055	-2.887067
H	-2.985678	0.0	0.0
