17

C	0.0	0.0	0.0
C	-0.516023	-0.0943	-1.432283
Br	1.969002	0.0	0.0
H	-1.605453	-0.098651	-1.296941
H	-0.230876	-0.935791	0.521446
N	-0.50485	1.17774	0.648147
H	-1.522392	1.136265	0.52336
H	-0.327167	1.112315	1.644265
C	-0.128912	-1.404249	-2.106733
H	-0.658807	-1.500534	-3.058775
H	-0.406505	-2.262229	-1.486675
H	0.945522	-1.453986	-2.30608
C	-0.137095	1.113659	-2.281023
H	-0.367096	2.040872	-1.755318
H	0.930244	1.108982	-2.522901
H	-0.701946	1.096487	-3.218283
Cl	-3.698265	0.0	0.0
