17

C	0.0	0.0	0.0
C	-0.50931	0.134138	-1.43027
Br	2.042456	0.0	0.0
H	-1.59626	0.015144	-1.294679
H	-0.221235	-0.997628	0.379691
N	-0.517013	0.958069	0.862498
H	-0.232309	1.905415	0.685027
H	-0.504388	0.717226	1.837177
C	-0.001139	-0.976837	-2.340697
H	-0.136829	-1.958007	-1.8759
H	-0.568865	-0.972124	-3.275479
H	1.058846	-0.855248	-2.576852
C	-0.254799	1.513464	-2.028199
H	-0.763282	2.290943	-1.454595
H	-0.65805	1.551207	-3.043908
H	0.815339	1.737019	-2.075942
Cl	-4.041108	0.0	0.0
