15

C	-0.30362	-0.127584	-1.495561
C	0.0	0.0	0.0
F	-1.639828	-0.462217	-1.702926
H	1.104472	0.0	0.0
C	-0.114961	1.163476	-2.205746
N	0.007881	2.139654	-2.847365
N	0.502269	-1.192648	-2.00473
H	0.494792	-1.198356	-3.016651
H	1.464121	-1.079936	-1.677943
N	-0.510523	-1.175841	0.719487
H	-0.590403	-1.932772	0.04795
H	0.217394	-1.449824	1.372843
C	-0.555997	1.228427	0.565539
N	-1.001018	2.211978	1.027211
Br	3.41941	0.0	0.0
