15

C	-0.469584	-0.149167	-1.458346
C	0.0	0.0	0.0
F	0.064916	0.902567	-2.204752
H	1.100055	0.0	0.0
C	0.038076	-1.409958	-2.04093
N	0.330433	-2.444023	-2.514781
N	-1.894465	-0.173447	-1.525858
H	-2.266071	0.693645	-1.149496
H	-2.206089	-0.287824	-2.481835
N	-0.434562	-1.094742	0.854101
H	0.285544	-1.804655	0.839168
H	-1.306046	-1.48236	0.517161
C	-0.524911	1.280131	0.491563
N	-1.019714	2.285229	0.844793
Br	3.425576	0.0	0.0
