15

C	-0.306989	-0.082902	-1.51124
C	0.0	0.0	0.0
F	-1.635545	-0.490527	-1.697503
H	1.097521	0.0	0.0
C	-0.221497	1.237466	-2.181524
N	-0.13472	2.253649	-2.765543
N	0.549011	-1.073917	-2.071323
H	1.502256	-0.944196	-1.725653
H	0.550855	-1.025772	-3.082302
N	-0.43149	-1.183966	0.72382
H	-1.295941	-1.528656	0.324444
H	0.279512	-1.895279	0.60654
C	-0.567581	1.207061	0.599019
N	-1.048879	2.163183	1.082429
Br	3.413987	0.0	0.0
