15

C	-0.319424	0.003315	-1.505508
C	0.0	0.0	0.0
F	0.043977	-1.253435	-2.002345
H	1.09628	0.0	0.0
C	-1.769676	0.128095	-1.773143
N	-2.922957	0.222822	-1.972403
N	0.399148	1.060515	-2.104714
H	0.315228	1.038253	-3.113437
H	1.380507	0.996646	-1.831966
N	-0.50973	-1.185246	0.664637
H	0.242638	-1.60619	1.193488
H	-1.270251	-0.960297	1.292073
C	-0.468194	1.247858	0.608796
N	-0.902672	2.191916	1.158275
Br	3.430836	0.0	0.0
