15

C	-0.528822	-0.002174	-1.439707
C	0.0	0.0	0.0
F	-0.228629	1.203074	-2.039
H	1.094373	0.0	0.0
C	0.148677	-1.064562	-2.228675
N	0.570638	-1.971414	-2.844998
N	-1.95168	-0.163305	-1.42644
H	-2.151368	-0.952931	-0.820756
H	-2.292715	-0.363318	-2.359314
N	-0.457425	-1.236881	0.660414
H	0.369735	-1.786182	0.870655
H	-0.911583	-1.02093	1.538856
C	-0.493807	1.191759	0.686877
N	-0.909806	2.104428	1.297785
Br	3.410181	0.0	0.0
