15

C	-0.556144	-0.019232	-1.425675
C	0.0	0.0	0.0
F	-1.982458	-0.009097	-1.290467
H	1.093453	0.0	0.0
C	-0.253239	1.20796	-2.184666
N	-0.069618	2.177929	-2.819122
N	-0.098789	-1.155575	-2.102044
H	-0.160319	-1.951993	-1.478554
H	-0.591225	-1.30422	-2.971517
N	-0.387765	-1.256673	0.641946
H	0.3235	-1.493293	1.323582
H	-1.284397	-1.170474	1.103089
C	-0.489078	1.185151	0.716108
N	-0.889519	2.091201	1.348111
Br	3.41502	0.0	0.0
