15

C	-0.567575	-0.011234	-1.432963
C	0.0	0.0	0.0
F	-0.126507	1.118495	-2.080869
H	1.099131	0.0	0.0
C	-0.05886	-1.20817	-2.140128
N	0.304429	-2.162865	-2.716466
N	-2.005822	-0.023238	-1.51728
H	-2.345515	0.825735	-1.074016
H	-2.327649	-0.815697	-0.970396
N	-0.486118	-1.226978	0.662126
H	-0.821325	-1.014458	1.594107
H	0.320471	-1.83402	0.770969
C	-0.498283	1.197807	0.669323
N	-0.962661	2.143062	1.190475
Br	3.414103	0.0	0.0
