15
Coordinates from ORCA-job run
  C   -0.46747192568252     -0.58276689709072     -0.13788811206915
  C   0.83129576460512      0.04402625971226      0.40832784372592
  Br  -0.00909249325438     -2.20920843164746     -1.18247580305677
  H   1.16297056795635     -0.65893846915882      1.18221744403753
  N   -1.38840533503678     -0.78714603180081      0.89925491564823
  H   -1.05493887893910     -1.46613050747233      1.57082782187924
  H   -2.29574787997119     -1.05869325007062      0.54043666086403
  N   -1.14822264242335      0.34195110067898     -1.14433867983124
  O   -2.33562022550873      0.13652690810898     -1.35209431361207
  O   -0.45503154679958      1.20136942389694     -1.67613884097506
  C   0.47602156036968      1.30775470419537      1.08901578172737
  N   0.28120022629851      2.34065032637886      1.61389676464134
  N   1.89956881964488      0.15741861161643     -0.55418302584957
  H   2.77911557707236      0.30226551842251     -0.07635869588982
  H   1.72735841166874      0.93092073423044     -1.18149976123999
