15
Coordinates from ORCA-job run
  C   -0.40592363739989     -0.42039935550177     -0.38426827506651
  C   0.67877689873880      0.43273380375223      0.30612531038032
  Br  0.14490142802237     -1.02938878904499     -2.11418940476954
  H   0.21956320220257      0.74829665071101      1.25861640451659
  N   -0.71242820806622     -1.52598257614161      0.45530560843876
  H   -1.24515175385443     -2.23026623954772     -0.03947888973978
  H   -1.24088153479278     -1.20068754030698      1.25879252838904
  N   -1.63027145335932      0.54210043102648     -0.53803975550393
  O   -1.87831520374191      1.06542173731406     -1.61108892150226
  O   -2.22637305869669      0.72694572310732      0.52313345638741
  C   0.96428968878102      1.65028215992843     -0.45923231209195
  N   1.21411599856560      2.64653975265392     -1.02769701814277
  N   1.88252047061740     -0.36130548567638      0.44987767670781
  H   2.58343539751390      0.16010110735889      0.96153341945741
  H   1.64974176546957     -1.20539137963288      0.95961017253940
