15
Coordinates from ORCA-job run
  C   -0.46627679621348     -0.47716089085351     -0.40619204027682
  C   0.51803192703920      0.42703942477805      0.37998726160622
  Br  0.49038589814520     -1.35986098649645     -1.83444109398217
  H   -0.09551667169008      0.90541471179940      1.15060253953348
  N   -1.14854147696362     -1.44446105562758      0.38340326516855
  H   -1.74714065444546     -0.96256153423888      1.04685465347336
  H   -0.45472951711090     -1.98348537170682      0.89023571168849
  N   -1.53984894465085      0.46109083014792     -0.97227618558745
  O   -2.22959277263587      0.97546113568583     -0.09231191993577
  O   -1.62723424657565      0.65645296646692     -2.17181992314695
  C   1.07853240438407      1.48678600410614     -0.47467464283278
  N   1.56736775712946      2.33146713004131     -1.12961458821918
  N   1.49816446385947     -0.41535698168346      1.03906118407009
  H   1.93251531822541      0.08850594352198      1.80218508845072
  H   2.22288331150308     -0.68933132594086      0.38600068999021
