15
Coordinates from ORCA-job run
  C   -0.42315858016497     -0.52099302683266     -0.11200849213033
  C   0.85200353808563      0.13336769342887      0.49533825374196
  Br  0.16891103004434     -2.10147082766542     -1.21305345611871
  H   1.15688446683882     -0.56532641800000      1.28521469792314
  N   -1.35847881208384     -0.81098842711664      0.87485717232354
  H   -2.24859342760283     -1.11095413772934      0.49801470807186
  H   -1.01076468046083     -1.45572164623004      1.57122310690678
  N   -1.10789269895862      0.38726050064474     -1.12756163579375
  O   -2.29178601681583      0.16709070395297     -1.34248514951632
  O   -0.41931626407849      1.24844801529311     -1.66178452790506
  C   0.42601210646922      1.37783147113490      1.15564998699287
  N   0.09656862956210      2.37833705124532      1.67328704834683
  N   2.00598228574606      0.38663125342584     -0.32463701821261
  H   2.39892593880032     -0.48195516280105     -0.66105440605826
  H   1.75470248461890      0.96844295724947     -1.11200028857187
