15
Coordinates from ORCA-job run
  C   -0.55638121555065     -0.57401591808745      0.04171068781635
  C   0.90070062397546     -0.10801760832162      0.18049579653673
  Br  -0.71472462467631     -2.46446418778001      0.44438808461452
  H   1.52591725109812     -0.76834861987712     -0.42689965081110
  N   -1.41131113269825      0.18796376181985      0.83844376665085
  H   -2.38422334634127     -0.04031408356246      0.68270942116258
  H   -1.23444614557945      1.17132970861564      0.65829144847872
  N   -0.89384249854744     -0.47361754437776     -1.48370604963863
  O   0.02281811632813     -0.63900226630628     -2.28246453897634
  O   -2.06293114099504     -0.24299637172583     -1.75879909699369
  C   1.31743893188905     -0.22602346591559      1.57813027857159
  N   1.70978540618670     -0.27392030528819      2.68342195504974
  N   0.94575364526108      1.28941151956733     -0.25466932866380
  H   1.58148484390887      1.83146206192714      0.31548782456340
  H   1.25496128574103      1.33255331931233     -1.21754059836087
