15
Coordinates from ORCA-job run
  C   -0.37612907437680     -0.56117290601820     -0.02409198634092
  C   1.00764858844338      0.10892015314646      0.13868339464688
  Br  -0.18407151572425     -2.51389222896912      0.36653201286680
  H   1.73791173009129     -0.48695123995871     -0.41125974276887
  N   -1.36430064057257      0.10889933473582      0.70176257315756
  H   -1.20913028659567      0.03877193307688      1.70036368184694
  H   -2.29600830584942     -0.20198202605346      0.45704217694788
  N   -0.76812282363822     -0.52982237831213     -1.49846943800087
  O   -1.96558725626919     -0.48636692473536     -1.74864792970661
  O   0.14470604401028     -0.57958241329352     -2.31377990795977
  C   1.33619981672244      0.06748184973061      1.57113101858898
  N   1.53232466735358      0.07719114996850      2.72865737633801
  N   1.06106224676319      1.47213702516587     -0.33342182076565
  H   0.26420620582977      1.99644068077859      0.00670425040662
  H   1.07829060381215      1.49092799073776     -1.34420565925699
