15
Coordinates from ORCA-job run
  C   -0.53964119958775     -0.29676348602907     -0.31216839272514
  C   0.57585754589750      0.42990743683483      0.45285757573404
  Br  0.15394669759890     -0.73566792135760     -2.14873664488463
  H   0.10992766448286      0.78745415575777      1.37603289206330
  N   -0.99844068740537     -1.37817025644100      0.43062337556303
  H   -0.21942676243364     -1.92539584120860      0.77630862215131
  H   -1.69043391020592     -1.92985657346509     -0.05873991010325
  N   -1.73688000207973      0.61005717320924     -0.55816517496700
  O   -1.64182469063735      1.77663332410879     -0.19259747373451
  O   -2.71096664585956      0.07812556663501     -1.07034179521830
  C   1.11150815168812      1.59228919613824     -0.27075318255987
  N   1.65218684725185      2.49543439937035     -0.79212353438295
  N   1.58602754963651     -0.56129681736843      0.80227917968535
  H   2.15904421320093     -0.21237178427312      1.56064303118919
  H   2.18911522845264     -0.73137857191128      0.00488143218948
