15
Coordinates from ORCA-job run
  C   -0.47222043033918     -0.43918758791618     -0.32453514824468
  C   0.64104810039254      0.37950643529125      0.35641477449899
  Br  0.07109333828728     -1.01936422812265     -2.09536350457410
  H   0.18857203613462      0.78469191274926      1.26929592113975
  N   -0.83372706402580     -1.54407869348192      0.45002763094484
  H   -0.88509183547696     -1.33092212288736      1.43623168271895
  H   -1.66538212414247     -2.01310364067085      0.11875858973140
  N   -1.65269611988729      0.59210598095890     -0.49081918085618
  O   -2.15943416814671      0.89305836251182      0.58808715020224
  O   -1.97323386095528      1.01288797303520     -1.58972768975756
  C   1.01088641106352      1.53145151139276     -0.49015011553591
  N   1.38064250953467      2.45781495481300     -1.11159362894347
  N   1.74110154878934     -0.47724433255870      0.74479035077400
  H   2.15945909351703     -0.90010157722252     -0.07607596831043
  H   2.44998256525469      0.07248505210799      1.21565913621213
