15
Coordinates from ORCA-job run
  C   -0.49035799124711     -0.67646119012121     -0.03805989526491
  C   0.87880100661652      0.03303124494685      0.11236694430551
  Br  -0.29047735276280     -2.56544761001646      0.33559282001491
  H   1.63238706865664     -0.51233921541193     -0.46241885564645
  N   -1.55978054442988     -0.14405596999465      0.70339211543701
  H   -1.52257497358060     -0.42549605727055      1.67343279762068
  H   -1.56604060050956      0.86639041125928      0.61112445249996
  N   -0.83027564301512     -0.55487891810280     -1.54786807067274
  O   -1.99415935343277     -0.37463781603141     -1.85921037658642
  O   0.12438589748886     -0.65759310882941     -2.31422478207395
  C   1.24392369000167      0.00890894330459      1.52850435735398
  N   1.51741795538974      0.02984410075880      2.67003565586288
  N   0.67755965565151      1.40924384248660     -0.33772203637143
  H   1.19973820860061      2.06647983115202      0.22602275210118
  H   0.97945297657227      1.49601151187028     -1.29996787858026
