15
Coordinates from ORCA-job run
  C   -0.39129315050105     -0.35726105771001     -0.35576103219708
  C   0.68241872772300      0.43683715001166      0.44324937668485
  Br  0.20757617598502     -0.74252437146840     -2.14031509453636
  H   0.23080654238812      0.59834805575714      1.43085476926677
  N   -0.66660994664576     -1.56606844945799      0.33629909099111
  H   -1.16467816302580     -1.35566099150220      1.19556463929845
  H   -1.21545102511321     -2.20429470130633     -0.22650755508946
  N   -1.63863563134331      0.57398876253483     -0.41526059378336
  O   -1.94860956302895      1.14826567341004     -1.44572254651336
  O   -2.19263671478137      0.67853483601166      0.67966345092623
  C   0.90018195916666      1.75284180646344     -0.16336656606609
  N   1.08785121108857      2.79935547195764     -0.66089378197752
  N   1.93826922434004     -0.24918955473219      0.62172256114409
  H   2.41973372652744     -0.33147499544136     -0.26598408100987
  H   1.75007662722061     -1.18269763452800      0.96945736286162
