15
Coordinates from ORCA-job run
  C   -0.42862381287348     -0.42609496357396     -0.35261932166543
  C   0.70112009161786      0.41478043478171      0.27813139658612
  Br  0.09950141642275     -1.21727153647105     -2.01464566205942
  H   0.25267642046939      0.83995736017498      1.19246092530080
  N   -0.81230475452883     -1.43302011900268      0.57503048056798
  H   -1.32746298427380     -1.00602618863752      1.33864547912852
  H   -1.38414592304491     -2.14300934053692      0.13492277990097
  N   -1.58773614617723      0.59341436929445     -0.60782810159967
  O   -2.18427472874793      0.90415624178534      0.42323413393298
  O   -1.78828635496414      1.03839593386405     -1.72523813475064
  C   1.07154073396354      1.54075725325337     -0.58455518655414
  N   1.39579305479788      2.46281480662589     -1.23471272979097
  N   1.85048495048422     -0.43694528392524      0.50875894062159
  H   2.58046307524659      0.08391864052608      0.97861455020093
  H   1.56125496160811     -1.21482760815850      1.08980045018038
