15
Coordinates from ORCA-job run
  C   -0.35626819440881     -0.62118554681756     -0.12897213323180
  C   0.90297404308781      0.08325241138085      0.46181972120819
  Br  0.18171494044435     -2.09865290712467     -1.26795483589126
  H   1.26318205767439     -0.63388786893030      1.20729029911237
  N   -1.18145247721893     -1.09839726944076      0.90317675034790
  H   -1.44434739210558     -0.34665345872064      1.53287821187920
  H   -2.01923794280882     -1.53413322896608      0.53805539706980
  N   -1.10770088675642      0.35460401461966     -1.08715744827103
  O   -0.43400314882971      1.14159523437678     -1.74301846678452
  O   -2.32668493621207      0.25031261710570     -1.11324206256004
  C   0.40616253348175      1.26168803764910      1.19245990187271
  N   -0.05641705442004      2.17232065499925      1.77234398648305
  N   2.00880166414286      0.44980537724224     -0.38117524809000
  H   1.68734662309157      0.99803160201246     -1.16716430675022
  H   2.47693017083765     -0.37969966938608     -0.72033976639437
