15
Coordinates from ORCA-job run
  C   -0.45806945187359     -0.24406774577738     -0.31122112632750
  C   0.65336625645779      0.52384116389599      0.44368896094058
  Br  0.25400701118428     -0.84738395363078     -2.07626843179962
  H   0.14047284018432      1.02155266956715      1.27336769422700
  N   -0.98347368959592     -1.27416404171631      0.48620399162161
  H   -0.29856704335707     -2.00190528622385      0.64009488794025
  H   -1.81168713856658     -1.67003018965672      0.05557969233171
  N   -1.63605331699046      0.66852355480197     -0.64190527303069
  O   -2.65437704705465      0.11168352962806     -1.03025616400307
  O   -1.47930185108105      1.87074615267391     -0.46752353806734
  C   1.27533313068417      1.55928763498402     -0.38919347511204
  N   1.82815223689220      2.37419596622552     -1.02753295326211
  N   1.68729106999689     -0.31942790202709      0.99811905436811
  H   2.14164131342463     -0.88202823835563      0.29038759124979
  H   1.34126567969504     -0.88982331438886      1.75645908892328
