15
Coordinates from ORCA-job run
  C   -0.42685024066271     -0.52182065747193     -0.04251036700484
  C   1.00296823038551      0.01404089974797      0.20088102577421
  Br  -0.45106978189111     -2.47795389636077      0.37441232473829
  H   1.70443023154457     -0.65775002316316     -0.29658319522160
  N   -1.38767059474496      0.25093873473860      0.61530110755207
  H   -2.32840533565262      0.02812967605645      0.31530378038093
  H   -1.30158699369505      0.17834848775919      1.62205331278937
  N   -0.72264815821538     -0.47286139260734     -1.53857526981305
  O   -1.89246711315230     -0.31664273198719     -1.86327493714522
  O   0.22918347445531     -0.62285427772007     -2.29479525514235
  C   1.23740416161894     -0.03820060512081      1.65127696082631
  N   1.36448083867002     -0.04528210177839      2.81839916534836
  N   1.21749909384356      1.35834910855219     -0.27933614905051
  H   0.45700230488708      1.96277841506362      0.00665801033009
  H   1.29772988260915      1.36078036429175     -1.28721051436204
