15
Coordinates from ORCA-job run
  C   -0.43273721810308     -0.42739580012243     -0.48955362474965
  C   0.49048952281603      0.38209838050532      0.45744103550032
  Br  0.60078213486732     -1.04546945034811     -2.00116322076199
  H   -0.16364884816491      0.71677845071790      1.26943221873982
  N   -1.09611855904773     -1.52813535148061      0.12055606354186
  H   -0.39574950002819     -2.10882259377722      0.56911638181229
  H   -1.73746451336902     -1.17504931605857      0.82393756724889
  N   -1.52798107165959      0.54593368334165     -0.94461895678271
  O   -2.26417437532447      0.89404450499551     -0.02172535652292
  O   -1.58836618820591      0.91902225224246     -2.10304174811096
  C   1.03058936841716      1.57931207117360     -0.20817282684870
  N   1.48798352288122      2.54103245885921     -0.70538536293944
  N   1.48407998231742     -0.51501318182262      1.01637170422233
  H   2.23751909238681     -0.66232145021806      0.35505907433343
  H   1.87579665021693     -0.11701465800802      1.86074705131741
