15
Coordinates from ORCA-job run
  C   -0.40078623701211     -0.39136393573715     -0.30771336890945
  C   0.68887936412635      0.45440048287766      0.41243403419115
  Br  0.32099143963018     -1.31286026643018     -1.83135874427600
  H   0.16287598427953      0.92916901720323      1.25116979804102
  N   -0.93202790119436     -1.32590154589345      0.61941181052857
  H   -1.48192169993258     -0.83312189101172      1.31606062467176
  H   -1.50744574231405     -2.02284819937507      0.16315896248305
  N   -1.47599136605772      0.63235270646335     -0.78097669090667
  O   -1.57074695709802      0.94935936257534     -1.95526843239774
  O   -2.13024731951088      1.08719309440157      0.15811596743605
  C   1.17248128539876      1.52265359609996     -0.46621793120777
  N   1.56926341060106      2.37290246742326     -1.17175823096094
  N   1.79695311912492     -0.30423353657827      0.93868765363705
  H   1.43044885112647     -1.08313772207187      1.47393950105008
  H   2.35727376883250     -0.67456362994662      0.18031504661981
