15
Coordinates from ORCA-job run
  C   -0.41539876659464     -0.66488070019281     -0.15574278308465
  C   0.87728249304812     -0.02821112719521      0.39400766724388
  Br  0.00030816635994     -2.23495375645493     -1.20197848220944
  H   1.23833477474467     -0.77427366680638      1.10853529538025
  N   -1.27664324157025     -1.02161518320077      0.90373431262419
  H   -2.10645493414735     -1.48521087382413      0.55532804445962
  H   -1.54751038113753     -0.20669562818510      1.44547878381179
  N   -1.11084684940858      0.31257796826242     -1.15146678406199
  O   -2.29137471658679      0.08610450862157     -1.37801463372280
  O   -0.44665523369874      1.23226689454400     -1.61974254408964
  C   0.48204746948124      1.16725624307763      1.17272009016207
  N   0.16769665343930      2.11960717281568      1.78569740701300
  N   1.91132883145673      0.19079605147900     -0.58642066593570
  H   2.80591440926060      0.29836034276688     -0.12760486115606
  H   1.71197132535329      1.00887175429217     -1.14453084643450
