15
Coordinates from ORCA-job run
  C   -0.52159551725965     -0.66332910189274     -0.16803288521027
  C   0.80898556846410     -0.06172910192303      0.36931572100125
  Br  -0.14833065738852     -2.33079305939105     -1.06910773316240
  H   1.11882627151672     -0.75300811166309      1.16096359845393
  N   -1.53216646091060     -0.87960873649005      0.79939049656047
  H   -1.83688151529325     -0.02188708008437      1.24193714473136
  H   -1.25891516074884     -1.57988637415943      1.47437282160927
  N   -1.07364198803501      0.34875114317927     -1.18986286681773
  O   -2.08155188675274      0.96333741034530     -0.86619750326233
  O   -0.41542761263984      0.51720553038114     -2.20984169863711
  C   0.45844620521430      1.22285226950543      1.01990975753396
  N   0.20558029006949      2.26140389106381      1.50978895898543
  N   1.87985704311433      0.01410212181475     -0.59299785366165
  H   2.73647686957937      0.30342879672155     -0.13823080794413
  H   1.66133855107010      0.66116040259248     -1.33940715018002
