15

C	-0.443754	0.043109	-1.418394
C	0.0	0.0	0.0
F	0.140123	0.960828	-2.166319
H	1.089049	0.0	0.0
H	-0.327762	-0.904548	0.499065
N	-0.177955	-1.320518	-2.082136
O	0.294367	-1.294287	-3.208912
O	-0.502092	-2.3108	-1.438957
N	-1.965069	0.204778	-1.598868
O	-2.342867	0.815914	-2.588962
O	-2.66491	-0.334609	-0.752395
N	-0.477852	1.141774	0.74086
O	-0.390511	1.076188	1.972042
O	-0.84388	2.147414	0.110045
H	2.516019	0.0	0.0
