15

C	-0.518947	-0.032138	-1.394144
C	0.0	0.0	0.0
F	0.042803	-1.054385	-2.056219
H	1.091353	0.0	0.0
H	-0.316603	-0.908125	0.511697
N	-2.040881	-0.247923	-1.494423
O	-2.715514	0.126814	-0.545428
O	-2.446391	-0.775995	-2.522939
N	-0.268028	1.22268	-2.233893
O	0.882266	1.360716	-2.615982
O	-1.229925	1.940588	-2.472883
N	-0.416406	1.135061	0.779097
O	-0.37093	2.247216	0.232233
O	-0.634949	0.950588	1.984055
H	2.490256	0.0	0.0
