15

C	-0.565197	0.019639	-1.372835
C	0.0	0.0	0.0
F	-1.886852	0.298522	-1.427215
H	1.086442	0.0	0.0
H	-0.265188	0.933114	0.494328
N	0.115724	1.15919	-2.144118
O	-0.055385	2.268004	-1.65297
O	0.728465	0.893177	-3.169074
N	-0.314932	-1.227933	-2.197627
O	-1.204055	-1.550746	-2.975258
O	0.776384	-1.751396	-2.050952
N	-0.516524	-1.085302	0.794646
O	-0.388568	-0.971398	2.020967
O	-0.966642	-2.095645	0.22596
H	2.484875	0.0	0.0
