15

C	-0.445204	0.00601	-1.419045
C	0.0	0.0	0.0
F	0.141617	0.897714	-2.195081
H	1.089072	0.0	0.0
H	-0.326713	-0.892284	0.522128
N	-0.193718	-1.377543	-2.046541
O	-0.509247	-2.348558	-1.368974
O	0.25616	-1.384039	-3.182852
N	-1.967068	0.172918	-1.595115
O	-2.664732	-0.354408	-0.740994
O	-2.345909	0.770901	-2.59276
N	-0.481949	1.158942	0.712372
O	-0.847299	2.149374	0.056557
O	-0.406241	1.119486	1.945922
H	2.519921	0.0	0.0
