14
Coordinates from ORCA-job run
  C   0.97344272218370     -0.29068807673578      0.31665634892393
  C   -0.54984343185873     -0.26937072890304      0.40636135156520
  Br  1.55761465890857     -2.18407774005086      0.64335579291286
  H   -0.88960060016222     -0.86056394700805      1.25605654867000
  H   1.40705515073826      0.25484888685143      1.15108498726145
  N   1.39009108597675      0.25202860305114     -0.91694116043545
  H   2.38535441258676      0.42633027580971     -0.94020800324430
  H   1.13864873621301     -0.35909810044541     -1.68457486432323
  N   -1.16068184221340     -0.68198225974718     -0.80059867189555
  H   -2.12351155287739     -0.95053387581258     -0.65573891108129
  H   -1.13853060170917      0.07397325172619     -1.47388289033391
  N   -0.91225263305085      1.18322380335290      0.79866936267884
  O   -0.49471873022453      1.56283168449840      1.88817666137098
  O   -1.58106737451075      1.84307822341313      0.01158344793046
