14
Coordinates from ORCA-job run
  C   0.87441698768209     -0.42470898006246      0.24915555592971
  C   -0.61799427866545     -0.14024806146169      0.46859842941918
  Br  1.14239967330796     -2.35192489683259      0.44944304687618
  H   -0.95360620094138     -0.58893392142915      1.40190968135511
  H   1.45810422389388      0.01617575085864      1.06608689722160
  N   1.26159885719885     -0.04576872429111     -1.08386528103450
  H   1.10235369754385      0.94835131139981     -1.21265070822698
  H   2.23599776511221     -0.25919313344843     -1.25195863649107
  N   -1.45644481087772     -0.46686124747220     -0.62515467788145
  H   -2.00849745727330     -1.28937673878723     -0.44102759205035
  H   -0.91405602000723     -0.57798381700846     -1.47244831387030
  N   -0.69965566942359      1.36090880816475      0.74698019374893
  O   -0.50988777741321      2.11748685410171     -0.20251743384132
  O   -0.91572899013695      1.70307679626841      1.90644883884527
