14
Coordinates from ORCA-job run
  C   0.76457602751973     -0.01890524471006     -0.47374431353213
  C   -0.39329779332952      0.36536116981749      0.44953277643755
  Br  1.87117128423208      1.54998652532006     -0.80952917459848
  H   -0.00650350607441      0.85641006586136      1.34182987362357
  H   0.36387902481786     -0.31278711648336     -1.44857372883937
  N   1.53244756512951     -1.06154911612198      0.18940783759105
  H   2.52486368087811     -0.88937855116668      0.10893529617874
  H   1.33919745492657     -1.95319352477415     -0.24943446973205
  N   -1.23827407886222     -0.73777012827857      0.81662156604551
  H   -0.69839957943457     -1.39084441604206      1.36981682601321
  H   -1.59360997840592     -1.20033829483746     -0.01253714503154
  N   -1.26837895978358      1.36080158577463     -0.24727607035795
  O   -1.78785290912857      0.96487716457505     -1.29106699020401
  O   -1.41081823248508      2.46832988106572      0.25701771640590
