14
Coordinates from ORCA-job run
  C   0.91242093400515     -0.44364102039121      0.37021416702019
  C   -0.58581221539591     -0.16561372791518      0.35271527581510
  Br  1.04589891973619     -2.48434652901421      0.21818646858433
  H   -1.07705063992897     -0.71502630139262      1.16328319099443
  H   1.34355181624756     -0.25890249267418      1.35002003858480
  N   1.53874728203748      0.28160416605026     -0.63619988595785
  H   2.53988980658378      0.16358018543183     -0.67613511675742
  H   1.09251255793511      0.13685970640222     -1.53306974507620
  N   -1.12002451535991     -0.36907451861832     -0.96700928238772
  H   -1.90127661050029      0.25326245225547     -1.12728726806818
  H   -1.41661401120971     -1.33016727467860     -1.06989768516014
  N   -0.74960652654874      1.29278719669521      0.74259820187781
  O   -1.38966230077176      2.03226795747355      0.00383655498707
  O   -0.23497449682998      1.60941020037578      1.80874508554380
