14
Coordinates from ORCA-job run
  C   0.84939974507139     -0.51992905778145     -0.26657016588091
  C   -0.46309533305726     -0.21556650722433      0.44979923546530
  Br  0.54365803349474     -0.12197234476417     -2.24801044017008
  H   -0.26038435965393     -0.25189560029417      1.52387339385171
  H   0.96402475170684     -1.60178516992620     -0.27702116448686
  N   1.96971269533261      0.09868376411698      0.29784486760110
  H   2.83152672161442     -0.18506833191769     -0.14617882714563
  H   1.88620610751098      1.10561581604578      0.32824970061966
  N   -1.47728524299100     -1.13183246508724      0.09803136532764
  H   -1.70159610884773     -1.06172104885944     -0.88678795748430
  H   -2.31882544269715     -0.97354558143105      0.63479005953864
  N   -0.84898910035041      1.26104347029377      0.21015329626292
  O   -1.96191026208882      1.49219073153778     -0.24306362894033
  O   -0.01244220504470      2.10578232529148      0.52389026544112
