14
Coordinates from ORCA-job run
  C   1.01178513435229     -0.49944006597174      0.18289855653083
  C   -0.50759349633261     -0.35581543106769      0.40480382978412
  Br  1.38885520896678     -2.41182537385164      0.04476262791180
  H   -0.84597711187205     -1.02724029597606      1.19289413020209
  H   1.53628712845818     -0.16134819848457      1.07795654277094
  N   1.53836525504887      0.17037391927558     -0.96311399316409
  H   1.04907003086675     -0.10306940095356     -1.80547230319995
  H   1.52828844850928      1.17635884893955     -0.84997438780173
  N   -1.24367286788531     -0.52725797319564     -0.79163316045280
  H   -2.21253113372901     -0.74236265502962     -0.60300988966449
  H   -1.20283288896074      0.31210321103951     -1.35517397262229
  N   -0.66470485416125      1.04734637674899      1.01088677846435
  O   -0.40643182489263      1.15843340435927      2.20559828980150
  O   -0.96890702836856      1.96474363416761      0.24957695143972
