14
Coordinates from ORCA-job run
  C   0.76456452313833     -0.56467929501680      0.02037713935701
  C   -0.60807256427773      0.03464555859147      0.36849174672414
  Br  0.83915815602267     -0.77769464172960     -2.00449172326274
  H   -0.57319116913933      0.27709049575037      1.43387813312045
  H   0.75552813895535     -1.60580563597799      0.34267237308916
  N   1.84532266079007      0.11427439959210      0.59526554773915
  H   2.73213191013602     -0.33107499568847      0.40632023121570
  H   1.86822138742332      1.09486252753957      0.34973985760144
  N   -1.75817655675597     -0.74943575967864      0.08578674952513
  H   -1.85998933337374     -1.49804756809977      0.75609246249747
  H   -1.74491226836714     -1.11421720314783     -0.85755990879447
  N   -0.73880340428583      1.37705899196347     -0.32848782712524
  O   0.05515025568455      2.24476559478293      0.03940378725131
  O   -1.57693173595056      1.49925753111918     -1.20748856893849
