14
Coordinates from ORCA-job run
  C   0.77536279952011     -0.50141359235445     -0.22565664645606
  C   -0.55040982089632     -0.09835860685811      0.44069397853554
  Br  0.56535665631959     -0.19070371782891     -2.23010368204325
  H   -0.37224409231764     -0.13146785149622      1.51873475311901
  H   0.84150021575358     -1.58857349178443     -0.18778117600531
  N   1.90710207633501      0.07796444684082      0.35854307898615
  H   1.86669829946336      1.08810418502975      0.37671341449701
  H   2.77061761020605     -0.24709824701547     -0.05269503758927
  N   -1.70569524649439     -0.85728248558343      0.11531980220713
  H   -1.69682134357630     -1.75137478220278      0.58475425294906
  H   -1.81131253087788     -0.97820736153108     -0.88328669864080
  N   -0.81617456239275      1.36627555942546      0.13917045900473
  O   -1.77202519388096      1.65359014694878     -0.56337079461570
  O   0.00004513283854      2.16054579840998      0.60996429605183
