14
Coordinates from ORCA-job run
  C   0.86018317486233     -0.51941304330342     -0.22992183541459
  C   -0.47571741513101     -0.21010464201334      0.43931738468412
  Br  0.61294935815468     -0.15991482922964     -2.22749076158691
  H   -0.30712708094751     -0.22539062178336      1.51982027745961
  H   0.98127898535761     -1.60054025133597     -0.21746550053595
  N   1.95928532856816      0.11578710543141      0.35664607677442
  H   2.83568086365099     -0.17132961338597     -0.05540129458376
  H   1.86944631582924      1.12254783864301      0.36658148300982
  N   -1.47344885363203     -1.13855201504269      0.07302745476085
  H   -1.66751552443904     -1.08726143637618     -0.91935247079026
  H   -2.33206134110705     -0.97587166404517      0.58062377237670
  N   -0.86199140521748      1.25986106745563      0.16085967403480
  O   -0.03913655716496      2.11496730859085      0.48244519572079
  O   -1.96282584878395      1.47621479639484     -0.32768945590960
