14
Coordinates from ORCA-job run
  C   0.81764229124994     -0.10782878557248     -0.55146903659659
  C   -0.30290929930491      0.36640594793102      0.38672660809422
  Br  2.05028535368790      1.38123448709677     -0.85343936275755
  H   0.11473541499462      0.74838310317915      1.31960709751086
  H   0.38001112125534     -0.34085232908307     -1.52438696505322
  N   1.55727924764406     -1.23917203494565     -0.07877829873289
  H   1.90350943536701     -1.10508279288660      0.86275196976057
  H   1.01438182348852     -2.08962061768666     -0.14114231816984
  N   -1.30960121113264     -0.62032310161514      0.66272219112879
  H   -1.61623549623894     -1.08538208169887     -0.18241707340892
  H   -0.99381816584645     -1.29317596711610      1.34537235533844
  N   -1.02031217479077      1.52129246152891     -0.25162538303022
  O   -1.03962933223753      2.59549933006607      0.33624441169492
  O   -1.55533900813613      1.26862238080267     -1.33016619577861
