14
Coordinates from ORCA-job run
  C   0.83399874759134     -0.04590634225316     -0.43351910751208
  C   -0.45460576624615      0.25754782578560      0.31736310503166
  Br  1.95582793911696      1.60093152609887     -0.40633900886631
  H   -0.24113571580108      0.67226243983773      1.30938575540424
  H   0.59880637015264     -0.20493975066741     -1.48407463240407
  N   1.46591710684742     -1.19142310284855      0.11860919918126
  H   2.21547817826277     -1.52237206924285     -0.47396550919550
  H   1.84014217442536     -1.00336518672641      1.04111393653553
  N   -1.30860430987606     -0.89272184992083      0.28267885144944
  H   -1.98807757503819     -0.86807490948064      1.03124716654759
  H   -0.74321948211888     -1.72873971688412      0.35299673229834
  N   -1.19189426188798      1.37784825348760     -0.38772983213706
  O   -1.74855311572371      2.19529611382393      0.34239048135804
  O   -1.23308028970441      1.35265676899026     -1.61115713769111
