14
Coordinates from ORCA-job run
  C   0.91175683562610      0.08757818798602     -0.42947110840284
  C   -0.34912321334348      0.21643700759490      0.41688402927408
  Br  1.74865323294168      1.84130103737614     -0.64310907218997
  H   -0.10086671648808      0.63157645476391      1.39306143581529
  H   0.63069664833788     -0.19836778359005     -1.45008192167646
  N   1.81135630286255     -0.79127385972044      0.25971436582783
  H   1.30778340876992     -1.63551678581105      0.50711510456323
  H   2.60879618853099     -1.01872150547122     -0.31953583480213
  N   -0.96109558453259     -1.07126452217373      0.54131875288167
  H   -1.67602412774417     -1.07373507270959      1.25751940470100
  H   -1.37391693083496     -1.34627717580050     -0.34299500663137
  N   -1.28121492490690      1.21907052542779     -0.23537795145229
  O   -1.70170963902822      0.90938929418992     -1.34981649020219
  O   -1.57409148019076      2.22980419793791      0.39477429229409
