14
Coordinates from ORCA-job run
  C   0.85267126009076     -0.57211111963172     -0.08942790336462
  C   -0.51345519672797     -0.13101422284102      0.42752174582412
  Br  0.76184564402020     -0.49513641770104     -2.13033249663700
  H   -0.42131035080839      0.00373783069024      1.50892762497312
  H   0.92967225444868     -1.64341334763188      0.08387741833528
  N   1.93169611614383      0.10856285614304      0.48329370945102
  H   1.88162950818081      1.10852625840546      0.34416985528907
  H   2.82328349200865     -0.25987459149350      0.18388377804165
  N   -1.51895194940344     -1.07292261181942      0.12171270086613
  H   -1.63638384081162     -1.16283179041288     -0.87991197365171
  H   -2.40551951144780     -0.81149908257299      0.53032309005001
  N   -0.82040287595476      1.29444175917776     -0.08358225443835
  O   -1.87492331099986      1.47084715396416     -0.67875914155518
  O   0.01014876126093      2.16268732572375      0.17730384681640
