14
Coordinates from ORCA-job run
  C   0.77629512989692     -0.53842128054747     -0.11045579767846
  C   -0.57969600006461     -0.03449356805958      0.41125337882033
  Br  0.70533990236304     -0.47734419310956     -2.14568574463763
  H   -0.47153552702770      0.06450823671966      1.49450870962539
  H   0.81364140372801     -1.61296930719457      0.06785447105842
  N   1.88127191903016      0.09203107826765      0.47369379169159
  H   2.76161782167315     -0.29501900627861      0.16432501040760
  H   1.86379801445984      1.09690142562179      0.36243104672565
  N   -1.72981014612899     -0.80972134856075      0.10592409742037
  H   -1.76937675346076     -1.64094656959088      0.67812988106240
  H   -1.77607152282361     -1.04870686300471     -0.87579489742691
  N   -0.79063431493231      1.38454458764957     -0.08632786156354
  O   0.00838391858435      2.22009303668902      0.34041980682214
  O   -1.69322384529751      1.59654377139846     -0.88027589232735
