14
Coordinates from ORCA-job run
  C   0.87922628293165     -0.41988089952424      0.23291120336411
  C   -0.60130642807023     -0.11845142076319      0.50820115345932
  Br  1.14858177749701     -2.34070218287629      0.47787339021539
  H   -0.88728515532818     -0.50583750342204      1.48449739375815
  H   1.50041863604623      0.04239071841177      1.00900781533373
  N   1.20317324812248     -0.08088699007292     -1.12778674886646
  H   2.16836155278389     -0.30031057357662     -1.33667088179113
  H   1.03958521474647      0.90823454221918     -1.28583381392788
  N   -1.50473118133591     -0.51012119320455     -0.50978522428310
  H   -1.02328393620160     -0.61047564087385     -1.39461464114345
  H   -1.98000987254377     -1.36590922503388     -0.26856402555396
  N   -0.65292758830204      1.39759769828380      0.69047803418606
  O   -0.66477121721965      2.08674126596906     -0.32601810743847
  O   -0.62503133312630      1.81561140446371      1.84530445268763
