14
Coordinates from ORCA-job run
  C   0.94085008704417     -0.01046807641371     -0.45669340946317
  C   -0.34828983279207      0.30665266844431      0.29670595282825
  Br  2.08032991097556      1.58838636655947     -0.34086996170686
  H   -0.12720314588233      0.70840186957125      1.29266015251832
  H   0.70081212816537     -0.13467281094317     -1.51125747750306
  N   1.65212838101035     -1.15004587706627      0.01383345386799
  H   1.33846038025491     -2.01579473330581     -0.39729941293338
  H   1.74942806785069     -1.20397403838065      1.01722137946804
  N   -1.22618316063952     -0.84085653129093      0.25960893009126
  H   -0.75900818207939     -1.62790140804758      0.69081127707809
  H   -2.06538850529612     -0.64705411492645      0.79538988904549
  N   -1.10636044123277      1.41341752838669     -0.39145839417500
  O   -1.74428193518910      2.16120363938295      0.34801691527414
  O   -1.08529375218976      1.45170551802987     -1.61566929439005
