14
Coordinates from ORCA-job run
  C   0.73509731122422     -0.10647107084984     -0.49987585205485
  C   -0.39598841970828      0.29163655273397      0.45053224420598
  Br  1.86481973281438      1.49975031191072     -0.87640321371430
  H   0.00965950266976      0.66544389747830      1.39249587208560
  H   0.31302657997284     -0.37459547780825     -1.46848443627505
  N   1.45134533933759     -1.19865760487031      0.05484698976682
  H   1.99844599069017     -0.91052737360879      0.85752969988384
  H   2.07370052634047     -1.61768812195179     -0.62319445816501
  N   -1.35331237666720     -0.75424712271100      0.69416939110680
  H   -0.87155037540653     -1.53839492399636      1.11627777022851
  H   -1.73902112396855     -1.06344806371890     -0.19189110017465
  N   -1.16218440313768      1.43161266646699     -0.14983096822436
  O   -1.70030606693307      1.19098323357964     -1.22989885374675
  O   -1.22373221722820      2.48360309734556      0.47472691507729
