14
Coordinates from ORCA-job run
  C   1.00813947531415      0.07216224583113     -0.26387818682607
  C   -0.40883960217098      0.24664338061013      0.27748907242746
  Br  2.05437709769281      1.61464181664018      0.36062566839030
  H   -0.39102075830820      0.45419594950041      1.35396847321678
  H   0.97202800167653      0.14945992682390     -1.34924336828978
  N   1.65697000419084     -1.13852169072702      0.11124479638630
  H   1.57133418035655     -1.37806236636737      1.08830997981260
  H   1.44671200667471     -1.91140865267907     -0.50160934625909
  N   -1.22679625362575     -0.86970856391902     -0.13680275681272
  H   -2.15529149616576     -0.78261975692939      0.26178921148023
  H   -0.81794865804032     -1.72639211445544      0.21297493844078
  N   -1.05727345523095      1.46738008420550     -0.32520349149445
  O   -0.81885673425409      1.72478390271499     -1.49899821244387
  O   -1.83253380810956      2.07744583875109      0.40933322197153
