15

C	-0.486801	0.005243	-1.454852
C	0.0	0.0	0.0
Cl	-2.397654	-0.03353	-1.372424
H	1.095007	0.0	0.0
N	-0.004835	1.136319	-2.101396
H	-0.379615	1.27845	-3.027769
H	-0.089698	1.943235	-1.494695
C	-0.159136	-1.22519	-2.17534
N	0.079492	-2.215683	-2.760298
C	-0.479144	-1.183562	0.719553
N	-0.856904	-2.095154	1.357651
N	-0.381473	1.264685	0.617348
H	-1.283881	1.197311	1.071427
H	0.327563	1.508538	1.298782
Cl	3.238766	0.0	0.0
