15

C	-0.274261	0.116652	-1.505645
C	0.0	0.0	0.0
Cl	-2.009138	0.502997	-1.84627
H	1.105388	0.0	0.0
N	0.542234	1.204542	-1.979463
H	1.507993	1.028709	-1.685672
H	0.501945	1.265526	-2.989532
C	-0.017196	-1.164725	-2.18578
N	0.225044	-2.166414	-2.751822
C	-0.55787	-1.221754	0.568524
N	-0.990695	-2.201996	1.049232
N	-0.518915	1.17967	0.704023
H	0.044025	1.272577	1.544636
H	-0.276989	1.975019	0.118413
Cl	3.26922	0.0	0.0
