15

C	-0.563786	0.042139	-1.429043
C	0.0	0.0	0.0
Cl	0.22304	-1.298957	-2.39046
H	1.092952	0.0	0.0
N	-1.990783	-0.067	-1.399179
H	-2.250605	-0.982111	-1.045366
H	-2.375135	0.043402	-2.330253
C	-0.204493	1.305158	-2.081914
N	0.050121	2.277337	-2.688725
C	-0.476389	-1.237109	0.642548
N	-0.925266	-2.176356	1.189361
N	-0.422274	1.20617	0.687829
H	-1.336782	1.11035	1.106412
H	0.267065	1.443986	1.388819
Cl	3.258655	0.0	0.0
