15

C	-0.376465	-0.007122	-1.505272
C	0.0	0.0	0.0
Cl	0.180581	1.540012	-2.211713
H	1.095103	0.0	0.0
N	0.254927	-1.086372	-2.227238
H	-0.08938	-1.973087	-1.867114
H	1.255667	-1.031858	-2.031377
C	-1.837442	-0.068662	-1.656963
N	-3.008886	-0.135421	-1.720041
C	-0.447152	-1.284577	0.560692
N	-0.873327	-2.276244	1.02824
N	-0.507877	1.143582	0.720517
H	0.182074	1.453343	1.388721
H	-1.372512	0.93947	1.197624
Cl	3.257057	0.0	0.0
