15

C	-0.540379	0.03397	-1.440268
C	0.0	0.0	0.0
Cl	-0.062743	-1.452741	-2.309392
H	1.094738	0.0	0.0
N	-1.980391	0.115626	-1.399459
H	-2.195149	0.921816	-0.817829
H	-2.34546	0.27301	-2.332203
C	0.064342	1.176428	-2.152851
N	0.441656	2.142499	-2.705749
C	-0.501482	-1.186318	0.690146
N	-0.91636	-2.094787	1.308223
N	-0.467574	1.232271	0.665136
H	-0.888161	1.014151	1.558976
H	0.352294	1.802118	0.842768
Cl	3.254121	0.0	0.0
