15

C	-0.349033	0.109209	-1.499387
C	0.0	0.0	0.0
Cl	-2.13961	0.380525	-1.657499
H	1.096431	0.0	0.0
N	0.339966	1.204994	-2.124706
H	0.209256	1.99459	-1.495201
H	1.335113	0.976225	-2.093752
C	-0.049122	-1.142017	-2.20274
N	0.181489	-2.138911	-2.77985
C	-0.544505	-1.205736	0.623257
N	-1.019355	-2.135499	1.163891
N	-0.377753	1.239291	0.664159
H	0.307444	1.436057	1.382749
H	-1.296434	1.174227	1.081939
Cl	3.230911	0.0	0.0
