15

C	-0.541346	-0.040512	-1.43809
C	0.0	0.0	0.0
Cl	-0.017431	-1.550174	-2.243308
H	1.099695	0.0	0.0
N	-1.980353	0.006193	-1.400707
H	-2.217023	0.811959	-0.827888
H	-2.35014	0.138819	-2.334736
C	0.03398	1.085993	-2.202707
N	0.359136	2.009495	-2.852861
C	-0.501527	-1.146768	0.752665
N	-0.912042	-2.018358	1.425192
N	-0.481028	1.263337	0.601909
H	-0.76871	1.10172	1.558742
H	0.318534	1.886424	0.638749
Cl	3.252869	0.0	0.0
