15

C	-0.537463	-0.118522	-1.435878
C	0.0	0.0	0.0
Cl	-0.096521	-1.704674	-2.129359
H	1.102649	0.0	0.0
N	-1.97652	-0.000533	-1.410003
H	-2.173868	0.882923	-0.947186
H	-2.335585	0.038447	-2.357431
C	0.08903	0.92065	-2.27699
N	0.457896	1.782962	-2.986081
C	-0.497814	-1.105253	0.815874
N	-0.904096	-1.939477	1.536444
N	-0.452615	1.300134	0.527221
H	-0.975459	1.179513	1.385256
H	0.37597	1.846106	0.736266
Cl	3.245778	0.0	0.0
