15

C	-0.561934	0.010557	-1.430864
C	0.0	0.0	0.0
Cl	0.221911	-1.350413	-2.362751
H	1.095005	0.0	0.0
N	-1.990179	-0.09325	-1.399758
H	-2.372533	-0.004503	-2.333732
H	-2.252235	-1.000014	-1.026051
C	-0.200564	1.263434	-2.103307
N	0.014339	2.245773	-2.708795
C	-0.484477	-1.220496	0.666708
N	-0.961782	-2.143532	1.217594
N	-0.420309	1.221581	0.658228
H	0.261818	1.47444	1.361661
H	-1.343211	1.146238	1.059858
Cl	3.262551	0.0	0.0
