15

C	-0.33544	-0.196991	-1.497959
C	0.0	0.0	0.0
Cl	0.096013	1.354123	-2.375263
H	1.103751	0.0	0.0
N	0.399673	-1.322801	-1.943348
H	0.310909	-1.460225	-2.941835
H	1.381438	-1.204069	-1.68985
C	-1.775761	-0.378201	-1.718878
N	-2.931378	-0.531026	-1.866444
C	-0.459584	-1.18676	0.73272
N	-0.89375	-2.067973	1.378002
N	-0.514992	1.230234	0.558243
H	-1.324839	1.065466	1.141104
H	0.212459	1.670311	1.105826
Cl	3.269572	0.0	0.0
