15

C	-0.559904	-0.067354	-1.429248
C	0.0	0.0	0.0
Cl	0.223665	-1.482946	-2.280541
H	1.099051	0.0	0.0
N	-1.987704	-0.16743	-1.395514
H	-2.368387	-0.133309	-2.333653
H	-2.251786	-1.0495	-0.968402
C	-0.195612	1.138722	-2.179674
N	0.014685	2.072859	-2.85932
C	-0.479861	-1.184018	0.733561
N	-0.948606	-2.077877	1.337094
N	-0.419954	1.25643	0.592184
H	0.261384	1.536646	1.285619
H	-1.342678	1.199261	1.001305
Cl	3.259789	0.0	0.0
