15

C	-0.316097	-0.03016	-1.510488
C	0.0	0.0	0.0
Cl	0.060067	1.664329	-2.17036
H	1.102696	0.0	0.0
N	0.479478	-1.041048	-2.084312
H	0.411655	-1.060889	-3.093149
H	1.450692	-0.930645	-1.787939
C	-1.739946	-0.228878	-1.798661
N	-2.876019	-0.411868	-2.034462
C	-0.473103	-1.249324	0.594685
N	-0.879551	-2.212315	1.13059
N	-0.618598	1.135149	0.677169
H	-0.674498	0.924626	1.666365
H	0.012808	1.922073	0.580611
Cl	3.2945	0.0	0.0
