15

C	-0.579095	0.016579	-1.437421
C	0.0	0.0	0.0
Cl	0.033317	-1.406556	-2.323924
H	1.09315	0.0	0.0
N	-2.027042	0.011991	-1.49658
H	-2.327622	0.746941	-0.859423
H	-2.351502	-0.876683	-1.125939
C	-0.105126	1.235014	-2.109912
N	0.222754	2.236033	-2.628862
C	-0.510337	-1.183474	0.685355
N	-0.958141	-2.113515	1.246397
N	-0.508046	1.22177	0.658865
H	-0.694852	1.030875	1.635781
H	0.2533	1.893909	0.637522
Cl	3.25998	0.0	0.0
