15

C	-0.326826	-0.346081	-1.475167
C	0.0	0.0	0.0
Cl	0.089168	1.098646	-2.465205
H	1.106297	0.0	0.0
N	0.457933	-1.452398	-1.962925
H	1.431783	-1.27391	-1.709143
H	0.157075	-2.303185	-1.496759
C	-1.758254	-0.613036	-1.671594
N	-2.895008	-0.866776	-1.824247
C	-0.45469	-1.125313	0.817754
N	-0.832414	-2.031679	1.463596
N	-0.632537	1.236229	0.450954
H	-0.611854	1.255236	1.464094
H	-0.042459	1.999308	0.136905
Cl	3.298451	0.0	0.0
