15

C	-0.513681	0.02511	-1.443185
C	0.0	0.0	0.0
Cl	-2.426421	-0.007652	-1.318443
H	1.103464	0.0	0.0
N	-0.046078	1.163986	-2.086073
H	-0.453603	1.322031	-2.995283
H	-0.117423	1.960345	-1.463772
C	-0.213015	-1.195302	-2.190506
N	0.000834	-2.162384	-2.822302
C	-0.469881	-1.189412	0.71537
N	-0.850079	-2.101374	1.351828
N	-0.36813	1.257982	0.64114
H	-1.25401	1.184107	1.124404
H	0.362539	1.498591	1.299896
Cl	3.228323	0.0	0.0
