15

C	-0.489943	-0.169129	-1.442598
C	0.0	0.0	0.0
Cl	-2.404341	-0.19752	-1.349773
H	1.104885	0.0	0.0
N	-0.013294	0.876325	-2.221258
H	-0.389442	0.90338	-3.157355
H	-0.101971	1.750334	-1.716425
C	-0.166469	-1.475711	-2.013802
N	0.074578	-2.51646	-2.503176
C	-0.479249	-1.087409	0.856912
N	-0.878216	-1.911424	1.593695
N	-0.378002	1.330664	0.462426
H	0.335066	1.653254	1.104876
H	-1.276505	1.318563	0.927108
Cl	3.233551	0.0	0.0
