15

C	-0.247916	0.023817	-1.533745
C	0.0	0.0	0.0
Cl	-1.989982	0.40426	-1.900999
H	1.105577	0.0	0.0
N	0.579444	1.068571	-2.067491
H	0.583108	1.039998	-3.079916
H	1.533592	0.921707	-1.723479
C	-0.012679	-1.300255	-2.1353
N	0.200648	-2.331234	-2.658737
C	-0.57116	-1.198657	0.606284
N	-1.064479	-2.145418	1.096228
N	-0.420294	1.188041	0.70777
H	-1.349212	1.467805	0.413831
H	0.228973	1.931516	0.485332
Cl	3.25166	0.0	0.0
