15

C	-0.323641	0.028738	-1.50909
C	0.0	0.0	0.0
Cl	-2.107965	0.303548	-1.717692
H	1.106688	0.0	0.0
N	0.385875	1.082455	-2.183159
H	1.379827	0.854939	-2.108452
H	0.24129	1.911062	-1.608795
C	-0.020815	-1.262609	-2.134825
N	0.204346	-2.296209	-2.645063
C	-0.553394	-1.171985	0.676547
N	-1.043488	-2.073902	1.249739
N	-0.383792	1.273235	0.589581
H	0.276043	1.499751	1.323154
H	-1.318673	1.238736	0.974363
Cl	3.235736	0.0	0.0
