15
Coordinates from ORCA-job run
  C   1.03997404449237      0.20856659266353     -0.36339810167363
  C   -0.47333995107665      0.25088307087224     -0.17271585724638
  Cl  1.92232218261785      0.57857586504030      1.09912457472443
  H   -0.91533493983777      0.09208914247693     -1.15993198674315
  H   1.34220951713589      0.89979124996507     -1.14739953524937
  N   1.36281300308088     -1.17838182714965     -0.89065124444852
  O   0.97006716794655     -1.35995465046909     -2.03976034710624
  O   1.91944890810776     -1.98908559840283     -0.16724599595467
  N   -0.81310367563239      1.68472249698367      0.16119866182290
  O   -0.44746278104700      2.51990043072314     -0.66190690958801
  O   -1.41999129439636      1.91311682439415      1.20103864491047
  C   -1.01511864302546     -0.71947492304040      0.84898374968169
  H   -0.80461823707585     -1.74222029410057      0.52987924750460
  H   -2.09482810754409     -0.60344251935673      0.93532713071943
  H   -0.57203719374572     -0.55508586059975      1.82945796864646
