15
Coordinates from ORCA-job run
  C   1.02829139789987      0.19586681798042     -0.40242701012572
  C   -0.47774626646737      0.25287828813450     -0.16185749386232
  Cl  1.96148770528547      0.58654910534558      1.02273988100483
  H   -0.95363060401767      0.08340562863846     -1.13136785995940
  H   1.30876416932892      0.87032064125415     -1.20875656921565
  N   1.32310336494082     -1.20311521281462     -0.91330150180220
  O   1.89693258997356     -2.00492322761349     -0.19341354210471
  O   0.89053971072243     -1.40289902188419     -2.04497968980167
  N   -0.79391207239116      1.69346494033564      0.16320212410516
  O   -0.45282584581737      2.51370692088324     -0.68509296496763
  O   -1.35735517953734      1.94228482432280      1.22271364913723
  C   -0.99152756722220     -0.69966141735457      0.89056683614370
  H   -0.50687823577565     -0.53341739038927      1.85088151076164
  H   -2.06509734442294     -0.56725593501672      1.01937800502265
  H   -0.80914582249936     -1.72820496182194      0.57271462566408
