15
Coordinates from ORCA-job run
  C   0.75394524103987     -0.61234922411406     -0.44959173331012
  C   -0.45358607711535      0.24856070295406     -0.14509640487113
  Cl  0.55957207934744     -1.41217208367156     -2.01175330773586
  H   -0.58865462116880      0.98830824790852     -0.93330533911992
  H   0.94546551300770     -1.36499255735012      0.31054258153395
  N   2.00677162532190      0.22936795084555     -0.51721783965602
  O   3.04730157825767     -0.33218476948495     -0.20149648912591
  O   1.87843916013121      1.38606582030679     -0.90430507448585
  N   -0.16778652286159      1.04046453292280      1.10030396112629
  O   0.61550680959506      0.54815830550017      1.91147888095200
  O   -0.78438944946962      2.09004120349344      1.23234085251670
  C   -1.71726687743229     -0.55771738473724      0.10564137799401
  H   -2.53132117456715      0.12026947010983      0.36474635279860
  H   -1.56465438086961     -1.26028251249792      0.92811718534925
  H   -1.99934290321643     -1.11253770218530     -0.78840500396600
