15
Coordinates from ORCA-job run
  C   1.08933668104990      0.15314252020372     -0.21949688340412
  C   -0.42961505875201      0.30004299760076     -0.20669792576515
  Cl  1.80583026096893      0.34561696042464      1.36298263004731
  H   -0.75516105320237      0.24857632844254     -1.24912606496365
  H   1.53362203664471      0.87376687143002     -0.90282417777852
  N   1.37823019578432     -1.21303223390222     -0.81561501402862
  O   1.78180967252680     -2.11587803976294     -0.09976843108321
  O   1.11951276280757     -1.27949433257379     -2.01418598753998
  N   -0.70925803455080      1.72711572799561      0.20196122324182
  O   -0.18039785443970      2.59002757171530     -0.49407753528622
  O   -1.43214590057356      1.92468654487460      1.17165107222201
  C   -1.15933157123382     -0.69836620755199      0.65924894745322
  H   -0.83128651269306     -0.64306824685029      1.69561078063893
  H   -2.23093590933194     -0.50550715829266      0.62665597769932
  H   -0.98120971500497     -1.70762930375331      0.28268138854686
