16

C	0.0	0.0	0.0
C	-0.347511	-0.055684	-1.589209
Cl	1.751964	0.0	0.0
H	0.580896	-0.400423	-2.04198
N	-0.47337	1.168069	0.84696
O	-0.582904	2.254061	0.304472
O	-0.578887	0.935315	2.041853
C	-0.465416	-1.246943	0.595388
N	-0.629587	-2.340976	0.994435
N	-0.469847	1.359841	-2.123033
O	-1.582054	1.806875	-2.352999
O	0.595309	1.948936	-2.313262
N	-1.421441	-0.835732	-2.053314
H	-1.154477	-1.810865	-1.996936
H	-2.184069	-0.633403	-1.36335
F	-2.4238	0.0	0.0
