14

C	0.0	0.0	0.0
C	-0.528746	0.157904	-1.401995
Cl	1.786449	0.0	0.0
H	-0.123907	1.050108	-1.875316
H	-0.245191	-0.723469	-1.981126
H	-1.620293	0.220395	-1.342239
N	-0.349303	1.25083	0.820252
O	-0.442658	2.310419	0.211773
O	-0.44083	1.116508	2.034755
C	-0.528317	-1.222965	0.704154
H	-1.619914	-1.143128	0.737096
H	-0.124368	-1.299764	1.711612
H	-0.243688	-2.105984	0.128104
Br	-3.980229	0.0	0.0
