14

C	0.0	0.0	0.0
C	-0.527398	-0.117866	-1.407342
Cl	1.78648	0.0	0.0
H	-1.619268	-0.042485	-1.363594
H	-0.244876	-1.096491	-1.802564
H	-0.121462	0.664193	-2.045162
N	-0.351133	1.385924	0.561545
O	-0.445749	1.489418	1.778894
O	-0.442929	2.307141	-0.241638
C	-0.527546	-1.065099	0.926442
H	-0.133172	-0.938267	1.933579
H	-0.230685	-2.041522	0.538846
H	-1.620597	-0.990269	0.935564
Br	-3.976018	0.0	0.0
