18

C	-0.454972	-0.004206	-1.453475
C	0.0	0.0	0.0
Cl	-2.308843	-0.264925	-1.503776
H	1.091938	0.0	0.0
N	-0.051206	1.109553	-2.188797
H	-0.322293	1.03281	-3.159629
H	-0.36366	1.975948	-1.77932
N	0.082903	-1.214426	-2.22384
O	-0.116817	-1.196478	-3.435738
O	0.675519	-2.084383	-1.609447
N	-0.504201	-1.179995	0.694532
H	0.283964	-1.738538	0.984366
H	-1.031103	-0.912146	1.514721
C	-0.421819	1.293413	0.690742
H	0.053529	2.168029	0.240713
H	-1.509736	1.417846	0.691677
H	-0.067696	1.250654	1.723704
Br	3.563878	0.0	0.0
