18

C	-0.293582	0.099143	-1.52138
C	0.0	0.0	0.0
Cl	-1.939901	0.712149	-1.858983
H	1.096963	0.0	0.0
N	0.650985	0.870748	-2.2709
H	1.588613	0.626306	-1.940693
H	0.497495	1.850436	-2.069114
N	-0.222398	-1.334092	-2.066698
O	0.904431	-1.718522	-2.35551
O	-1.239539	-2.021161	-2.080411
N	-0.497544	-1.17259	0.687586
H	-1.452317	-1.377243	0.415045
H	0.080955	-1.973833	0.467228
C	-0.440816	1.258912	0.731948
H	0.05149	1.258806	1.704857
H	-1.522966	1.273053	0.883424
H	-0.147714	2.166872	0.199532
Br	3.554046	0.0	0.0
