16

C	-0.494055	-0.00741	-1.456477
C	0.0	0.0	0.0
Br	0.485542	1.548238	-2.352048
H	1.095279	0.0	0.0
C	-0.060813	-1.257461	-2.200315
H	-0.580699	-2.117683	-1.771662
H	-0.31764	-1.175786	-3.259662
H	1.016636	-1.400048	-2.116813
N	-1.894569	0.156834	-1.515232
H	-2.202988	1.029097	-1.10192
H	-2.259038	0.070216	-2.454967
C	-0.468745	-1.197531	0.681516
N	-0.80683	-2.194409	1.21309
C	-0.470939	1.181863	0.703892
N	-0.873914	2.138635	1.263643
Br	2.744848	0.0	0.0
