16

C	-0.486409	-0.065575	-1.485418
C	0.0	0.0	0.0
Br	0.069227	1.62321	-2.320203
H	1.10757	0.0	0.0
C	0.226039	-1.208234	-2.183368
H	-0.098436	-2.160337	-1.749784
H	1.304954	-1.110892	-2.047784
H	-0.03052	-1.198305	-3.243102
N	-1.915176	-0.170086	-1.659402
H	-2.22769	-1.053672	-1.267928
H	-2.386064	0.584809	-1.171437
C	-0.460718	-1.217042	0.672557
N	-0.873957	-2.207862	1.151715
C	-0.538629	1.159947	0.703182
N	-1.025533	2.072664	1.260748
Br	3.366536	0.0	0.0
