16

C	-0.487075	-0.005453	-1.469263
C	0.0	0.0	0.0
Br	-2.458072	0.064068	-1.523343
H	1.099234	0.0	0.0
C	0.031754	1.227627	-2.210272
H	-0.285499	1.181601	-3.258183
H	-0.345311	2.156579	-1.767981
H	1.128554	1.237436	-2.172573
N	-0.083092	-1.19409	-2.206602
H	0.919257	-1.331814	-2.049929
H	-0.562765	-2.010238	-1.828827
C	-0.430066	-1.254564	0.715259
N	0.112372	-2.325648	0.765116
C	-0.396657	1.233459	0.808338
N	0.000522	1.597799	1.878545
Br	2.715761	0.0	0.0
