18

C	-0.173267	0.000347	-1.481226
C	-0.012739	0.00751	0.05411
Cl	-1.968595	-0.141171	-1.882811
H	1.082415	-0.021226	0.142276
C	0.347005	1.288339	-2.082853
H	1.398843	1.366843	-1.781065
H	0.288379	1.205609	-3.168771
H	-0.221545	2.159171	-1.753878
N	0.526135	-1.092565	-2.091211
H	0.218108	-1.96171	-1.661679
H	1.516503	-0.940975	-1.783835
C	-0.529369	-1.231253	0.628745
N	-0.941582	-2.214871	1.123372
C	-0.583676	1.216123	0.794366
H	-1.64513	1.350122	0.572694
H	-0.040573	2.117439	0.506734
H	-0.467151	1.086529	1.873372
H	2.80881	-0.220887	-0.75136
