17

C	0.0	0.0	0.0
C	-0.274847	0.136351	-1.548931
F	1.35531	0.0	0.0
H	0.675839	-0.213466	-1.957806
N	-0.416072	1.101791	0.940993
O	-0.396947	0.791905	2.127436
O	-0.57519	2.227126	0.495532
C	-0.48197	-1.286616	0.499031
N	-0.583921	-2.40871	0.841493
N	-0.248831	1.586581	-1.981297
O	0.856696	2.127879	-1.977198
O	-1.289193	2.115801	-2.354888
C	-1.389826	-0.603536	-2.249261
H	-2.344817	-0.175958	-1.976151
H	-1.202947	-0.540424	-3.32943
H	-1.383536	-1.652186	-1.944158
F	-2.252891	0.0	0.0
