17

C	0.0	0.0	0.0
C	-0.275324	-0.041269	-1.524581
F	1.356116	0.0	0.0
H	0.469221	0.640757	-1.945469
N	-0.320595	1.300779	0.702827
O	-0.607899	1.248907	1.890488
O	-0.093163	2.317373	0.058337
C	-0.501569	-1.141954	0.756086
N	-0.587918	-2.181981	1.302641
N	-1.568426	0.490967	-2.09824
O	-1.702293	1.708615	-2.110776
O	-2.305611	-0.297975	-2.678466
C	-0.055377	-1.462104	-2.008953
H	-0.021324	-1.492777	-3.098741
H	0.885554	-1.84844	-1.612298
H	-0.879351	-2.086648	-1.668618
F	-2.217345	0.0	0.0
