15

C	0.0	0.0	0.0
C	-0.505651	0.170258	-1.479867
F	1.377946	0.0	0.0
H	-1.383497	0.810177	-1.456479
C	-0.403649	1.119672	0.867899
N	-0.508365	2.04487	1.58528
C	-0.42314	-1.295285	0.551253
N	-0.514231	-2.389711	0.971017
N	-0.805291	-1.008183	-2.204315
H	-0.125584	-1.742463	-2.052159
H	-1.72891	-1.30797	-1.904436
N	0.596179	0.948196	-2.163105
O	1.379098	0.341335	-2.884734
O	0.641818	2.148321	-1.899415
Br	-3.323436	0.0	0.0
