17

C	-0.535924	0.028806	-1.426278
C	0.0	0.0	0.0
F	0.166816	-0.829364	-2.257286
H	1.09424	0.0	0.0
H	-0.348438	1.042044	-1.799882
C	-2.006728	-0.321991	-1.552298
H	-2.159471	-1.365449	-1.269456
H	-2.323025	-0.202346	-2.590221
H	-2.62971	0.314227	-0.920621
N	-0.453236	-1.262127	0.660251
O	-1.175174	-1.183537	1.661506
O	-0.112957	-2.321043	0.136122
C	-0.449822	1.212443	0.795079
H	-0.054068	1.155157	1.808032
H	-1.535282	1.310107	0.855988
H	-0.02603	2.102284	0.322919
Cl	3.364028	0.0	0.0
