17

C	-0.4989	-0.012868	-1.441157
C	0.0	0.0	0.0
F	-0.184875	1.235312	-1.99403
H	1.091374	0.0	0.0
H	-1.594793	-0.086985	-1.455025
C	0.154661	-1.097723	-2.268051
H	1.241438	-1.029152	-2.160543
H	-0.17331	-2.087291	-1.936048
H	-0.121802	-0.97573	-3.31805
N	-0.481179	-1.27925	0.607031
O	-1.70373	-1.392481	0.761064
O	0.337098	-2.153659	0.882232
C	-0.533084	1.169647	0.805243
H	-0.152392	2.091301	0.366066
H	-0.168983	1.107117	1.83333
H	-1.624752	1.185153	0.809098
Cl	3.458163	0.0	0.0
