12
Coordinates from ORCA-job run
  C   0.51189893990308      0.05632611562533     -0.49724332306610
  C   -0.63065500184029     -0.02557282914518      0.52145003411338
  H   0.29501392970979     -0.52546534075351     -1.39227542104046
  H   -0.76908165494365     -1.07112957728571      0.80936920597035
  H   0.73898463677317      1.09219517310929     -0.75046785230274
  H   -0.33974122096804      0.52644878609656      1.41778932624768
  N   1.74424256867455     -0.52027146331011      0.10524066732152
  O   2.02604811365734     -1.68308788431672     -0.17913577583209
  O   2.35486517391334      0.19332897170676      0.89952290413961
  N   -1.89883851541682      0.49507880953924      0.04254483793993
  H   -1.81964982266032      1.47365110338753     -0.20219185545509
  H   -2.21408714680216     -0.01150186465347     -0.77460274803599
