13
Coordinates from ORCA-job run
  C   -0.30773230915359     -0.27476148754784     -0.49375982171488
  C   0.58070415553954      0.28091724317726      0.59463598584429
  F   0.06544888150124      0.34164949199473     -1.68674191489493
  H   0.34375645354940     -0.16717907975708      1.56140908987469
  H   -0.11258588799401     -1.34233917456305     -0.61383521255054
  H   0.51800389507044      1.36669268056272      0.64382447166819
  C   -1.77025423849712      0.00199179012502     -0.23418994020229
  H   -1.94254190243222      1.07424868530963     -0.12182321976337
  H   -2.36438788021020     -0.35429771069079     -1.07653021862995
  H   -2.10968997482776     -0.50957285248211      0.66910420975328
  N   2.01109466314529     -0.05178148500032      0.31647966156095
  O   2.27158043781005     -1.23746997899979      0.13046744945438
  O   2.81760370649895      0.87290187787161      0.30995945960018
