13
Coordinates from ORCA-job run
  C   -0.37638978799765     -0.67064906943644     -0.43273731792239
  C   1.04828229339544     -0.14953321655677     -0.30146290968863
  F   -0.48343184118088     -1.13810274750855     -1.74139899154583
  H   1.22603663032568      0.67622059038195     -0.98777833693584
  H   -0.51306369840223     -1.52803921681485      0.23011425488090
  H   1.76414939542558     -0.95525817474300     -0.46265747527611
  C   -1.42726949805779      0.38518616354691     -0.19286070056571
  H   -1.40625208486010      0.73028693952756      0.84267885127849
  H   -1.26606394012938      1.24061326102296     -0.85186499838111
  H   -2.41524715183393     -0.03088193897325     -0.39481308990911
  N   1.24772697411430      0.35735287543622      1.08068306044844
  O   1.39023365046771      1.56819053969540      1.23516200223690
  O   1.21028905873326     -0.48338600557813      1.97793565138000
