13
Coordinates from ORCA-job run
  C   -0.39506711538957     -0.71264099927086     -0.33677250062998
  C   1.05248982588867     -0.26745483654804     -0.17883609261782
  F   -0.44261338594032     -1.40633245068581     -1.54482909499812
  H   1.71313424900010     -1.13309910774335     -0.13609235838504
  H   -0.64576032444212     -1.42250679824984      0.45468281485246
  H   1.34288138188875      0.40782458304140     -0.98145168977750
  C   -1.37539815687712      0.43344846708940     -0.38177592653044
  H   -1.40075780799770      0.96524434067676      0.57133532123862
  H   -1.10206757047278      1.13761700865548     -1.17010194826364
  H   -2.37596145320775      0.05011448684483     -0.58648744386427
  N   1.19025215901039      0.46708960601091      1.10516667488670
  O   1.02529591134876     -0.19412132917793      2.12932472269200
  O   1.41257228719070      1.67481702935705      1.05683752139701
