13
Coordinates from ORCA-job run
  C   -0.32189237299966     -0.63333980994179     -0.52319340145078
  C   1.06365052841229     -0.04951453024543     -0.28228619208877
  F   -0.36556271749117     -0.94214458353485     -1.88156069850295
  H   1.20702819384773      0.86340214840264     -0.85717058971082
  H   -0.42166262805899     -1.57223311683765      0.02616117756939
  H   1.83204696928704     -0.78609177411353     -0.51583598599830
  C   -1.44270070764570      0.32121299321576     -0.19219462250000
  H   -2.39620124946749     -0.12238514025091     -0.48215203803171
  H   -1.31536654629157      1.26191467148911     -0.73146725608743
  H   -1.47433648401811      0.53125502029023      0.87865057294849
  N   1.19420848589303      0.29448375607830      1.15692259482753
  O   1.24726995952056      1.48374378681097      1.46249516211406
  O   1.19451856901206     -0.65130342136286      1.94363127691128
