13
Coordinates from ORCA-job run
  C   -0.48193913989539     -0.75709590545140     -0.19510675015027
  C   0.69224667145996     -0.50624142590573      0.73811715802326
  F   -0.00044820705435     -1.31194925635040     -1.37478024787330
  H   1.36524765824614     -1.36268297330145      0.72830285295806
  H   -1.11017542212043     -1.51869673436501      0.27967409649573
  H   0.34400450215693     -0.28556880512248      1.74623036680290
  C   -1.29078733759388      0.47393977962612     -0.53130498392625
  H   -1.64932795109048      0.96856777263104      0.37316455406159
  H   -2.14633879855491      0.18900957069761     -1.14450218218051
  H   -0.68387224182306      1.18237685268156     -1.09646053335525
  N   1.47318007216904      0.67636398836953      0.28466322907964
  O   2.29819718204461      0.49404638148432     -0.60654799450769
  O   1.19201301205583      1.75893075500629      0.79855043457210
