13

C	0.0	0.0	0.0
C	-0.536228	-0.124097	-1.45103
Cl	1.780998	0.0	0.0
H	0.334336	-0.166613	-2.114245
H	-0.326465	0.928297	0.466019
H	-0.326352	-0.843186	0.604678
N	-1.368542	0.988337	-1.901119
H	-2.256073	0.934469	-1.398774
H	-0.93146	1.878916	-1.683798
N	-1.235012	-1.393057	-1.568418
H	-2.089119	-1.313865	-1.013506
H	-1.548366	-1.467582	-2.530617
Cl	-3.953594	0.0	0.0
