13

C	0.0	0.0	0.0
C	-0.473651	-0.027482	-1.458649
Cl	1.791669	0.0	0.0
H	0.082118	-0.845379	-1.949276
H	-0.324231	-0.888536	0.539885
H	-0.350145	0.905963	0.491304
N	-0.193571	1.277777	-2.052118
H	-0.714607	1.309083	-2.920168
H	0.791111	1.368786	-2.262266
N	-1.871059	-0.295534	-1.662716
H	-2.106463	-1.250596	-1.427734
H	-2.501696	0.277529	-1.103304
Cl	-4.661347	0.0	0.0
