13

C	0.0	0.0	0.0
C	-0.498427	0.546425	-1.382964
Cl	1.785588	0.0	0.0
H	0.362714	0.479215	-2.058817
H	-0.315201	-1.03149	0.154798
H	-0.352211	0.61069	0.830066
N	-0.895968	1.949121	-1.321543
H	-0.235881	2.457613	-0.741477
H	-1.806842	1.993421	-0.8695
N	-1.578396	-0.199128	-1.980348
H	-1.317699	-1.174123	-2.063703
H	-2.41671	-0.155466	-1.394258
Cl	-4.139962	0.0	0.0
