18

C	0.0	0.0	0.0
C	-0.349604	-0.349641	-1.478982
F	1.365783	0.0	0.0
H	0.517902	0.044991	-2.015618
N	-0.245419	1.522761	0.274362
O	0.173259	2.304547	-0.573767
O	-0.756149	1.835595	1.345041
N	-0.581197	-0.811899	0.965922
H	-0.471559	-0.399723	1.884777
H	-1.58414	-0.870462	0.775881
C	-1.594516	0.264629	-2.082797
H	-2.505212	-0.044019	-1.571419
H	-1.654005	-0.047685	-3.126635
H	-1.557334	1.352688	-2.05186
N	-0.377235	-1.795204	-1.688765
H	0.341897	-2.236919	-1.126618
H	-1.268966	-2.14925	-1.357582
Br	-4.395235	0.0	0.0
