18

C	0.0	0.0	0.0
C	-0.530248	0.124914	-1.419915
F	1.359821	0.0	0.0
H	-1.579084	0.415179	-1.321414
N	-0.283545	1.336633	0.774405
O	-0.805178	2.28549	0.20882
O	0.071082	1.320475	1.953615
N	-0.513972	-1.090795	0.709376
H	-1.535225	-1.066154	0.621625
H	-0.264637	-0.997155	1.687421
C	-0.459369	-1.221439	-2.128841
H	-1.075568	-1.968821	-1.630408
H	0.573457	-1.585361	-2.156107
H	-0.819787	-1.099201	-3.15411
N	0.237159	1.160825	-2.115514
H	-0.394745	1.834762	-2.523338
H	0.791803	0.746273	-2.852807
Br	-3.811273	0.0	0.0
