18

C	0.0	0.0	0.0
C	-0.499772	0.004373	-1.440996
F	1.351074	0.0	0.0
H	-1.566294	-0.250294	-1.381847
N	-0.176311	1.441681	0.719269
O	-1.145888	2.125701	0.412821
O	0.610091	1.685526	1.636212
N	-0.463446	-1.043455	0.798532
H	-1.480038	-1.082687	0.889141
H	0.032921	-1.055544	1.678394
C	0.273698	-1.064858	-2.198831
H	0.239839	-2.022431	-1.677997
H	-0.158175	-1.194052	-3.195234
H	1.316239	-0.754864	-2.303666
N	-0.237907	1.306196	-2.05108
H	-1.011609	1.921819	-1.824414
H	-0.212503	1.189796	-3.061285
Br	-3.667559	0.0	0.0
