18

C	0.0	0.0	0.0
C	-0.50857	0.283935	-1.417575
F	1.358333	0.0	0.0
H	-1.561821	0.558615	-1.320251
N	-0.262341	1.230234	0.962054
O	-0.42826	2.35333	0.494957
O	-0.20268	0.976845	2.162278
N	-0.509353	-1.168123	0.562108
H	-1.530021	-1.14342	0.454626
H	-0.287266	-1.190276	1.551106
C	-0.394895	-0.990335	-2.24916
H	0.644709	-1.338416	-2.275699
H	-0.710155	-0.755766	-3.266644
H	-1.015563	-1.79012	-1.851816
N	0.207374	1.353637	-2.108846
H	1.203632	1.173769	-2.041847
H	0.025426	2.220346	-1.622053
Br	-3.746003	0.0	0.0
