18

C	0.0	0.0	0.0
C	-0.451835	0.194059	-1.446354
F	1.385834	0.0	0.0
H	0.268872	0.903583	-1.873382
N	-0.253904	1.30347	0.800871
O	0.097202	2.347557	0.261047
O	-0.710581	1.205181	1.935423
N	-0.537758	-1.10321	0.638483
H	-1.266027	-1.525908	0.077722
H	-0.846044	-0.892882	1.576905
C	-1.856208	0.757374	-1.572224
H	-2.617652	0.192287	-1.028793
H	-2.144937	0.757784	-2.627779
H	-1.89864	1.789781	-1.223071
N	-0.394511	-1.129122	-2.06955
H	0.56847	-1.433615	-2.152645
H	-0.79339	-1.074644	-2.997723
Br	-5.045795	0.0	0.0
