16
Coordinates from ORCA-job run
  C   -0.75041414623212     -0.13431322447044      0.07140884684891
  C   0.69739769361359     -0.48678084341585     -0.26173498838059
  F   -1.37163521070144     -1.19482144826685      0.58528285520111
  H   0.65861631154088     -1.23561984003850     -1.05860374877041
  N   -1.53361183094901      0.27885364554119     -1.16688030321793
  O   -0.91429414648911      0.37107127137761     -2.22026163000767
  O   -2.74696497402265      0.27686212139126     -1.01612447067408
  N   -0.91944924610624      1.03668979720321      1.03065133692161
  O   -1.37641595890111      0.79330661226182      2.13099793219532
  O   -0.56010493181514      2.11448216099342      0.57073589807738
  N   1.20354021079876     -1.26046338270511      0.95033783722498
  O   1.59305867726936     -2.40600678234675      0.74365455267154
  O   1.16572614019757     -0.67403385805215      2.02495308861022
  N   1.55596265206521      0.61260414642476     -0.49936158083498
  H   2.21295074734186      0.41676332210163     -1.23822392366492
  H   1.08563801238959      1.49040630200075     -0.64583170220047
