16
Coordinates from ORCA-job run
  C   -0.67004777967965      0.37473652113141     -0.44553385929389
  C   0.73824265905955     -0.22035911863056     -0.44173979272907
  F   -0.82882466535333      1.09798589943292     -1.55286834804901
  H   0.81457412222128     -0.78628173037861     -1.37402575374718
  N   -0.90204374773923      1.26649473325566      0.75130923700725
  O   -1.67367800695769      2.19894486983240      0.59941635628887
  O   -0.29629226880964      0.94068502169329      1.76731937852395
  N   -1.78041902289073     -0.67013342180602     -0.44983453339085
  O   -2.49654379608948     -0.74384203453632      0.53660151977128
  O   -1.83570072089812     -1.31657357041328     -1.48407375289843
  N   0.89913435984801     -1.28260926412542      0.66194396606995
  O   0.04470940193593     -2.15983854061624      0.69554938311054
  O   1.88938437096589     -1.19366355887927      1.37182044595186
  N   1.68447080287070      0.82296421427546     -0.38925094219633
  H   2.56077938908079      0.55385387429240     -0.81179446095283
  H   1.85225490243572      1.11563610547217      0.56516115653390
