16
Coordinates from ORCA-job run
  C   -0.53665591092806      0.34200118857088     -0.48777469650378
  C   0.77273047726592     -0.44023387036509     -0.26428332393916
  F   -0.37768060320917      1.09912570007119     -1.58090287715163
  H   0.82653672764603     -1.19367308875928     -1.05200705388794
  N   -0.90878454952811      1.28039378233515      0.65212763360370
  O   -0.14896509185323      2.23084249054814      0.77928378295498
  O   -1.90712441431488      1.01825016545781      1.30323275615512
  N   -1.72677222649568     -0.56455666321253     -0.70628093363851
  O   -1.69216359665337     -1.62715638778958     -0.09687598010879
  O   -2.60054149736195     -0.14536756080920     -1.44923268022235
  N   0.73341578343762     -1.20348217970447      1.03330678304035
  O   0.47888420005845     -0.53176107695156      2.02955989397013
  O   1.03109438040689     -2.38734403302169      0.99568670325067
  N   1.95452354772132      0.35170194471897     -0.25301292554827
  H   2.26298834920238      0.57200914011156     -1.18874617062406
  H   1.83851442460587      1.20025044879970      0.28591908864954
