12

C	-0.573381	-0.045231	-1.403269
C	0.0	0.0	0.0
F	-0.143078	1.032866	-2.160793
H	1.095722	0.0	0.0
H	-1.664726	0.008764	-1.339773
H	-0.346773	0.93645	0.446405
C	-0.236846	-1.293725	-2.111633
N	-0.002189	-2.281188	-2.702914
N	-0.576374	-1.13905	0.736463
H	0.075531	-1.910979	0.647017
H	-0.58941	-0.908107	1.721568
Cl	3.502846	0.0	0.0
