12

C	-0.580717	-0.052566	-1.399722
C	0.0	0.0	0.0
F	-0.15371	1.019536	-2.165336
H	1.097975	0.0	0.0
H	-1.672275	-0.001415	-1.332988
H	-0.346993	0.93767	0.444098
C	-0.241014	-1.306609	-2.097339
N	0.019467	-2.295381	-2.672444
N	-0.575054	-1.136836	0.739909
H	-0.55639	-0.913502	1.727055
H	0.062543	-1.918535	0.628263
Cl	3.51233	0.0	0.0
