12

C	-0.50515	-0.002446	-1.435838
C	0.0	0.0	0.0
F	-0.030521	1.10499	-2.122423
H	1.093287	0.0	0.0
H	-1.600961	0.076091	-1.44967
H	-0.348037	-0.919707	0.483708
C	-0.140642	-1.222583	-2.176324
N	0.11669	-2.200272	-2.771231
N	-0.447542	1.168995	0.747847
H	0.164581	1.941807	0.52489
H	-1.391708	1.433142	0.490595
Cl	3.48488	0.0	0.0
