16

C	-0.361853	-0.083967	-1.480619
C	0.0	0.0	0.0
Br	-0.082029	1.883012	-2.105247
H	1.088466	0.0	0.0
H	-0.454225	0.852944	0.497301
C	0.657794	-0.884289	-2.26453
H	1.644223	-0.601521	-1.883044
H	0.568861	-0.708744	-3.339743
H	0.489728	-1.939954	-2.042114
N	-1.696811	-0.476978	-1.711976
H	-1.921157	-0.485661	-2.69886
H	-2.351318	0.116922	-1.218082
N	-0.486095	-1.196909	0.714455
O	-0.137102	-2.306734	0.315175
O	-1.205545	-1.021161	1.705676
F	2.603118	0.0	0.0
