16

C	-0.30591	0.068229	-1.461302
C	0.0	0.0	0.0
Br	-2.484014	0.602296	-1.60962
H	1.093869	0.0	0.0
H	-0.342592	0.899362	0.50444
C	0.387393	1.282209	-2.035195
H	1.441772	1.143965	-1.767627
H	0.009224	2.198553	-1.584295
H	0.253376	1.3391	-3.117647
N	-0.080248	-1.067175	-2.190623
H	-0.413704	-1.913206	-1.753899
H	-0.295502	-0.981025	-3.171428
N	-0.541849	-1.124537	0.754967
O	-0.792347	-0.931524	1.944682
O	-0.675508	-2.227054	0.207366
F	2.541991	0.0	0.0
