16

C	-0.476265	-0.039767	-1.453175
C	0.0	0.0	0.0
Br	-0.05561	1.722477	-2.260998
H	1.088212	0.0	0.0
H	-0.399345	-0.898948	0.484789
C	0.393882	-1.079669	-2.13886
H	0.234141	-1.067251	-3.218652
H	0.117275	-2.070767	-1.753738
H	1.434742	-0.882729	-1.863934
N	-1.885762	-0.267913	-1.706483
H	-2.414432	0.330681	-1.078197
H	-2.084258	-1.22599	-1.431776
N	-0.590647	1.135179	0.746422
O	0.146406	2.016798	1.176639
O	-1.82503	1.139339	0.895333
F	2.62838	0.0	0.0
