16
Coordinates from ORCA-job run
  C   -0.75937449367052      0.48351066098039      0.10192186485826
  C   0.72399499632232      0.45033667721395     -0.35851800079599
  Br  -1.88011701551924      0.94217398266186     -1.45076485785053
  H   0.94625970400368      1.42963507607678     -0.79693994786042
  C   -1.24210101450195     -0.83698111559732      0.69120955458125
  H   -0.60689595435040     -1.11142331398818      1.53812036073483
  H   -2.26975360561983     -0.73611446450889      1.04117262330196
  H   -1.20781828919954     -1.62508583085678     -0.06093482382170
  C   -0.93390792514001      1.56765283263086      1.06657758321743
  N   -1.05895350381849      2.42376469553844      1.86279242457890
  C   1.05121751658119     -0.64929049699326     -1.37274959379870
  H   0.94812648992801     -1.64044751838966     -0.93013888467723
  H   2.08550104680004     -0.53568870476845     -1.70191660896408
  H   0.40140795642676     -0.57257810961125     -2.24425282611673
  C   1.56550253023408      0.29024975720024      0.83228702747813
  N   2.23691156152391      0.11928587241126      1.78113410513461
