16
Coordinates from ORCA-job run
  C   -0.59498178262881      0.32349399969620      0.38858293312235
  C   0.57289549470348     -0.35757665281865     -0.36752290711447
  Br  -0.46293731669036      2.27556004766935      0.20854785355537
  H   0.41839156043440     -1.43585958667792     -0.22134806609138
  C   -1.95685331258038     -0.12014886097067     -0.13827304615381
  H   -2.04599488953365     -1.20652137516731     -0.04356871994013
  H   -2.05969798941229      0.16030513130740     -1.18747587355884
  H   -2.75666014404833      0.35012003575642      0.43434126302488
  C   -0.47321531988270      0.00779355741673      1.80988531428212
  N   -0.38020407591347     -0.29574184951366      2.94200822127723
  C   1.96813325491803      0.00966411938838      0.14192479387708
  H   2.17833500415411      1.06515138306061     -0.02897860408260
  H   2.71694199600270     -0.58343850293880     -0.38584517298679
  H   2.04821837344311     -0.20273613665814      1.20963521167734
  C   0.45352220726513     -0.09574717175060     -1.80326956999119
  N   0.37510693976902      0.10568186220066     -2.95764363089715
