16
Coordinates from ORCA-job run
  C   -0.75514704072895      0.49488653529198      0.07680385348855
  C   0.73388844218151      0.42994518408589     -0.36174111382003
  Br  -1.84916686546077      0.91626600401115     -1.50515089326497
  H   0.97396268809952      1.39284848691688     -0.82626356783239
  C   -1.26195248710045     -0.79998468450453      0.70154542145539
  H   -0.64287679939251     -1.05344096789809      1.56670046311569
  H   -2.29349845555900     -0.67615285538964      1.03211648031407
  H   -1.22557749288664     -1.61279979335719     -0.02369237247437
  C   -0.92903637702694      1.61161250337932      1.00357624146052
  N   -1.05288148971045      2.49615793035486      1.76843082603848
  C   1.06163224683589     -0.70303665596369     -1.33853309286288
  H   0.93459742889511     -1.67966915193520     -0.87042599505399
  H   0.42895775772670     -0.64055385351416     -2.22375844089319
  H   2.10358845341194     -0.61477466082983     -1.65098191284856
  C   1.55699895425055      0.29519033774444      0.84484513069084
  N   2.21451103646450      0.14350564160780      1.80652897248677
