16
Coordinates from ORCA-job run
  C   -0.71531208021422      0.49195146631715      0.21957917161114
  C   0.58961798805548      0.34753837283861     -0.59976478356412
  Br  -1.54566756313750      2.21075754977680     -0.25143127154239
  H   0.30224355179405      0.42311301349304     -1.65524909971925
  C   -1.71621073484960     -0.61975313251113     -0.08498016830501
  H   -1.90185761260989     -0.66446990893438     -1.16039582230271
  H   -1.33189940046244     -1.58116155406815      0.26092262194355
  H   -2.65894141070778     -0.42278172822614      0.42563898437141
  C   -0.40861862702761      0.52504120755404      1.64689459064525
  N   -0.15204393116295      0.49106314658196      2.79377518093900
  C   1.29694322275152     -0.99059640362477     -0.34778519009446
  H   1.51349080964428     -1.12092085365730      0.71472406819754
  H   0.68986926092871     -1.82586254731779     -0.69739887909129
  H   2.24294198262465     -1.00920793684113     -0.89131185113787
  C   1.50783638611426      1.45059268551212     -0.30678398987740
  N   2.28660815825906      2.29569662310705     -0.06543356207343
