16
Coordinates from ORCA-job run
  C   -0.62308838466871      0.18167420263583      0.43407236750006
  C   0.59852618528623     -0.21930590383474     -0.43030396903555
  Br  -0.41012796243676      2.02320269864950      1.08453013832924
  H   0.39492753753338     -1.25041302641369     -0.75178464603769
  C   -1.93233029694394      0.09171150666306     -0.34501265825159
  H   -1.90999584135646      0.77948452185016     -1.19144449201507
  H   -2.06647086590879     -0.93011559552260     -0.71238356540583
  H   -2.77462226192925      0.34823840531486      0.29797294813365
  C   -0.66823307086374     -0.69185346643446      1.60431204695034
  N   -0.71089087548131     -1.43592705280635      2.51366561359293
  C   1.94054059728739     -0.19265148401422      0.30400164296232
  H   2.72424230011985     -0.57145088303865     -0.35430966137246
  H   2.19947544863642      0.82277268729942      0.60284001133372
  H   1.89753069172612     -0.82678295809981      1.19146581300054
  C   0.64430089932174      0.60766907856603     -1.63765815888580
  N   0.69721589967787      1.26274726918566     -2.61096343079886
