12

C	-0.485541	0.060246	-1.428302
C	0.0	0.0	0.0
Cl	-2.269606	0.290931	-1.508618
H	1.093102	0.0	0.0
H	-0.047188	0.965199	-1.854492
H	-0.347817	0.874735	0.547444
C	-0.103768	-1.057141	-2.2885
N	0.212898	-1.889261	-3.052451
N	-0.496731	-1.178682	0.749099
O	-0.72195	-2.212481	0.125063
O	-0.62006	-1.038241	1.963441
Br	3.39206	0.0	0.0
