12

C	-0.48449	0.037091	-1.430307
C	0.0	0.0	0.0
Cl	-2.271777	0.230349	-1.518775
H	1.093089	0.0	0.0
H	-0.063517	0.947776	-1.86399
H	-0.351502	0.879485	0.53695
C	-0.074133	-1.08122	-2.275842
N	0.239655	-1.924789	-3.030999
N	-0.491273	-1.172537	0.762559
O	-0.625772	-1.017199	1.974161
O	-0.700176	-2.217815	0.15144
Br	3.39408	0.0	0.0
