12

C	-0.478862	0.005155	-1.43326
C	0.0	0.0	0.0
Cl	-2.274169	0.099666	-1.530616
H	1.092648	0.0	0.0
H	-0.094014	0.892494	-1.935707
H	-0.399979	-0.830233	0.577558
C	-0.0441	-1.197715	-2.136808
N	0.265291	-2.162137	-2.72985
N	-0.424842	1.250645	0.676092
O	-0.759072	1.168037	1.856174
O	-0.374638	2.291843	0.022865
Br	3.403036	0.0	0.0
