12

C	-0.480086	0.082175	-1.427607
C	0.0	0.0	0.0
Cl	-2.235436	0.465853	-1.535155
H	1.090656	0.0	0.0
H	0.036221	0.939831	-1.867139
H	-0.327201	0.877227	0.556874
C	-0.187207	-1.076423	-2.261701
N	0.050726	-1.943875	-3.014591
N	-0.509245	-1.174754	0.748698
O	-0.322197	-1.156722	1.961375
O	-1.068777	-2.076503	0.128231
Br	3.399604	0.0	0.0
