12

C	-0.518127	0.096455	-1.42584
C	0.0	0.0	0.0
Cl	-0.066943	1.692093	-2.086134
H	1.091409	0.0	0.0
H	-0.031373	-0.656952	-2.042351
H	-0.386474	0.795519	0.63361
C	-1.971818	-0.062508	-1.512082
N	-3.138602	-0.192435	-1.567481
N	-0.425714	-1.287512	0.602255
O	-0.54572	-2.252153	-0.153935
O	-0.589159	-1.314926	1.817269
Br	3.413948	0.0	0.0
