12

C	-0.485261	-0.025028	-1.441322
C	0.0	0.0	0.0
Cl	-0.047921	1.526205	-2.211846
H	1.091526	0.0	0.0
H	0.035467	-0.812347	-1.984752
H	-0.39511	0.84514	0.559925
C	-1.930132	-0.22218	-1.553223
N	-3.093078	-0.363032	-1.636671
N	-0.432024	-1.235886	0.698082
O	-0.53338	-2.260548	0.020865
O	-0.617478	-1.164357	1.909256
Br	3.416288	0.0	0.0
