12

C	-0.484229	0.116466	-1.424622
C	0.0	0.0	0.0
Cl	-2.273691	0.334447	-1.494717
H	1.09332	0.0	0.0
H	-0.054692	1.042501	-1.815551
H	-0.34958	0.850179	0.58356
C	-0.101526	-0.961411	-2.333531
N	0.181579	-1.751328	-3.154122
N	-0.496267	-1.209867	0.695684
O	-0.679314	-2.227913	0.031995
O	-0.661484	-1.114001	1.909362
Br	3.39919	0.0	0.0
