17

C	-0.230315	0.030193	-1.495247
C	0.0	0.0	0.0
F	-0.121004	-1.25128	-1.991989
H	1.094359	0.0	0.0
H	-0.422831	-0.932414	0.385038
N	-1.673068	0.430618	-1.802416
O	-1.905802	1.626284	-1.98306
O	-2.531522	-0.447397	-1.759777
C	0.766824	0.906028	-2.208241
H	0.71074	0.748679	-3.288283
H	1.740261	0.617117	-1.786048
H	0.584845	1.955891	-1.985417
C	-0.521836	1.217252	0.748036
H	-0.210374	1.149763	1.793516
H	-1.613403	1.313728	0.722792
H	-0.091139	2.136747	0.345029
F	2.720632	0.0	0.0
