14
Coordinates from ORCA-job run
  C   -0.92898251958449     -0.15185037081060     -0.41389234949930
  C   0.47714372797403      0.30009337496964     -0.04145104627177
  F   -0.93070990074747     -1.44313166885217     -0.81247395940836
  H   0.37990211323023      1.28738759038792      0.42580151919850
  H   -1.39563968741356      0.46954644843021     -1.18158824510441
  N   -1.80233006896438     -0.02005965247883      0.80811294817829
  O   -1.96848937990691      1.13735868291152      1.18267158847042
  O   -2.25845429754003     -1.03177707506795      1.31423656789782
  N   1.27582730474394      0.29578563672111     -1.26644485333504
  H   2.24149364796882      0.48813374057765     -1.02833283397059
  H   0.96831554741047      1.02609388488251     -1.90065401397089
  N   0.96647780171271     -0.60963905048622      0.96032231208595
  H   1.18549890915567     -1.50157870907328      0.53395563260495
  H   1.78994680196097     -0.24636283211150      1.41973673312441
