14
Coordinates from ORCA-job run
  C   -0.91101669493815     -0.41634306762426     -0.13864730407536
  C   0.53496176292235     -0.08331382243516      0.16795150803096
  F   -1.24626992840122     -1.61663257687731      0.42524590675006
  H   0.61294906019810     -0.02204826822387      1.26147196007124
  H   -1.12555725015484     -0.44119119439528     -1.20663122678762
  N   -1.79388379119406      0.63481709809894      0.46271502694142
  O   -1.77884793968751      0.72091491180500      1.68637915490442
  O   -2.44770686217327      1.32236118153291     -0.31454893654761
  N   0.80158631416827      1.22588771218856     -0.37314787134829
  H   1.57566734838319      1.67196892423914      0.09812123734703
  H   1.01975487476539      1.14522390249168     -1.35937669672151
  N   1.34773335135384     -1.13229515971192     -0.43858702779907
  H   2.32216659738235     -0.97230708125483     -0.21101941525098
  H   1.08946315737557     -2.03704255983360     -0.05992631551470
