14
Coordinates from ORCA-job run
  C   -0.96641429294827      0.31354085625812     -0.29563948022843
  C   0.43213585687589     -0.28425421403146     -0.30858638359499
  F   -1.63718832322447     -0.01175282058358     -1.42683443301035
  H   0.29269516878855     -1.34077677313297     -0.55361493925575
  H   -0.97919789432798      1.39733812499506     -0.16072615551421
  N   -1.72167490529851     -0.26001158279380      0.87020127780985
  O   -1.94152313124565      0.49698489330152      1.81018241907525
  O   -2.03451509321113     -1.44102654566811      0.78540186723483
  N   0.96127772225172     -0.21328730494396      1.04095648897596
  H   1.80355506544919     -0.76644702945259      1.12615282201453
  H   1.17768599860059      0.74162920245196      1.30316187697293
  N   1.15973061861971      0.33519921876516     -1.40241326029424
  H   1.48870132966031      1.25543558285317     -1.13320847051286
  H   1.96373188001005     -0.22357160801853     -1.65703362967253
