14
Coordinates from ORCA-job run
  C   -0.90872953172078      0.17926672935425     -0.34359368238228
  C   0.59436833506557      0.27929012529414     -0.05566614162253
  F   -1.18223498489359     -0.83520139218667     -1.19429586922335
  H   0.74537729822350      1.21787875722126      0.49483843473043
  H   -1.30948228712086      1.11236365826982     -0.74653212023793
  N   -1.64006412517713     -0.05689787473011      0.95095742553110
  O   -2.23636876318054     -1.11001919447020      1.11483145909672
  O   -1.52421804377238      0.86206646337065      1.76061389183857
  N   1.37806125109663      0.33655486917759     -1.26861339072903
  H   1.22824311318667      1.20330417321499     -1.76835522232440
  H   1.12672896521875     -0.44152750741388     -1.86701824752452
  N   1.00540355080809     -0.91344614578072      0.65798602571932
  H   0.70497790957015     -0.89042839305543      1.62480790338596
  H   2.01693731269592     -0.94520426826571      0.64003953374195
