14
Coordinates from ORCA-job run
  C   -0.96317933941725      0.00663548181952     -0.38516061171597
  C   0.47808814254858      0.37961832088819     -0.09706796658152
  F   -1.01811768464603     -1.27116687045506     -0.85768186783119
  H   0.47150065367829      1.40630504347062      0.27526876564079
  H   -1.43806525535293      0.68105946676999     -1.09640668354897
  N   -1.75493443157704      0.08640778694223      0.89179342366095
  O   -1.87186285684809      1.22563271166437      1.33056412283167
  O   -2.19644382253862     -0.94286327367016      1.37606462038590
  N   1.16666603249305      0.37587001378767     -1.37981913359971
  H   2.10376769891839      0.74348524560624     -1.27432319772395
  H   1.23847211666146     -0.57206228711474     -1.73096391062508
  N   0.94241590778994     -0.47623322092074      0.97886520540113
  H   0.97821356327001     -1.44320009059964      0.67933353988337
  H   1.86347927502024     -0.19848832818851      1.29053369382258
