15

C	-0.444677	-0.005366	-1.472199
C	0.0	0.0	0.0
Cl	0.498315	-1.168932	-2.37829
H	1.094555	0.0	0.0
N	-1.949421	-0.403581	-1.534569
O	-2.328035	-1.138776	-2.429631
O	-2.644247	0.110869	-0.666758
C	-0.371091	1.30707	-2.107698
N	-0.346984	2.359474	-2.631303
N	-0.42927	-1.242463	0.616944
H	0.334362	-1.604867	1.174117
H	-1.244636	-1.10453	1.199566
C	-0.445541	1.205453	0.703525
N	-0.769293	2.151039	1.322063
Cl	3.206069	0.0	0.0
