15

C	-0.510682	-0.056503	-1.446992
C	0.0	0.0	0.0
Cl	-2.289122	-0.082015	-1.490667
H	1.094006	0.0	0.0
N	-0.021195	1.189087	-2.208118
O	0.973881	1.034399	-2.901651
O	-0.637593	2.226057	-2.010727
C	-0.014605	-1.245586	-2.127936
N	0.316884	-2.215106	-2.702418
N	-0.39002	-1.236326	0.659173
H	-1.200652	-1.113769	1.250378
H	0.393948	-1.560386	1.212151
C	-0.48505	1.199821	0.685159
N	-0.902862	2.099463	1.316151
Cl	3.174004	0.0	0.0
