15

C	-0.381331	-0.092344	-1.510988
C	0.0	0.0	0.0
Cl	0.181175	-1.619039	-2.182031
H	1.095971	0.0	0.0
N	-1.915157	-0.043889	-1.623588
O	-2.414622	1.009942	-1.998101
O	-2.521537	-1.040416	-1.24584
C	0.157516	1.018613	-2.281368
N	0.583462	1.918654	-2.906383
N	-0.405367	-1.099914	0.833947
H	-1.312432	-1.473276	0.584182
H	0.301224	-1.821847	0.785611
C	-0.527701	1.268939	0.508433
N	-0.991629	2.274156	0.902073
Cl	3.178247	0.0	0.0
