11
Coordinates from ORCA-job run
  C   -0.86297738930010      0.15185635501021     -0.10074016351026
  C   0.49353052086204      0.18160196736144      0.01082169344269
  H   -1.36988800682279      1.07303705528418     -0.36844802690537
  N   -1.62854396963016     -0.92689561548867      0.12225915333515
  H   -1.21373157784858     -1.82581124409947      0.31246203729307
  H   -2.61291532032141     -0.89685290532286     -0.06918131004616
  C   1.24707528870444     -0.97084290132665      0.34797858246003
  N   1.74626912217359     -1.99823223211502      0.63283438079128
  N   1.21098309435705      1.42100896815855     -0.23389723532329
  O   0.55540094142087      2.42025026387740     -0.51901182942992
  O   2.43479729640505      1.37188028866088     -0.13507728210723
