11
Coordinates from ORCA-job run
  C   -0.83976402899133      0.15446835974793     -0.21983452889706
  C   0.50418621702231      0.15275875395908     -0.00032811206329
  H   -1.26594449588327      0.99800865025924     -0.75290697420798
  N   -1.68291344587635     -0.80879412361080      0.17759365354340
  H   -1.35196447806468     -1.62173346073853      0.67310391744947
  H   -2.66279453047486     -0.74681668092268     -0.02707841832223
  C   1.15310123871640     -0.90471708055254      0.68521120683396
  N   1.55976051315852     -1.84370479338501      1.26725075270802
  N   1.31549464774568      1.25829323324007     -0.47934928503072
  O   2.52046831419973      1.19146094303277     -0.24816366874590
  O   0.75037004844784      2.17277619897046     -1.07449854326767
