11
Coordinates from ORCA-job run
  C   -0.84501012026769      0.24808038241325      0.05102706023683
  C   0.50159751289360      0.11975933092354     -0.10093168649417
  H   -1.27781692651085      1.23489877134592     -0.07589494771617
  N   -1.68872863265036     -0.76203166962055      0.31372959304534
  H   -1.33863070330896     -1.68549544361427      0.51641261784186
  H   -2.65098056475333     -0.57114167384759      0.52456730228416
  C   1.16263665001926     -1.12485808789352      0.05288493944824
  N   1.58235169814164     -2.21323673759776      0.21138635532919
  N   1.30687045652915      1.28730356001542     -0.41720805859551
  O   0.73095185325632      2.36321005992118     -0.56013934833157
  O   2.51775877665122      1.10451150795438     -0.51683382704820
