11
Coordinates from ORCA-job run
  C   -0.84582080581091      0.22443730761415      0.10767624528818
  C   0.49707703672199      0.14084097308759     -0.09881201416438
  H   -1.31838913864072      1.19350605456636     -0.01389417439293
  N   -1.63130528906231     -0.79716194151020      0.48129396618404
  H   -2.62738360721620     -0.68121127833951      0.51430227264099
  H   -1.26569909252193     -1.73473249074010      0.54290652928131
  C   1.20401879406926     -1.08161988343432      0.02603161294441
  N   1.66346550069773     -2.15685896963960      0.16218638916821
  N   1.24447685799812      1.32818702370126     -0.47664217025545
  O   2.44784794295490      1.17600640824011     -0.67326312736970
  O   0.63171180081005      2.38860679645424     -0.57378552932470
