11
Coordinates from ORCA-job run
  C   -0.80958703688650      0.17138686599537      0.30309922424373
  C   0.49162461270286      0.16177743920374     -0.09845007826581
  H   -1.19322640893754      1.07899905686712      0.75719282271510
  N   -1.66354645937816     -0.85279744906926      0.16477925598520
  H   -1.36166287178869     -1.73578405051077     -0.21672901436601
  H   -2.59415457370163     -0.79295054920952      0.53426674810563
  C   1.08641423535616     -0.97713429901704     -0.69734413971576
  N   1.45039937871252     -1.98700349802012     -1.18054261429810
  N   1.31540087569550      1.34247281205731      0.09623947365908
  O   2.48827356159406      1.25474004870285     -0.25913635509094
  O   0.79106468663141      2.33529362300033      0.59562467702788
