11
Coordinates from ORCA-job run
  C   -0.66333029875332     -0.67089699553545      0.09602466848935
  C   0.60108651431049     -0.15408582486741     -0.02198590418211
  H   -0.72778700429882     -1.75138009639232      0.19145268296192
  N   -1.82733818730574     -0.01806063006938      0.10772437855904
  H   -1.83320317835149      0.98648513689559      0.02348269259635
  H   -2.68868546665060     -0.52489616746295      0.20013434996257
  C   1.73748753254588     -1.00807433037206     -0.01524823593095
  N   2.64186114470762     -1.75955954477412     -0.00394417802677
  N   0.85715680758372      1.25940431527120     -0.15734453316954
  O   -0.12322374579570      2.01723210118772     -0.16410624030376
  O   2.02397588200796      1.62483203611918     -0.25718968095610
