11
Coordinates from ORCA-job run
  C   -0.66356147670976     -0.66152948838608      0.14485724627090
  C   0.60013619287415     -0.15821530924311     -0.02599604322963
  H   -0.73108601558930     -1.73640167875482      0.28921704612176
  N   -1.82339512067004     -0.00120450212552      0.16194038393025
  H   -1.82812085125284      0.99677423272847      0.01971980927924
  H   -2.68589443879815     -0.50163463515008      0.27577092558999
  C   1.73242576675579     -1.01747109503829     -0.00960904856507
  N   2.63403727328784     -1.77192993146972      0.01331997542911
  N   0.85926569289992      1.24596101268290     -0.23431018816589
  O   -0.11730135657539      2.00859571028513     -0.24916884405318
  O   2.02449433377778      1.59905568447111     -0.38474126260748
