11
Coordinates from ORCA-job run
  C   -0.80996782840181      0.04974173185535     -0.34509147589604
  C   0.49846972873427      0.16904367845374      0.01270831942029
  H   -1.19014645776880      0.71867592915638     -1.10983613124320
  N   -1.66666733038466     -0.84545152322077      0.16695502662029
  H   -2.63114752712210     -0.84310577224030     -0.10862030885002
  H   -1.38658001872099     -1.47262567542950      0.90471413182246
  C   1.08577680414064     -0.65574453918503      1.00490197618147
  N   1.44318257184025     -1.40345183264765      1.84103290997618
  N   1.33321697265821      1.17103125661198     -0.62706378545342
  O   2.50179812382308      1.22876086058083     -0.25159865294654
  O   0.82206496120192      1.88312588606496     -1.48810200963147
