11
Coordinates from ORCA-job run
  C   -0.84804131279057      0.19612238303622      0.14148138985045
  C   0.49456645590095      0.15981840230037     -0.08227136862260
  H   -1.33010218913991      1.16756608515690      0.17526768922080
  N   -1.62162994787982     -0.87982650717585      0.34746760157054
  H   -1.24395790033366     -1.81204066740623      0.28054235496476
  H   -2.61616451722833     -0.78086724417306      0.43450869681792
  C   1.21378823173708     -1.05992982635966     -0.14953630197621
  N   1.68422232218263     -2.13862688050425     -0.18058466514648
  N   1.22854644543266      1.39886525705053     -0.27271830043001
  O   0.60312939167232      2.45475686144432     -0.21210320252517
  O   2.43464302044668      1.29216213663070     -0.48205389372400
