11
Coordinates from ORCA-job run
  C   -0.86053133225236      0.16051328363768     -0.10524241130266
  C   0.49702733432772      0.17361313762069     -0.00017978555127
  H   -1.35615553961775      1.08256477734484     -0.39046480387543
  N   -1.63826228653085     -0.90537678669553      0.13232310856474
  H   -1.23923429440835     -1.79939543036648      0.37201842273423
  H   -2.63005317286336     -0.85433979250270     -0.00867709136234
  C   1.23557307452842     -0.98123989913499      0.36054678055194
  N   1.72033775871255     -2.00930160361388      0.66706330641736
  N   1.23013266576304      1.39775710493095     -0.27339654286108
  O   0.58745302948568      2.39667136808503     -0.58803024216799
  O   2.45271276285527      1.33753384069440     -0.16596074114752
