11
Coordinates from ORCA-job run
  C   -0.84755382574074      0.24391283964050     -0.01818484556825
  C   0.50730220712875      0.12043947912098     -0.06781608392024
  H   -1.28343633204352      1.18650644579153     -0.33246514900707
  N   -1.68962474031932     -0.70418752762844      0.42025337054653
  H   -2.68107152336723     -0.57790590540860      0.33244119822528
  H   -1.35284947611249     -1.62382054735806      0.65972186959326
  C   1.16898463836740     -1.07347226849110      0.31485137240652
  N   1.58678045467590     -2.11857167071946      0.65985226091643
  N   1.31726748819585      1.23213829802133     -0.53583609968922
  O   0.74132974878469      2.26548415501586     -0.86753911405334
  O   2.53187136043072      1.04847670201548     -0.56427877944989
