11
Coordinates from ORCA-job run
  C   -0.80615820028406      0.04569097844426     -0.35463245782777
  C   0.49750594384240      0.17056030127241      0.01753255211214
  H   -1.18406156753393      0.72246263500883     -1.11383585109368
  N   -1.65830481497342     -0.87057832934594      0.12853641181629
  H   -1.38516291562575     -1.48981117880209      0.87567437998161
  H   -2.62732722351930     -0.84708877531677     -0.13018308896532
  C   1.08191677037440     -0.66247740476072      1.00453812913671
  N   1.43683816094416     -1.41777598395615      1.83480707918073
  N   1.32987409037833      1.18937825763820     -0.59889864275102
  O   0.82112353694724      1.90948264782850     -1.45459864668804
  O   2.49375621944993      1.25215685198947     -0.20993986490166
