11
Coordinates from ORCA-job run
  C   -0.84935471604665      0.21110195496442     -0.10721700761172
  C   0.50856775414795      0.11664560895986     -0.07075418591385
  H   -1.28424922159567      1.09226069145539     -0.56744557407426
  N   -1.69587699529245     -0.71160752772549      0.37156139438392
  H   -1.35665781678692     -1.53887380588196      0.83706527003424
  H   -2.68637870360299     -0.55497917468772      0.35005687965640
  C   1.17025105255673     -0.99454094458467      0.50979168144604
  N   1.58717778356255     -1.96994572862891      1.02033980930010
  N   1.32137803912006      1.17903557080188     -0.63680539777628
  O   2.53917956422907      1.03142870253720     -0.56585487060779
  O   0.74496325970832      2.13947465279000     -1.14173799883679
