11
Coordinates from ORCA-job run
  C   -0.86189429826566      0.13731926491381     -0.12720639095070
  C   0.49498735167374      0.17729608596699     -0.02053277513646
  H   -1.37036333429603      1.03322081626558     -0.46792964124937
  N   -1.62136754250329     -0.93392381895610      0.14337845467906
  H   -2.62158198006245     -0.87430772864989      0.09662712530546
  H   -1.21373293718576     -1.78370627189663      0.50094108432609
  C   1.24881097726309     -0.94008984232748      0.41845316267652
  N   1.74733146315290     -1.93762053824213      0.79563189937527
  N   1.20984683400992      1.39544908019096     -0.35973523694436
  O   0.55407528542184      2.36132848585390     -0.74291469456287
  O   2.43188818079170      1.36403446688099     -0.23471298751865
