11
Coordinates from ORCA-job run
  C   -0.67836512724842     -0.66131336097790      0.03934872554119
  C   0.59828617579076     -0.16162906105922      0.04297223921688
  H   -0.76708518869447     -1.73886550409913      0.14729114850894
  N   -1.82862175125229      0.00509458007583     -0.07988919649554
  H   -1.81283990460107      1.00771597969952     -0.18316320777073
  H   -2.70128793856893     -0.49058236614939     -0.06615617017324
  C   1.71673041659876     -1.02793067113619      0.18152593156876
  N   2.60539652356628     -1.78895147995041      0.29895269529971
  N   0.88551752244523      1.24624643304124     -0.09086032281327
  O   2.06112335706925      1.59652115096514     -0.07613180366138
  O   -0.07885408510511      2.01469429959051     -0.21289003922131
