11
Coordinates from ORCA-job run
  C   -0.73665787748659     -0.43142822588365      0.41004390697348
  C   0.58080972537097     -0.18822238908902      0.11875135365285
  H   -0.92672827928934     -1.22547407646348      1.12684276227562
  N   -1.82049826972624      0.17157409520882     -0.08459915127840
  H   -1.70924025216445      0.94416342965316     -0.72237311229291
  H   -2.73054351233215     -0.06912663802279      0.26405461560295
  C   1.61126579365362     -0.94484702218441      0.74047055120262
  N   2.42056786567620     -1.60026805667160      1.28626005583862
  N   0.99865437407248      0.84099035195724     -0.80251639416116
  O   2.20218046880251      0.99254569847121     -0.98620119108044
  O   0.11118996342298      1.50909283302452     -1.35073339673322
