11
Coordinates from ORCA-job run
  C   -0.79566608054806     -0.01902999905024     -0.37917003639181
  C   0.47043215379575      0.23074157228153      0.05509833331969
  H   -1.20649846363006      0.62905462628962     -1.14611413371910
  N   -1.58604418274775     -0.99871086825271      0.08316237596452
  H   -2.48714094641093     -1.16097606771743     -0.32671563281500
  H   -1.25075072737931     -1.65989101748310      0.76626785729706
  C   1.09561426949264     -0.56477039686781      1.04791722877246
  N   1.49099677072885     -1.30402296567178      1.87443261413448
  N   1.22464229919635      1.33360610523587     -0.51456775628643
  O   0.68312558505708      2.01536963962024     -1.38164215951444
  O   2.36128932244544      1.50062937161582     -0.07866869076141
