11
Coordinates from ORCA-job run
  C   -0.82826759557068      0.15804754741141     -0.25975568552656
  C   0.50931677799409      0.12654676419035     -0.01017882512314
  H   -1.21554206964318      0.98774029578345     -0.84188782560027
  N   -1.70542233238107     -0.78315324086180      0.12471376190539
  H   -1.41857398265477     -1.52559931965560      0.74364337168404
  H   -2.69034535081889     -0.62026410194080      0.02095346787586
  C   1.11118614006499     -0.90848876815076      0.74898317931923
  N   1.47917022085556     -1.82041254943302      1.39609390296347
  N   1.36231552033773      1.19022623556042     -0.51348976778134
  O   2.55803691280012      1.10396494368645     -0.24428314155342
  O   0.83812575901610      2.09039219340989     -1.16479243816327
