11
Coordinates from ORCA-job run
  C   -0.85313676078774      0.09699251948855     -0.19848184880703
  C   0.50256006871028      0.14166948725891     -0.07529961384289
  H   -1.32292363610042      0.79642325282476     -0.88258831921624
  N   -1.65344118766160     -0.75781083471064      0.45376284231715
  H   -1.27728591110714     -1.42609497114852      1.10820559641876
  H   -2.64808297315615     -0.73125056694909      0.32600373336369
  C   1.20698663446208     -0.72463630322174      0.79798293743630
  N   1.65720564001368     -1.50262308931806      1.55826452308439
  N   1.26238028501103      1.12058528283172     -0.83495432959862
  O   0.64632270847273      1.87731046808590     -1.58119454575507
  O   2.48041513214323      1.10943475485821     -0.67270097540045
