11
Coordinates from ORCA-job run
  C   -0.85869431687595      0.19006670608473      0.06942473636497
  C   0.49134629628255      0.15686985517328     -0.10131208866469
  H   -1.35481742227497      1.15275668406904      0.00289775474919
  N   -1.63452902114523     -0.88618977460432      0.27512621372585
  H   -2.59944088803521     -0.76582497015504      0.52373883250061
  H   -1.22108364132992     -1.79159014370318      0.43733299102344
  C   1.23059556138562     -1.05019740297082     -0.02039793778106
  N   1.71783157094648     -2.11770447324339      0.07392772500465
  N   1.21821833407837      1.38908070601133     -0.35521898399613
  O   2.43642915158734      1.28825441087412     -0.48031488238775
  O   0.57514437538091      2.43347840246424     -0.42720436053910
