11
Coordinates from ORCA-job run
  C   -0.68820958921275     -0.62188189209246     -0.20895550274976
  C   0.57622321327675     -0.19954316014687      0.10848268865688
  H   -0.80840053176427     -1.69149134115872     -0.35818028198734
  N   -1.79761013842791      0.10994359168489     -0.33972669426808
  H   -1.73507294897624      1.11368602384420     -0.27002272560067
  H   -2.64463771067330     -0.32513999829963     -0.65864966054246
  C   1.64634878774759     -1.12702511019851      0.23227187565827
  N   2.50475129878699     -1.92708121512347      0.31426898273632
  N   0.90101941237647      1.18823817868089      0.33619550222184
  O   2.06095187603467      1.46653454247302      0.62259706809745
  O   -0.01536366916799      2.01376038033664      0.22071874777756
