11
Coordinates from ORCA-job run
  C   -0.67539670262143     -0.66345615858886     -0.06381008271527
  C   0.58282240299480     -0.15992438973558      0.14307426157325
  H   -0.78192125885509     -1.73906073367208      0.04741744048677
  N   -1.78726792647335     -0.00296003932975     -0.39492657458245
  H   -1.75673054356347      0.99943117427732     -0.49480234828129
  H   -2.65729753953824     -0.49527068543432     -0.48302584315726
  C   1.66472528358813     -1.02075190179439      0.47279347499124
  N   2.52430046755380     -1.77693049643446      0.74156594879446
  N   0.88726525656969      1.24664009745342      0.03889036320321
  O   -0.04272496004965      2.00990479193890     -0.25741686764295
  O   2.04222552039481      1.60137834131978      0.25124022733029
