11
Coordinates from ORCA-job run
  C   -0.68049035500000     -0.64828260187535      0.12726071281772
  C   0.59169706040116     -0.17636842226300     -0.06837620398130
  H   -0.78149722412799     -1.72806502666343      0.19691207551586
  N   -1.81376082788713      0.04746674159474      0.24218499050762
  H   -2.68544670901774     -0.42946463628162      0.38349880129175
  H   -1.78598587273542      1.05355252079679      0.18582849289695
  C   1.69110110876432     -1.07150129209824     -0.17141700568271
  N   2.56400150324525     -1.85543310772736     -0.24983366480356
  N   0.89257655783563      1.23036586218528     -0.18486527445556
  O   -0.05484131147016      2.02435516728480     -0.09962395499690
  O   2.06264606999208      1.55437479504741     -0.36056896910988
