11
Coordinates from ORCA-job run
  C   -0.68926612974563     -0.62968734140512     -0.17904418335254
  C   0.57550366325041     -0.19959570227599      0.12960722216848
  H   -0.80872950444174     -1.70235961623460     -0.30653581626558
  N   -1.80251258083611      0.09628486875768     -0.31108700739418
  H   -2.64271830875533     -0.34354579054685     -0.64052086204929
  H   -1.74111144651730      1.10180525668642     -0.27391033590283
  C   1.65617635908368     -1.11563186049078      0.23737161492274
  N   2.51745716385975     -1.91265640755610      0.30786188560579
  N   0.89877879839961      1.19814886718516      0.29708657835851
  O   -0.02551408095387      2.01529089926931      0.18401970315878
  O   2.06193606665653      1.49294682661086      0.55415120075012
