15

C	-0.520881	-0.027519	-1.441078
C	0.0	0.0	0.0
Br	-0.040943	1.658415	-2.303545
H	1.09165	0.0	0.0
H	-1.613265	-0.040934	-1.435879
C	0.071271	-1.200505	-2.202242
H	-0.304324	-2.141466	-1.789866
H	1.160719	-1.186246	-2.11398
H	-0.215168	-1.151562	-3.254205
N	-0.490405	-1.284841	0.63298
O	-1.70577	-1.362891	0.832864
O	0.328868	-2.172719	0.840482
C	-0.546979	1.105393	0.776832
N	-0.987975	1.994133	1.405564
Cl	3.245856	0.0	0.0
