15

C	-0.365972	0.013804	-1.472231
C	0.0	0.0	0.0
Br	-2.313031	-0.097743	-1.716799
H	1.096152	0.0	0.0
H	0.025507	-0.904273	-1.9079
C	0.200621	1.240263	-2.156201
H	1.277832	1.261871	-1.96635
H	0.017644	1.194908	-3.231316
H	-0.250966	2.152784	-1.761593
N	-0.418833	-1.282041	0.654478
O	-0.19659	-2.307765	0.017978
O	-0.916011	-1.228391	1.776659
C	-0.51635	1.143422	0.731793
N	-0.889996	2.111413	1.282426
Cl	3.17019	0.0	0.0
