15

C	-0.518335	-0.048863	-1.441394
C	0.0	0.0	0.0
Br	-0.052157	1.635077	-2.314706
H	1.091657	0.0	0.0
H	-1.610861	-0.076426	-1.438686
C	0.093889	-1.215978	-2.196614
H	1.183156	-1.181701	-2.10403
H	-0.264478	-2.161746	-1.778104
H	-0.191997	-1.177886	-3.249298
N	-0.489601	-1.275589	0.650435
O	0.327048	-2.167168	0.847335
O	-1.700047	-1.345355	0.879758
C	-0.544181	1.115993	0.763519
N	-0.990065	2.008101	1.384139
Cl	3.259855	0.0	0.0
