15

C	-0.376212	0.007306	-1.470022
C	0.0	0.0	0.0
Br	-2.325307	-0.126539	-1.704667
H	1.096195	0.0	0.0
H	0.022781	-0.905913	-1.90931
C	0.164484	1.243281	-2.159514
H	-0.294226	2.148804	-1.757723
H	-0.03518	1.196145	-3.231131
H	1.244362	1.280134	-1.988118
N	-0.416062	-1.282399	0.658619
O	-0.93081	-1.226412	1.772595
O	-0.171327	-2.308512	0.031857
C	-0.51869	1.143592	0.731016
N	-0.892182	2.113044	1.279016
Cl	3.176906	0.0	0.0
