15

C	-0.506055	-0.028433	-1.447994
C	0.0	0.0	0.0
Br	-0.04576	1.668753	-2.292052
H	1.091758	0.0	0.0
H	-1.59685	-0.064507	-1.454628
C	0.121357	-1.181557	-2.209844
H	1.207593	-1.141383	-2.105925
H	-0.152409	-1.134211	-3.265045
H	-0.234957	-2.133452	-1.806096
N	-0.491616	-1.288987	0.622306
O	0.328614	-2.17298	0.835186
O	-1.706539	-1.373662	0.812897
C	-0.552855	1.100448	0.777537
N	-1.001635	1.982215	1.410437
Cl	3.249418	0.0	0.0
