15

C	-0.371489	0.002948	-1.470727
C	0.0	0.0	0.0
Br	-2.321855	-0.082482	-1.714226
H	1.095759	0.0	0.0
H	0.006447	-0.92354	-1.900602
C	0.206579	1.21868	-2.166799
H	1.28577	1.229758	-1.984236
H	0.017367	1.167296	-3.240335
H	-0.231966	2.139646	-1.777546
N	-0.409644	-1.274047	0.678284
O	-0.273947	-2.30326	0.025496
O	-0.795641	-1.209768	1.841367
C	-0.515412	1.149653	0.72409
N	-0.937877	2.11123	1.249856
Cl	3.168587	0.0	0.0
