12

C	-0.496794	0.007569	-1.419811
C	0.0	0.0	0.0
Cl	0.032582	1.471455	-2.276745
H	1.090287	0.0	0.0
H	-0.366034	-0.89829	0.504315
H	-0.368322	0.886962	0.512926
C	-0.084665	-1.172072	-2.175834
N	0.252045	-2.125759	-2.772888
N	-2.043401	0.050068	-1.468037
O	-2.593874	-0.516499	-2.405227
O	-2.599143	0.685046	-0.581984
Br	3.562011	0.0	0.0
