12

C	-0.519499	-0.010113	-1.421143
C	0.0	0.0	0.0
Cl	0.024936	1.411068	-2.313197
H	1.089772	0.0	0.0
H	-0.364369	0.902805	0.494464
H	-0.367876	-0.889656	0.517055
C	-0.155796	-1.212356	-2.166114
N	0.130916	-2.179532	-2.768026
N	-2.065858	0.011026	-1.3363
O	-2.621065	1.096478	-1.271795
O	-2.600192	-1.088184	-1.23745
Br	3.553019	0.0	0.0
