12

C	-0.569815	0.015956	-1.393269
C	0.0	0.0	0.0
Cl	0.140958	-1.264688	-2.396864
H	1.088203	0.0	0.0
H	-0.347893	-0.909727	0.494228
H	-0.370823	0.868799	0.548517
C	-2.027776	-0.134936	-1.400649
N	-3.191149	-0.286877	-1.332238
N	-0.275174	1.347303	-2.112654
O	0.595454	2.055684	-1.634404
O	-0.933002	1.565521	-3.123239
Br	3.610787	0.0	0.0
