12

C	-0.523125	-0.046508	-1.420407
C	0.0	0.0	0.0
Cl	0.032762	-1.486527	-2.267537
H	1.091241	0.0	0.0
H	-0.360522	-0.881082	0.533246
H	-0.37734	0.901671	0.484249
C	-1.985406	0.003558	-1.484064
N	-3.160146	0.019261	-1.508213
N	-0.037044	1.228481	-2.159203
O	-0.498597	2.262282	-1.687078
O	0.725865	1.121007	-3.101327
Br	3.57725	0.0	0.0
