12

C	-0.507318	0.086149	-1.412601
C	0.0	0.0	0.0
Cl	0.023271	1.592926	-2.195272
H	1.090204	0.0	0.0
H	-0.366471	0.857375	0.562113
H	-0.364155	-0.925045	0.45531
C	-0.111166	-1.05119	-2.237252
N	0.217035	-1.974428	-2.885427
N	-2.055198	0.144588	-1.430526
O	-2.58005	0.82336	-0.558666
O	-2.636433	-0.46073	-2.323979
Br	3.566524	0.0	0.0
