15

C	0.0	0.0	0.0
C	-0.576484	0.029391	-1.391925
F	1.386913	0.0	0.0
H	-1.672662	0.011356	-1.226695
H	-0.26247	0.919607	-1.943071
N	-0.236823	1.467571	0.602296
O	-0.260466	2.434614	-0.16021
O	-0.311374	1.534023	1.822857
N	-0.566815	-0.976565	0.779102
H	-0.14878	-1.021085	1.705959
H	-1.60835	-0.781312	0.72928
N	-0.179854	-1.127588	-2.235767
O	-0.716219	-1.160876	-3.346613
O	0.625561	-1.963792	-1.834007
F	-2.822301	0.0	0.0
