15

C	0.0	0.0	0.0
C	-0.279771	0.333775	-1.473436
F	1.35867	0.0	0.0
H	0.397303	-0.320862	-2.022027
H	-0.02798	1.376317	-1.640914
N	-0.304953	1.251889	0.906204
O	-0.397792	1.02214	2.108349
O	-0.335939	2.368316	0.399632
N	-0.557303	-1.161065	0.470133
H	-0.321081	-1.251165	1.45308
H	-1.621879	-0.905582	0.353111
N	-1.607823	0.110534	-2.110163
O	-2.223008	1.108934	-2.46912
O	-1.895906	-1.046465	-2.394316
F	-2.65928	0.0	0.0
