15

C	0.0	0.0	0.0
C	-0.524458	0.19604	-1.4248
F	1.355252	0.0	0.0
H	-0.307908	-0.731019	-1.961017
H	-1.60487	0.352503	-1.304688
N	-0.355326	1.254972	0.8241
O	-0.211711	2.320248	0.226621
O	-0.642529	1.132494	2.003687
N	-0.562569	-1.107729	0.644724
H	-0.342015	-1.933527	0.097835
H	-1.602417	-0.88204	0.549393
N	0.102312	1.267546	-2.246177
O	-0.625425	2.160581	-2.676151
O	1.303405	1.162653	-2.502361
F	-2.776158	0.0	0.0
