14
Coordinates from ORCA-job run
  C   -0.73174186529010      0.49213422074881     -0.52215660767881
  C   0.75606972538711      0.65909456737368     -0.21042691675505
  H   -0.84107944467995     -0.06375701904119     -1.46115075688599
  H   1.22568475549190      1.22377902744351     -1.02349259353778
  H   -1.16853440457714      1.48144495862815     -0.69811413067660
  H   0.86658750387837      1.27105585437561      0.69288185695864
  C   -1.51552042612831     -0.21213494625750      0.58267293040854
  H   -1.19746900454170     -1.24894758291137      0.70863340451513
  H   -1.38062208057201      0.29851953845126      1.54076316694549
  H   -2.58517520046500     -0.22306897635696      0.35946217477403
  C   1.49702736057938     -0.66294560749257     -0.02565256062351
  H   1.14558273397362     -1.20602158996848      0.85386901300355
  H   1.35924631494088     -1.31057421677204     -0.89656922970358
  H   2.56994403200297     -0.49757822822093      0.09928024925595
