11
Coordinates from ORCA-job run
  C   -0.40354876566852      0.15845229886975     -0.25422874770139
  C   0.75774378296514      0.18809631465055      0.41631704255345
  H   1.23371295291816      1.11287219634655      0.71386359289605
  C   -1.14424329602146     -0.98302476565747     -0.66103810451327
  N   -1.80143169111622     -1.89907534312899     -1.00175662699817
  N   -1.01032864727716      1.47352116624292     -0.62924455756648
  O   -0.43769279608770      2.48191295110196     -0.24170185712415
  O   -2.03271210081598      1.41552685592198     -1.30193775864701
  N   1.43491325248281     -1.01978774555205      0.86346175532622
  O   2.19996763525194     -0.85221994647945      1.81360008184303
  O   1.20261967336898     -2.07627398231575      0.28166517993173
