11
Coordinates from ORCA-job run
  C   -0.63141978000627     -0.09106051924092     -0.03720748110659
  C   0.38595052080393     -0.64238579576109      0.63964723849709
  H   0.25061523208136     -1.43905459541656      1.36063458266786
  C   -1.97198323160936     -0.54507230034431      0.10098853600912
  N   -3.08807014315358     -0.89866078185531      0.22653759839090
  N   -0.45683021728782      1.02506749007277     -0.99427297599888
  O   -0.09855997450092      2.09551923301732     -0.52513022574745
  O   -0.72404192793146      0.75405339650676     -2.15662380407790
  N   1.76295764693106     -0.19047263668988      0.49105595061214
  O   2.10512710771880      0.26897257375468     -0.59506810121960
  O   2.46525476695426     -0.33690606404345      1.48943868197331
