11
Coordinates from ORCA-job run
  C   -0.40914297163699      0.15648461518390     -0.24699230489158
  C   0.70833643002924      0.17924832944807      0.49506425443058
  H   1.06402823698845      1.07882423255831      0.97948284636754
  C   -0.99990538364030     -0.95501422923240     -0.90435954094362
  N   -1.54216410004097     -1.84573817247840     -1.45205052041089
  N   -1.13876716046246      1.45237732962966     -0.41930485475505
  O   -0.70113917002563      2.42252974074203      0.18256939222951
  O   -2.11468049493881      1.41934792463825     -1.15920930965429
  N   1.50421988498480     -1.00959494090956      0.76254593916939
  O   2.28747092807857     -0.89636623621779      1.70652451526563
  O   1.34274380066411     -2.00109859336206      0.05572958319277
