11
Coordinates from ORCA-job run
  C   -0.41643651577077      0.27704604365597     -0.04648904874801
  C   0.79420871401224     -0.23679753930817     -0.31290669684785
  H   1.29334290821784     -0.07690004528958     -1.25839692495890
  C   -1.19166656458569      0.11734173626304      1.13249367951924
  N   -1.87206464164068      0.01590561334779      2.08830400422506
  N   -1.06235676460586      1.08764141165726     -1.12294776614605
  O   -2.25386816191983      1.32638367861900     -0.96498227492737
  O   -0.35783959057183      1.43046423425312     -2.06230611435006
  N   1.50164463091938     -1.09587763792664      0.61968512359093
  O   1.22728295580206     -1.00424941572655      1.81440900894038
  O   2.33975303014312     -1.84195807954522      0.11213700970265
