11
Coordinates from ORCA-job run
  C   -0.63292978975741     -0.10073675998662     -0.02082938045609
  C   0.41402916896240     -0.65233897428775      0.60809625702160
  H   0.32055541831657     -1.46964656497535      1.31100179151077
  C   -1.96365544566180     -0.56240741527050      0.17651000917552
  N   -3.06334341708675     -0.94174053409564      0.35664762261337
  N   -0.50451619978648      1.04114827799141     -0.95513516932269
  O   -0.08142881189691      2.08863067093891     -0.48675467632975
  O   -0.85974998285496      0.80959031114184     -2.10355807266037
  N   1.77883735359425     -0.17951150651564      0.41111123200646
  O   2.09227527938517      0.23362176753798     -0.70133830962821
  O   2.49992642678593     -0.26560927247865      1.40324869606939
