11
Coordinates from ORCA-job run
  C   -0.46172680768658      0.17061273782917     -0.10837133904197
  C   0.87603854152371      0.06721175791956     -0.10481022859004
  H   1.51835363326854      0.80712529992182     -0.56262961806154
  C   -1.40069122017130     -0.70599739840380      0.49806354770909
  N   -2.21138858857085     -1.39446663688998      1.00394644527475
  N   -1.05509688588713      1.34012744528441     -0.82309107223560
  O   -2.27832301660111      1.35742561526798     -0.89294137019829
  O   -0.27832675694615      2.16986109885452     -1.27507684140900
  N   1.57541772260833     -1.00873794947993      0.58144115101298
  O   2.73443436601685     -0.73977482785613      0.89842742893185
  O   0.98030901244567     -2.06338714244760      0.78604189660774
