11
Coordinates from ORCA-job run
  C   -0.64365167518112     -0.03744990695107      0.06061136019616
  C   0.43111541348091     -0.56063173039244      0.66418505794980
  H   0.35648063032138     -1.35873630909352      1.39322567709934
  C   -1.96893364637070     -0.46386702057343      0.35775356444510
  N   -3.06349060182392     -0.80168733294352      0.62838691212122
  N   -0.54388362720467      0.95669489513176     -1.03408298931392
  O   0.04707956021982      2.00225961819515     -0.79634494916724
  O   -1.07584508425577      0.61012087692096     -2.08235741699475
  N   1.80615450406412     -0.18698305849472      0.33642002782412
  O   2.20870162405738      0.91174670268599      0.69991698539077
  O   2.44527290269257     -1.07146673448517     -0.22771422955060
