11
Coordinates from ORCA-job run
  C   -0.62974665235246     -0.14856298343001     -0.09042898451978
  C   0.43983576400518     -0.79288989134437      0.40060553703033
  H   0.41037247022380     -1.79904432938601      0.79869972418556
  C   -1.92504103607611     -0.73041892467691     -0.18858831739494
  N   -2.99770686807411     -1.20986592304059     -0.25144706824745
  N   -0.52987353055064      1.24521284016883     -0.58568444380293
  O   -0.97066240423485      1.42693832711119     -1.71287268441350
  O   -0.05803292733472      2.06240008914715      0.19485280123469
  N   1.75458238681952     -0.16225280595237      0.45765350466750
  O   2.34745875595468     -0.31345818769286      1.52325893007178
  O   2.15981404161970      0.42194178909594     -0.54504899881125
