11
Coordinates from ORCA-job run
  C   -0.44550044879293      0.14295662995091     -0.18198634770336
  C   0.86059516963290      0.17298566991934      0.12126734936725
  H   1.47427520958762      1.05058649684715     -0.03224867045730
  C   -1.35768742141365     -0.92816337117332      0.01299293633523
  N   -2.15265125918928     -1.78279270327657      0.17066770232010
  N   -1.03487014608919      1.37199015841753     -0.79764315677967
  O   -0.29296016893796      2.33321064460289     -0.94128733595341
  O   -2.21784695431988      1.29755495415781     -1.10792185594240
  N   1.54114466754702     -0.94704581044812      0.75415350235507
  O   1.08096607177118     -2.07627310109270      0.60741683325989
  O   2.54453528020417     -0.63500956790491      1.39558904319860
