11
Coordinates from ORCA-job run
  C   -0.43531600603713      0.16642547240033     -0.18799266441353
  C   0.86250996436273      0.13492972417609      0.14877356578095
  H   1.50888843344058      0.99702253181424      0.05400533347489
  C   -1.38995406595639     -0.87826196544421     -0.06540092388711
  N   -2.21564967472709     -1.71207672401154      0.03456738588272
  N   -0.96530681553911      1.44580276880628     -0.75362504283106
  O   -2.14843146823382      1.43759442876049     -1.07189366870624
  O   -0.18056499984303      2.37812880367397     -0.85283853484256
  N   1.48742524924633     -1.03711457341121      0.74273218423953
  O   0.99379189794509     -2.14119994654234      0.52817602850173
  O   2.48360748534184     -0.79225052022210      1.42349633680069
