11
Coordinates from ORCA-job run
  C   -0.63707838112198     -0.11364192141496     -0.00401618038088
  C   0.51148512509743     -0.79774661653993      0.09495920148997
  H   0.52248595092613     -1.87603986177552      0.20749215403846
  C   -1.89977629479818     -0.77304575402769      0.03740958952647
  N   -2.92008546187376     -1.35810892565550      0.07549257351491
  N   -0.68958261683972      1.35898480467979     -0.15941430773867
  O   0.38242669139547      1.93924156125640     -0.26832657879757
  O   -1.80949322191733      1.85704351624449     -0.16275337193465
  N   1.84522578153318     -0.19889781568397      0.06421137898992
  O   2.30299401619478      0.14500641892333      1.14518659169729
  O   2.39139841140400     -0.18379540600644     -1.03024105040526
