11
Coordinates from ORCA-job run
  C   -0.44067345869227      0.23919716786136     -0.07384991332243
  C   0.80261466920745     -0.21739405210244     -0.29819899055793
  H   1.30876585193702     -0.09601183754816     -1.24450378557514
  C   -1.21431788059526      0.10391621621953      1.11004658499851
  N   -1.87655498557226      0.00432044897325      2.07874478315459
  N   -1.11701909452387      0.96303811434944     -1.19363101579690
  O   -2.29891958184400      1.23532013399228     -1.01670261013488
  O   -0.44178969208704      1.21656344282520     -2.18129069174014
  N   1.55898859165467     -0.95813161968883      0.69985328953103
  O   1.24100111158430     -0.85479235685314      1.88177104858143
  O   2.47690446893127     -1.63702565802850      0.23876130086186
