11
Coordinates from ORCA-job run
  C   -0.61964223153675     -0.10346915103533      0.02224732021895
  C   0.47774542315911     -0.59878970691750      0.61396158157942
  H   0.43652310834450     -1.39046458394021      1.35151763393763
  C   -1.92013383854640     -0.59105401400961      0.32820831702895
  N   -3.00160087638592     -0.98536220126308      0.57732995196151
  N   -0.60762769470265      0.97930809435667     -0.98844099982239
  O   -0.72499583560509      2.11249419764353     -0.54747592932755
  O   -0.54184302471642      0.61249339028785     -2.15187298586011
  N   1.82328411610782     -0.12420385664346      0.32923550527456
  O   1.96023740067234      0.77566630923017     -0.49554621317002
  O   2.71705345320945     -0.68761847770905      0.96083581817905
