11
Coordinates from ORCA-job run
  C   -0.62109346736598     -0.14563052533755     -0.08177678252534
  C   0.47621366658987     -0.80298870462987      0.31719719195742
  H   0.45558225417326     -1.82076150538949      0.68481694078710
  C   -1.90710440699440     -0.75187058762413     -0.11042291069701
  N   -2.97151949616884     -1.25395197359024     -0.13483833948986
  N   -0.58357845930262      1.27210378597282     -0.50962325881744
  O   -0.22579118948531      2.07748365461925      0.33766805562689
  O   -0.97437876554340      1.48666575881563     -1.64727965899449
  N   1.78492737937689     -0.16874587141580      0.36419351778719
  O   2.48073792930473     -0.49506055360132      1.32212952577718
  O   2.08500455541579      0.60175652218068     -0.54306428141165
