11
Coordinates from ORCA-job run
  C   -0.45220458754284      0.19194360577764     -0.10643081548303
  C   0.87978124917906      0.03489850235342     -0.08115550811051
  H   1.55899162511027      0.76922591111723     -0.49302131659058
  C   -1.44208824372018     -0.67385137506663      0.42985620374826
  N   -2.29805441262157     -1.35268622435880      0.86999702100705
  N   -0.98240438387703      1.42374872601123     -0.77093655928744
  O   -2.20244767422571      1.53364196546074     -0.79294486612061
  O   -0.16247497308011      2.20497271859417     -1.23156873188603
  N   1.52529304370301     -1.09939583670115      0.56257414451430
  O   0.87326544452710     -2.12367149792766      0.74759891023729
  O   2.70334291254798     -0.90882649526018      0.86703151797129
