11
Coordinates from ORCA-job run
  C   -0.46304780214127      0.18492106673221     -0.06450440014710
  C   0.86186845682741      0.02549365249098     -0.19890686305785
  H   1.44002967252330      0.56257276884298     -0.93893808796316
  C   -1.33275638944268     -0.48953111303688      0.83327045645037
  N   -2.09237668292811     -1.03780415973467      1.54707983253156
  N   -1.12598480270043      1.18630658569855     -0.95660159494006
  O   -0.42160139022605      1.74823330883225     -1.78304716214543
  O   -2.32478859008132      1.35529814149212     -0.76868569995709
  N   1.61829036583438     -0.93603122959262      0.58875018243702
  O   2.66972664683832     -1.30671066328417      0.06612302224974
  O   1.16964051549644     -1.29174835844074      1.67546031454200
