11
Coordinates from ORCA-job run
  C   -0.48223922846201      0.11674519650008     -0.06942819400109
  C   0.77759297542813      0.18928328651057      0.38522707791605
  H   1.15654328757911      1.05474271038460      0.91236250278397
  C   -1.08034389797740     -0.93807429400395     -0.80839152968268
  N   -1.62221822021316     -1.78618468629956     -1.42018168694070
  N   -1.37474159037574      1.28645399444641      0.19363648536171
  O   -2.45417091460769      1.27274965204178     -0.38535075662758
  O   -0.95791137993181      2.14457977544890      0.95829243096314
  N   1.75509366139681     -0.86012590735990      0.13861853097151
  O   1.35861050767929     -2.00591324500750     -0.05734901745196
  O   2.92478479948448     -0.47525648266143      0.15256415670766
