11
Coordinates from ORCA-job run
  C   -0.45981411523601      0.16958557432400     -0.11430573820309
  C   0.87563482688700      0.04437111888411     -0.08041005494302
  H   1.53004132807162      0.67317028367231     -0.66907503398318
  C   -1.43267278484191     -0.59461300016343      0.58285893934696
  N   -2.28423782743836     -1.20380111756579      1.12249623405842
  N   -1.01577366783839      1.26022128644518     -0.97684201651381
  O   -0.23182914943465      1.84701213312860     -1.70889194174855
  O   -2.21732590691155      1.46881783291588     -0.86038386475427
  N   1.56000664680400     -0.96914112598921      0.70884138523986
  O   0.91573966160515     -1.61103983103218      1.53426570066920
  O   2.76123098833311     -1.08458315461947      0.46044639083148
