11
Coordinates from ORCA-job run
  C   -0.62091119557039     -0.15037922781019     -0.10289881003399
  C   0.49725542468474     -0.81648154542632      0.21317887420770
  H   0.51599926652804     -1.88552097049145      0.38647161193566
  C   -1.87499210132951     -0.79766086682748     -0.28148056807716
  N   -2.91103104573837     -1.33899850579616     -0.41815591374913
  N   -0.63972674309939      1.31861861823652     -0.29983303836459
  O   0.01278343148232      1.98818996058769      0.48924470913747
  O   -1.32573381169744      1.71225292506840     -1.23544811208591
  N   1.79020580091033     -0.15794931332636      0.37282392614107
  O   2.19760153124480      0.53474050329422     -0.55277046008288
  O   2.35954944258488     -0.40581157750886      1.43086778097176
