11
Coordinates from ORCA-job run
  C   -0.45599430774928      0.18242207713113     -0.10744211455424
  C   0.87995439517406      0.08506953001245     -0.03719428597712
  H   1.54076595391329      0.77092690683367     -0.55048452935600
  C   -1.42233651505946     -0.67561216618417      0.48168315119954
  N   -2.25808910510457     -1.36978724399007      0.93640503090135
  N   -1.01850253268752      1.32260190708374     -0.89623690785732
  O   -2.23939633487185      1.42459001220508     -0.88796478856737
  O   -0.22052533078039      2.04990831940951     -1.47003081572848
  N   1.55043079186549     -0.99376487576362      0.67303249111626
  O   0.94452823618134     -1.57754034522769      1.56785732484952
  O   2.69916474911891     -1.21781412151002      0.29037544397386
