11
Coordinates from ORCA-job run
  C   -0.61558740378245     -0.12970140085132     -0.04219268103547
  C   0.50488806041328     -0.79869229926434      0.26719976998154
  H   0.50098301152118     -1.84089867341231      0.56092795717545
  C   -1.89165244183365     -0.75727138762698     -0.03007001811916
  N   -2.95153317263827     -1.27079194222258     -0.01815949738040
  N   -0.64908738516480      1.29883457921892     -0.43097154263500
  O   -0.67132828917336      2.10233536852600      0.48900044156026
  O   -0.70751214795622      1.50944666051058     -1.63329547594293
  N   1.82349271804130     -0.18386337190540      0.27269188927900
  O   2.70935567338547     -0.86097290403618      0.79359329728348
  O   1.94698137718751      0.93057537106362     -0.22872414016676
