11
Coordinates from ORCA-job run
  C   -0.62298304097505     -0.10547855953141     -0.06132512090412
  C   0.46619735917792     -0.84769791418204      0.18410628581454
  H   0.42108430387434     -1.91293748011673      0.37347792785685
  C   -1.92433838240246     -0.67325526161116     -0.14047992639904
  N   -3.00507080713340     -1.13691538173088     -0.20221603982096
  N   -0.58288461142043      1.35778925846775     -0.28723058439736
  O   -0.80912863317583      1.70852280619637     -1.43643273211082
  O   -0.37543155871458      2.05239387568174      0.69647451392960
  N   1.80399561923158     -0.28023518276428      0.26693880134821
  O   2.01991867422642      0.78107722596359     -0.31228045132729
  O   2.60764107731148     -0.94426338637295      0.91996732601038
