11
Coordinates from ORCA-job run
  C   -0.62001968994196     -0.15608020389044     -0.09292703366785
  C   0.51332257399481     -0.80765453173893      0.20134592325241
  H   0.55166082105535     -1.87646913929597      0.37454211079159
  C   -1.86497253001619     -0.82265368927232     -0.25919491699643
  N   -2.89070721885162     -1.38975887283600     -0.37745128595309
  N   -0.66877030488882      1.31106047951295     -0.28939382446758
  O   -0.07661522445376      1.99652083084971      0.53265365923564
  O   -1.32077429042974      1.68539715359711     -1.25675714219958
  N   1.79903700461373     -0.13023685037808      0.35118963364495
  O   2.15471301083917      0.63088304732432     -0.54299963780930
  O   2.42212584807905     -0.44200822387236      1.35999251416924
