11
Coordinates from ORCA-job run
  C   -0.62101422549835     -0.14421944778969     -0.03477400084438
  C   0.53305834138709     -0.82494577743870     -0.02984778023564
  H   0.57738925270333     -1.90256304450956     -0.10743299559417
  C   -1.88532375435503     -0.79081883159168     -0.10042366026139
  N   -2.93287329731269     -1.32502486720048     -0.16904301673044
  N   -0.69194889642080      1.33283624630280      0.05725431550589
  O   -1.25997038768544      1.75279941140598      1.05598800524685
  O   -0.20854405939757      1.96810064274245     -0.86766956147298
  N   1.83276829014046     -0.17445119078311      0.04955427867262
  O   2.73595876216238     -0.76328006891749     -0.53994828245583
  O   1.91949997427660      0.87256692777949      0.68534269816948
