11
Coordinates from ORCA-job run
  C   -0.62982368759677     -0.04658096201741      0.11198757595251
  C   0.49064387089080     -0.48634582012019      0.70053927603028
  H   0.48741016842084     -1.06114403316960      1.61833545390782
  C   -1.92488408985115     -0.34635140528759      0.61679327931530
  N   -2.99427806555439     -0.59287749834307      1.04342728400708
  N   -0.62080254147851      0.77329485234161     -1.12155339027709
  O   -0.02423651807616      1.83901122592012     -1.06835355343441
  O   -1.24244916618013      0.29623256200706     -2.06180986214283
  N   1.81729639400030     -0.19337476721229      0.17411401705846
  O   1.96453614057511     -0.18197008496605     -1.04431050567137
  O   2.67758749485005      0.00110593084741      1.02983042525425
