11
Coordinates from ORCA-job run
  C   -0.45828017873325      0.15650438890354     -0.12744369594971
  C   0.84926702296639      0.18583818402561      0.16132595428064
  H   1.44023053293479      1.08164836452896      0.02164094147024
  C   -1.33774298230505     -0.95493263545955     -0.05256703807724
  N   -2.09396724087689     -1.85663557396459     -0.00480484209446
  N   -1.06778703357977      1.41594157603800     -0.65688720300037
  O   -2.27427718367783      1.37452653615962     -0.86660979014849
  O   -0.31989029182427      2.36559122419455     -0.83633065608688
  N   1.56393033888246     -0.96623528863948      0.66982344298486
  O   0.95304521229938     -1.77460755978542      1.36500490042430
  O   2.74447180391405     -1.02763921600123      0.32684798619712
