11
Coordinates from ORCA-job run
  C   -0.61082867962183      0.08153286726761      0.18288699895968
  C   0.49159403966738     -0.47704510948041      0.70046437311091
  H   0.49721510433576     -0.98428689054117      1.65734774182298
  C   -1.85095823347485      0.09816267880318      0.88018146159323
  N   -2.86887900780808      0.10512754153372      1.47135024783844
  N   -0.63137754474888      0.73220258581815     -1.14618560105491
  O   -0.26026535853152      0.05406742446312     -2.09377435291930
  O   -1.04469543893076      1.88434527334144     -1.15400211505485
  N   1.76980952226337     -0.48649891157702      0.00031683433995
  O   2.10120906897572      0.52608791097716     -0.60834866367443
  O   2.40617652787369     -1.53169537060578      0.11176307503829
