11
Coordinates from ORCA-job run
  C   -0.62753251489576     -0.10009640886762      0.02127953791100
  C   0.47655347440105     -0.82558450332486      0.24813054874656
  H   0.44602577408606     -1.87325289965151      0.52079000212490
  C   -1.93422905246959     -0.63925991993920      0.17334772910848
  N   -3.01738016102319     -1.08442268863208      0.29732057533126
  N   -0.59817359489433      1.32271331589967     -0.38963391903138
  O   -1.00542033128058      2.11086539573607      0.45188571888065
  O   -0.21666543762032      1.55103153568030     -1.52785888248972
  N   1.81840384765111     -0.28041109558187      0.10354240662294
  O   2.68856973906366     -1.11032237878631     -0.15408194169142
  O   1.97084825698187      0.92873964746740      0.25527822448674
