11
Coordinates from ORCA-job run
  C   -0.62733592753083     -0.07026172768359      0.07325995746039
  C   0.46385940916919     -0.81388217587762      0.30430038167304
  H   0.41610787349279     -1.82518352170907      0.68853055281270
  C   -1.93860011970512     -0.53630897900594      0.36514528178674
  N   -3.02587096005397     -0.92262310324283      0.60060536693689
  N   -0.57832545291161      1.30058942607718     -0.48609285098055
  O   -0.28358517217610      1.39434509672520     -1.66827052278504
  O   -0.88374640328556      2.18791976643176      0.29771041311826
  N   1.81083309796718     -0.34529215687806      0.01302539567970
  O   2.01258166821283      0.86611545332513      0.00110540591577
  O   2.63508198682120     -1.23541807816216     -0.18931938161789
