11
Coordinates from ORCA-job run
  C   -0.44723768870756      0.22940172072811     -0.02528103650791
  C   0.83016331496946     -0.08799465757850     -0.28452109776828
  H   1.43481065192999      0.47091828011803     -0.98640047401306
  C   -1.33556763328262     -0.39472200573389      0.89017653901863
  N   -2.10547112410359     -0.86574495364756      1.64684210424205
  N   -1.03315183030517      1.37117430360796     -0.79495391768672
  O   -2.24152281709949      1.53091014547234     -0.67105869997160
  O   -0.26636118886842      2.03506807142992     -1.47808022053925
  N   1.53134766763061     -1.16407446964883      0.39950310702772
  O   0.87317828805785     -2.01695841130022      0.98945951947596
  O   2.75881235977895     -1.10797802344736      0.31331417672247
