19

C	0.0	0.0	0.0
C	-0.403748	0.030645	-1.505668
Cl	1.807104	0.0	0.0
H	0.424149	0.535511	-2.017673
C	-0.448095	1.2773	0.688716
H	-0.055829	1.312178	1.709058
H	-0.101863	2.161674	0.14593
H	-1.546213	1.244389	0.699971
C	-0.504975	-1.205101	0.760769
H	-0.126344	-2.143654	0.350764
H	-1.603737	-1.150833	0.689194
H	-0.1938	-1.131666	1.807121
C	-1.559524	0.882363	-1.861541
N	-2.164644	1.6652	-2.50428
C	-0.564617	-1.354924	-2.130125
H	0.317104	-1.968469	-1.929428
H	-0.679115	-1.258087	-3.212703
H	-1.455736	-1.835024	-1.726019
H	-3.119802	0.0	0.0
