19

C	0.0	0.0	0.0
C	-0.598036	-0.019514	-1.409872
Cl	1.803122	0.0	0.0
H	-1.698667	-0.099625	-1.175758
C	-0.475652	1.237363	0.741618
H	-0.146519	1.190841	1.783101
H	-1.574845	1.220439	0.697424
H	-0.081664	2.154686	0.299143
C	-0.459618	-1.244297	0.74351
H	-1.558636	-1.212803	0.75011
H	-0.108626	-2.152977	0.248362
H	-0.078116	-1.233734	1.768109
C	-0.183804	-1.204501	-2.153181
N	0.133629	-2.142752	-2.787046
C	-0.357608	1.239062	-2.243212
H	0.706116	1.486586	-2.295037
H	-0.905234	2.07627	-1.80878
H	-0.730087	1.089634	-3.259411
H	-3.228186	0.0	0.0
