19

C	0.0	0.0	0.0
C	-0.323026	-0.035994	-1.528601
Cl	1.807034	0.0	0.0
H	0.382322	-0.754009	-1.963561
C	-0.544865	1.230887	0.691176
H	-0.261903	1.218801	1.747431
H	-0.166557	2.148403	0.237077
H	-1.640873	1.196723	0.618943
C	-0.513461	-1.261542	0.666993
H	-0.156585	-1.307499	1.699427
H	-1.610325	-1.222491	0.668577
H	-0.171541	-2.157253	0.140752
C	0.011379	1.253871	-2.140958
N	0.274443	2.28332	-2.642549
C	-1.746822	-0.468981	-1.895948
H	-1.823381	-1.556363	-1.814318
H	-2.533827	-0.064759	-1.231271
H	-1.962121	-0.191113	-2.931834
H	-3.886563	0.0	0.0
