13

C	0.0	0.0	0.0
C	-0.460267	-0.123369	-1.500574
Br	1.946077	0.0	0.0
H	0.224271	-0.852662	-1.948612
H	-0.351876	0.923633	0.462267
C	-0.437255	-1.168741	0.75064
N	-0.693886	-2.178815	1.293514
C	-0.180637	1.17046	-2.149869
N	0.035341	2.199689	-2.67173
N	-1.799057	-0.54501	-1.767373
H	-2.533211	-0.03617	-1.258857
H	-1.919474	-1.515818	-1.503642
Cl	-4.308932	0.0	0.0
