13

C	0.0	0.0	0.0
C	-0.414586	-0.101902	-1.544275
Br	1.950058	0.0	0.0
H	0.527737	-0.227258	-2.084417
H	-0.363851	0.905926	0.480334
C	-0.405161	-1.19027	0.735188
N	-0.575125	-2.208048	1.297993
C	-0.921574	1.209248	-1.973637
N	-1.179324	2.282263	-2.373774
N	-1.272347	-1.174884	-1.971443
H	-0.833635	-2.059098	-1.738503
H	-2.15113	-1.087569	-1.453924
Cl	-3.252466	0.0	0.0
