15

C	-0.503551	0.108881	-1.439832
C	0.0	0.0	0.0
Cl	-0.221244	1.766245	-2.070821
H	1.105207	0.0	0.0
C	0.299272	-0.805447	-2.282614
N	0.820676	-1.58639	-2.990738
N	-1.918577	-0.176303	-1.509699
H	-2.032459	-1.073788	-1.043841
H	-2.211123	-0.266287	-2.476499
N	-0.355188	-1.357805	0.477495
H	0.53604	-1.803955	0.669841
H	-0.85727	-1.304582	1.355884
C	-0.581527	1.033124	0.830699
N	-1.067592	1.828629	1.547885
F	2.525097	0.0	0.0
