15

C	-0.493008	0.053243	-1.447959
C	0.0	0.0	0.0
Cl	-0.239495	1.693137	-2.13621
H	1.102544	0.0	0.0
C	0.327504	-0.872365	-2.2592
N	0.842599	-1.661634	-2.961822
N	-1.900517	-0.262893	-1.521035
H	-2.178631	-0.391123	-2.488727
H	-2.0015	-1.148683	-1.029821
N	-0.36295	-1.331098	0.531437
H	0.512335	-1.746368	0.834322
H	-0.970335	-1.251853	1.337449
C	-0.563679	1.075701	0.792096
N	-1.008018	1.900764	1.503354
F	2.524657	0.0	0.0
