15

C	-0.119614	0.243562	-1.534213
C	0.0	0.0	0.0
Cl	0.147137	-1.396533	-2.371648
H	1.103686	0.0	0.0
C	-1.45069	0.658744	-1.990936
N	-2.524843	1.006569	-2.319145
N	0.879888	1.187585	-1.833398
H	1.753559	0.892637	-1.350586
H	1.005117	1.323578	-2.827069
N	-0.593922	-1.218086	0.496739
H	0.107432	-1.729163	1.014069
H	-1.385339	-1.032996	1.096597
C	-0.467857	1.191085	0.699313
N	-0.890487	2.093165	1.325496
F	2.618584	0.0	0.0
