15

C	-0.531811	0.237074	-1.426177
C	0.0	0.0	0.0
Cl	-0.096933	1.896519	-1.946235
H	1.106881	0.0	0.0
C	0.146685	-0.714207	-2.319437
N	0.637802	-1.503282	-3.037759
N	-1.963383	0.068501	-1.600067
H	-2.169115	-0.827579	-1.162845
H	-2.415134	0.791592	-1.046455
N	-0.404079	-1.386914	0.355111
H	-0.8221	-1.410175	1.27654
H	0.466728	-1.904753	0.404506
C	-0.601501	0.959865	0.901525
N	-1.153395	1.705801	1.62783
F	2.523478	0.0	0.0
