14

C	0.0	0.0	0.0
C	-0.215181	0.057414	-1.531613
F	1.396104	0.0	0.0
H	0.423919	-0.775322	-1.888019
H	-0.382554	-0.910224	0.451553
H	-0.388744	0.878624	0.50359
N	0.349204	1.351882	-1.97589
H	1.330476	1.36801	-1.728183
H	0.294411	1.383762	-2.987459
C	-1.570156	-0.121931	-2.175301
H	-2.253815	0.653751	-1.847929
H	-2.040478	-1.039613	-1.837801
H	-1.417633	-0.139435	-3.268611
F	-2.781028	0.0	0.0
