14

C	0.0	0.0	0.0
C	-0.507307	-0.068292	-1.424069
F	1.395168	0.0	0.0
H	-1.599704	0.002936	-1.266135
H	-0.354404	-0.860724	0.565285
H	-0.351526	0.906208	0.492958
N	-0.182117	-1.350363	-2.074626
H	-0.775095	-2.052949	-1.6426
H	0.778237	-1.591492	-1.837528
C	0.034114	1.076648	-2.26587
H	-0.246999	2.039749	-1.828329
H	1.12664	1.043388	-2.342928
H	-0.381487	1.017796	-3.27438
F	-2.777586	0.0	0.0
