16
Coordinates from ORCA-job run
  C   1.05673801284971     -0.21923236061212      0.22475395833870
  C   -0.46051534498006     -0.15420835216046     -0.01901976116635
  F   1.62622396882446      1.00788781257263     -0.07501050915534
  H   -0.84843166812959     -1.14823349592447      0.23675939851611
  C   1.35533976547820     -0.53049743249835      1.63475282784126
  N   1.55738430572923     -0.78141492911981      2.76413099858235
  C   1.68924919569844     -1.23926807343595     -0.63176462796591
  N   2.16043245653836     -2.06066881419292     -1.32641615166425
  C   -0.74590867005993      0.13629892678202     -1.49093895022605
  H   -1.82519323151913      0.18065634167968     -1.64961027887010
  H   -0.34251512644242     -0.63618221312789     -2.14885274043890
  H   -0.32108790362225      1.09880871121933     -1.78239829817131
  C   -1.09736774987671      0.88798123808463      0.89787333102190
  H   -0.69119257873666      1.88034156612788      0.69279791857992
  H   -2.17397001935111      0.91913005773059      0.71913284597841
  H   -0.94018541240055      0.65860101687523      1.95381003879955
