16
Coordinates from ORCA-job run
  C   0.89707746118507     -0.53977839225958      0.34484951356387
  C   -0.19049187277366      0.38518889057741     -0.22728631044706
  F   0.30141692875998     -1.63507834474604      0.94941587680973
  H   0.34271326297920      1.22700595035311     -0.68666059589725
  C   1.78910521941250     -1.03336257499215     -0.72043128218584
  N   2.48159610776600     -1.40618307869447     -1.59262529889538
  C   1.70836736545941      0.15822515052393      1.35911875201692
  N   2.33551847482526      0.74462843891340      2.16042834477234
  C   -1.08409937520517      0.90585083559003      0.89646227965048
  H   -0.52177498791128      1.47458736599771      1.63986920348621
  H   -1.59013028379270      0.07969654221275      1.39966758078354
  H   -1.84672009338639      1.56538031250077      0.47762838443058
  C   -0.99595255956077     -0.34768888079610     -1.29804003498718
  H   -0.37148047528691     -0.67240772543403     -2.13284292685759
  H   -1.76407742918490      0.31923315703677     -1.69452216202749
  H   -1.49306774328563     -1.22229764678351     -0.87403132421590
