16
Coordinates from ORCA-job run
  C   1.13547304513778      0.08304197077980      0.27735691957843
  C   -0.23045206929725      0.48629285346945     -0.29663009171503
  F   1.70860700025628      1.17296779786888      0.91131735856500
  H   -0.00587943917977      1.30512963685240     -0.99138891376715
  C   0.99251377307824     -1.00220953438466      1.26547949264891
  N   0.83627912927571     -1.86564915159450      2.04604883590395
  C   2.05263404171547     -0.34797028172531     -0.79323123380006
  N   2.75937012792329     -0.66770391649205     -1.67518542319984
  C   -1.13889629010396      1.00191447097248      0.81564764331593
  H   -1.41146178253292      0.19771740663305      1.50450135822598
  H   -2.05949568564353      1.39502550222840      0.37868684308422
  H   -0.66375034346867      1.80280359425422      1.38319798254770
  C   -0.86316072085592     -0.67298926982562     -1.06124501191074
  H   -1.81334803670032     -0.34859841030449     -1.49026770307717
  H   -1.06939755833571     -1.51524406416868     -0.39511103414872
  H   -0.23003519126874     -1.02352860456338     -1.87917702225141
