16
Coordinates from ORCA-job run
  C   1.13282488962785     -0.28622429718569     -0.08886350075150
  C   -0.23417398028390      0.28601312044537     -0.49097614508472
  F   1.68992698501949     -0.95033630466579     -1.16909273593774
  H   -0.01478027566363      0.95889695765429     -1.32925424373048
  C   2.06103070263767      0.78900044623874      0.30539741974274
  N   2.77646595231733      1.67417815377671      0.59550727747596
  C   0.99628146753143     -1.24642212714271      1.02198018240569
  N   0.84523435783941     -2.00459105150982      1.90605577675015
  C   -0.84924705759758      1.08296421298142      0.65594966252702
  H   -1.04980731997450      0.43917970928309      1.51674942427342
  H   -1.80053264664325      1.50960414675539      0.33163650263968
  H   -0.20744076050202      1.90545432735578      0.97895677045301
  C   -1.15490228191953     -0.83307453050111     -0.96868299175798
  H   -0.69218661388551     -1.42317412561592     -1.76050124641284
  H   -1.42238229370220     -1.50014101413298     -0.14465966216422
  H   -2.07731112480106     -0.40032762373678     -1.36220249042819
