16
Coordinates from ORCA-job run
  C   1.12981542016445      0.03591441630637      0.30800473953908
  C   -0.20401392451931      0.50058061899886     -0.29405098580409
  F   1.72631816553114      1.09257968959777      0.97594735960713
  H   0.06932207970297      1.32363685886112     -0.96596974669199
  C   0.91944472956128     -1.05914368115268      1.27309817716709
  N   0.70912251946420     -1.92756576845583      2.03526964363569
  C   2.05919879605526     -0.41322509891129     -0.74445107834164
  N   2.77868630018980     -0.75096004930243     -1.60916595126462
  C   -1.12285597326612      1.02808424702531      0.80406621232114
  H   -0.63518558618943      1.80100366297615      1.39906564073292
  H   -1.44134119077553      0.22171954212187      1.47022911384119
  H   -2.01732246268336      1.46137032621965      0.35133005903781
  C   -0.85786954349660     -0.61946222464953     -1.09831782204629
  H   -0.21507297283110     -0.97917304455055     -1.90450855846104
  H   -1.11506781215685     -1.46515418635080     -0.45474093180161
  H   -1.78217854475077     -0.25120530873400     -1.54780587147078
