16
Coordinates from ORCA-job run
  C   0.90432617792710     -0.52227282723933      0.35295915665462
  C   -0.19365894360813      0.38162008209690     -0.23330348685850
  F   0.32065728520324     -1.61920370568583      0.96699391589206
  H   0.33022163824169      1.22482817183601     -0.70087265331907
  C   1.80614602198876     -1.01702062837229     -0.70338082096448
  N   2.49721988497116     -1.40706491692653     -1.56914776909860
  C   1.70186987794814      0.19635161809288      1.36320089070272
  N   2.31453734096569      0.79256245845882      2.16844096259624
  C   -1.09742274772947      0.90366323487925      0.88158091992034
  H   -1.59442730120894      0.07678580825315      1.39258707049547
  H   -0.54485064051722      1.48790431182292      1.62030549356665
  H   -1.86712917279627      1.54848552889446      0.45288066492463
  C   -0.98606304525253     -0.37429321986669     -1.29767598372296
  H   -1.47424844470926     -1.24936656298180     -0.86433999249010
  H   -0.35451684056200     -0.70224145693223     -2.12588714715998
  H   -1.76066109086191      0.27826210367029     -1.70534122113899
