16
Coordinates from ORCA-job run
  C   1.03465089002246     -0.06959541846131      0.54548779201973
  C   -0.48607778007270      0.05396732040115      0.37161580919698
  F   1.45558956289218      0.79733378840151      1.54015915231892
  H   -0.89621526290721     -0.19781771773069      1.35752425081910
  C   1.41236602252664     -1.43560350874380      0.95112970386569
  N   1.67371791848050     -2.52400173657396      1.30681299930405
  C   1.73774598418617      0.28214938936747     -0.70198680716680
  N   2.25773516476794      0.56069256236967     -1.71757150123442
  C   -0.99875360566089     -0.94241839992122     -0.66427003653893
  H   -2.08451924676407     -0.85767439286671     -0.74227694751961
  H   -0.76296079865873     -1.97471218924213     -0.39688349475329
  H   -0.57708375751233     -0.73350850435034     -1.65128899812705
  C   -0.86147610844167      1.49035202414079      0.01935051775451
  H   -0.45781402557726      2.19985414596737      0.74248255930360
  H   -1.94900204615218      1.59043095788942      0.01564324544310
  H   -0.49690291112884      1.75855167935275     -0.97592824468557
