16
Coordinates from ORCA-job run
  C   1.13762827106520      0.06815056735577      0.27175532510191
  C   -0.22226923150642      0.48441233557488     -0.30694171010168
  F   1.73397543102267      1.16126600820966      0.87814614696177
  H   0.01542683363514      1.28411040125855     -1.01936529968393
  C   0.97758100725326     -0.99071390141810      1.28567615018130
  N   0.80646162288033     -1.83046749801288      2.08865727423842
  C   2.04264529333503     -0.40645624418144     -0.79087301722719
  N   2.73956691821697     -0.76640819950285     -1.66486909947112
  C   -1.11733386083914      1.04018823224608      0.79677602870135
  H   -2.03207340951939      1.44048116003758      0.35431420898641
  H   -0.62582814345774      1.84415452931763      1.34567054159809
  H   -1.40205252983731      0.25617652946311      1.50365079228983
  C   -0.87871014766356     -0.67862298395008     -1.04541162132935
  H   -0.25782773878599     -1.05248604392412     -1.86254146631827
  H   -1.09130553306446     -1.50620559418879     -0.36290549752937
  H   -1.82788478273457     -0.34757929828500     -1.47173875639817
