18

C	0.0	0.0	0.0
C	-0.527991	-0.422864	-1.400075
Cl	1.773462	0.0	0.0
H	0.18078	-1.196243	-1.737154
N	-0.419106	1.459057	0.266677
O	0.287983	2.362801	-0.16344
O	-1.478549	1.597739	0.8673
C	-0.518692	-0.868615	1.11853
H	-1.605346	-0.810626	1.148344
H	-0.229401	-1.902375	0.924042
H	-0.094321	-0.540229	2.070123
N	-0.527789	0.749633	-2.276644
H	0.418623	1.095473	-2.420008
H	-0.914973	0.474232	-3.173342
N	-1.799228	-1.061705	-1.266037
H	-2.565913	-0.468582	-0.928332
H	-2.084981	-1.485113	-2.138229
Cl	-4.631842	0.0	0.0
