18

C	0.0	0.0	0.0
C	-0.46652	0.126283	-1.495323
Cl	1.773681	0.0	0.0
H	0.324038	0.694558	-1.990571
N	-0.341435	1.326993	0.685683
O	-0.027324	2.350316	0.081845
O	-0.877558	1.291194	1.786811
C	-0.598362	-1.141555	0.76759
H	-0.27306	-2.07203	0.305209
H	-1.689924	-1.052649	0.72776
H	-0.282515	-1.117963	1.809367
N	-1.702857	0.807081	-1.751832
H	-2.505754	0.433181	-1.23531
H	-1.626684	1.790899	-1.532805
N	-0.456912	-1.2272	-2.037088
H	-1.313244	-1.674804	-1.72101
H	-0.577239	-1.119	-3.039256
Cl	-4.268033	0.0	0.0
