18

C	0.0	0.0	0.0
C	-0.426299	0.239053	-1.49955
Cl	1.78445	0.0	0.0
H	0.262007	1.00628	-1.861633
N	-0.343881	1.263062	0.791629
O	-0.756788	1.131769	1.939012
O	-0.141705	2.335774	0.227733
C	-0.60374	-1.199237	0.668693
H	-1.694431	-1.090848	0.651358
H	-0.275469	-1.275719	1.704235
H	-0.313784	-2.101642	0.131117
N	-1.754936	0.717956	-1.69454
H	-2.49689	0.224011	-1.191967
H	-1.832172	1.692081	-1.438513
N	-0.233221	-0.964644	-2.297909
H	-1.052362	-1.553355	-2.19699
H	0.584926	-1.480843	-1.997337
Cl	-4.354832	0.0	0.0
