19

C	0.0	0.0	0.0
C	-0.60176	0.153451	-1.381539
F	1.371175	0.0	0.0
H	-1.673651	-0.038233	-1.237193
C	-0.560356	0.918161	1.050838
H	-1.65214	0.832993	1.036138
H	-0.174332	0.632137	2.032148
H	-0.259309	1.947132	0.844695
N	-0.303469	-1.452454	0.448589
O	0.644381	-2.224073	0.557903
O	-1.475178	-1.715649	0.668229
N	-0.055199	-0.896377	-2.235962
H	-0.656327	-1.017112	-3.040961
H	0.868227	-0.635582	-2.561494
C	-0.418031	1.572466	-1.919482
H	-0.979405	2.302508	-1.333258
H	0.640491	1.853697	-1.929491
H	-0.796222	1.61391	-2.94419
Cl	-4.143332	0.0	0.0
