19

C	0.0	0.0	0.0
C	-0.422764	0.070538	-1.463792
F	1.376623	0.0	0.0
H	0.017539	-0.814043	-1.938937
C	-0.556253	1.06809	0.887495
H	-1.633287	0.930994	1.005223
H	-0.081661	1.026697	1.8672
H	-0.358597	2.025655	0.40725
N	-0.326155	-1.387488	0.567592
O	-0.634172	-1.464485	1.753649
O	-0.166372	-2.346875	-0.18498
N	0.143412	1.317757	-1.995019
H	1.117269	1.178305	-2.233519
H	-0.356562	1.56175	-2.840614
C	-1.925363	0.058137	-1.648041
H	-2.155113	-0.020487	-2.715506
H	-2.424336	-0.767701	-1.143205
H	-2.393681	0.962644	-1.262853
Cl	-4.869971	0.0	0.0
