19

C	0.0	0.0	0.0
C	-0.567637	0.162297	-1.405658
F	1.369588	0.0	0.0
H	-1.65525	0.062033	-1.294811
C	-0.579036	0.891829	1.05995
H	-0.166636	0.622853	2.035526
H	-1.666796	0.764758	1.059733
H	-0.331594	1.932433	0.849003
N	-0.303594	-1.463033	0.413313
O	-1.481225	-1.755368	0.553335
O	0.65018	-2.228537	0.547938
N	-0.094706	-0.875424	-2.322715
H	-0.619324	-1.727629	-2.165875
H	0.882203	-1.075514	-2.137936
C	-0.233458	1.535582	-1.972564
H	-0.669178	2.338902	-1.376261
H	-0.644191	1.592295	-2.980861
H	0.849708	1.679104	-2.032541
Cl	-4.110722	0.0	0.0
