19

C	0.0	0.0	0.0
C	-0.427036	-0.158634	-1.480635
F	1.368331	0.0	0.0
H	0.212585	0.58988	-1.970294
C	-0.576651	1.191449	0.709063
H	-0.158623	1.259434	1.716042
H	-1.664288	1.086928	0.760055
H	-0.323928	2.098321	0.154005
N	-0.378886	-1.237265	0.80148
O	0.455993	-1.691392	1.581633
O	-1.509426	-1.673142	0.617262
N	-1.790352	0.131468	-1.842263
H	-2.019173	1.104956	-1.685483
H	-2.473065	-0.385372	-1.288104
C	-0.029225	-1.533754	-2.011248
H	0.971369	-1.825051	-1.681071
H	-0.749346	-2.282753	-1.676911
H	-0.05517	-1.508771	-3.101554
Cl	-4.510544	0.0	0.0
