16
Coordinates from ORCA-job run
  C   0.90243285900928      0.54972050978890     -0.21906973688613
  C   -0.61775285160992      0.39025032112496     -0.29656533694565
  Br  1.30731612084113      2.35115802061919      0.42590418246173
  H   -1.02162654337306      1.19069618019392     -0.92341642061514
  H   1.29944681105552      0.52876458884749     -1.23225772247575
  C   1.58703004107092     -0.48694351652765      0.65069873721928
  H   1.29678265835497     -0.38982894521846      1.69724552860579
  H   2.67011746798515     -0.37586076288967      0.58689583462441
  H   1.32859891810572     -1.49248635479027      0.30395007230674
  C   -1.34158014139249      0.32056776623006      1.03035429202485
  H   -2.42011986943866      0.31531179254521      0.87637720376744
  H   -1.08013854047766     -0.58274461511018      1.57973639164871
  H   -1.07908106027299      1.19386428213239      1.62853036039504
  N   -0.87881046353768     -0.86535654010348     -1.11328952556520
  O   -0.27500791247258     -0.95586062428674     -2.18033690879036
  O   -1.67660749384764     -1.69125210255566     -0.67975695177575
