16
Coordinates from ORCA-job run
  C   0.79003756725524     -0.53776692677464      0.43516983514890
  C   -0.46915040211639     -0.16501768037160     -0.33030565284810
  Br  1.54906442619442     -2.16145292983505     -0.35272312506710
  H   -0.25946946719630     -0.09136045479504     -1.39890550667822
  H   0.51446213062074     -0.82010662582119      1.45240160598350
  C   1.83404577401494      0.56408544285784      0.42579982889897
  H   2.07664960490901      0.86438519666098     -0.59617926728124
  H   1.47211360745863      1.43558794512560      0.97644938469413
  H   2.75037292951433      0.21945585610655      0.90554922705826
  C   -1.13976811991306      1.09663945762746      0.19610331355295
  H   -1.29464303033837      1.02800143936599      1.27444955339898
  H   -0.53219993957199      1.97388729915359     -0.02637037350416
  H   -2.10973736764190      1.22848036650773     -0.28829110180860
  N   -1.46988977582749     -1.27906807888249     -0.21193293321037
  O   -1.97078145439480     -1.70017100578174     -1.25050213037558
  O   -1.74310648296699     -1.65557930114399      0.92528734203768
