16
Coordinates from ORCA-job run
  C   0.80522114748605     -0.53832255364856      0.39209520095349
  C   -0.48014268059602     -0.15456170431505     -0.32307261833523
  Br  1.56324600624969     -2.11923101156501     -0.47886632709367
  H   -0.30157887023710     -0.03817691434541     -1.39351250399704
  H   0.56227755261074     -0.86351456785505      1.40483505460631
  C   1.83308535889673      0.57869529733488      0.39652656699102
  H   2.04006594238907      0.92373533883627     -0.61916223107867
  H   2.76846551783398      0.22917715678763      0.83407577956512
  H   1.47571259367925      1.42150884487165      0.99288658898140
  C   -1.15068954208911      1.07768492132399      0.26887204797881
  H   -1.27186696150185      0.96802078882387      1.34816653045020
  H   -0.56149416818180      1.97072451791871      0.06042250496191
  H   -2.13664733080978      1.21320006243509     -0.18098219823630
  N   -1.46240657981545     -1.28585053077917     -0.21870591626522
  O   -1.98614779136124     -1.67597850575365     -1.25827959414433
  O   -1.69910019455314     -1.70811114007020      0.91070111466222
