13

C	0.0	0.0	0.0
C	-0.31698	-0.470817	-1.442609
Cl	1.804031	0.0	0.0
H	0.223958	0.210687	-2.111413
H	-0.31077	-0.747804	0.731333
H	0.140585	-1.457765	-1.576551
N	-0.535355	1.266264	0.392971
H	-1.533377	1.136398	0.558645
H	-0.428058	1.933018	-0.364173
N	-1.6925	-0.523902	-1.867307
H	-2.273565	-1.056258	-1.230199
H	-2.118018	0.393576	-1.853504
Br	-4.382061	0.0	0.0
