12

C	-0.490519	-0.026719	-1.421302
C	0.0	0.0	0.0
Cl	-2.28209	0.087469	-1.510981
H	1.091705	0.0	0.0
H	-0.366861	-0.886136	0.51947
H	-0.374127	0.900363	0.487675
N	0.042413	1.214521	-2.157741
O	-0.216205	2.288413	-1.638068
O	0.667378	1.026597	-3.192394
C	-0.089291	-1.221524	-2.158103
N	0.164911	-2.233458	-2.696938
Br	3.541197	0.0	0.0
