12

C	-0.518502	0.011498	-1.423405
C	0.0	0.0	0.0
Cl	0.033824	1.436141	-2.300073
H	1.091183	0.0	0.0
H	-0.361501	0.894026	0.510313
H	-0.377645	-0.89013	0.505213
N	-0.018408	-1.276523	-2.132216
O	-0.500414	-2.300032	-1.6564
O	0.778317	-1.187643	-3.049061
C	-1.980189	-0.046565	-1.491948
N	-3.154749	-0.069855	-1.521952
Br	3.572292	0.0	0.0
