16
Coordinates from ORCA-job run
  C   -0.25923716625007     -0.29941854987567     -0.42532642477239
  C   1.11929195474600     -0.27131272907160      0.29111140985120
  F   -0.00974050039103     -0.97136703784146     -1.62358901081262
  H   1.44455478022232     -1.31253702477059      0.40592101075844
  C   -0.75929385522425      1.08830767693895     -0.75861504194155
  H   -0.04218333052691      1.61251507451736     -1.39259993257138
  H   -0.92817149096878      1.67221522165306      0.14869298781056
  H   -1.70267450691187      1.00673120229436     -1.30146686603501
  C   -1.25245289271766     -1.12188665071082      0.36836885899481
  H   -2.17273856547164     -1.22039146062231     -0.20996201451476
  H   -1.48923156429128     -0.64787970360817      1.32242442524807
  H   -0.85715335628906     -2.12301126449424      0.55499946217209
  C   1.00425953551275      0.33627659222618      1.61868255977652
  N   0.86740090261576      0.81917976827725      2.67994938119803
  C   2.12274840895928      0.43339515145597     -0.51281475045555
  N   2.91562164698646      1.00018373363172     -1.16677605470647
