16
Coordinates from ORCA-job run
  C   -0.25424382904019     -0.10634656761019     -0.51161467194884
  C   1.14921063595964      0.30025517580623      0.01688219841982
  F   -0.00802060007946     -0.60049167581749     -1.79415900870502
  H   1.55985200915701      1.03252455824660     -0.68899558465801
  C   -1.14281191259457      1.11217013460280     -0.64783104392111
  H   -2.07793518360469      0.81662665981116     -1.12667247046293
  H   -1.37225998244139      1.54815306269710      0.32595136181186
  H   -0.66227909135960      1.86781935004290     -1.27348373976463
  C   -0.87601004443648     -1.21420005776747      0.30873018251112
  H   -1.04868959413690     -0.89034543224415      1.33734587795639
  H   -1.83379208231143     -1.49198685619683     -0.13492423996155
  H   -0.23168540629204     -2.09502158490130      0.31482165792889
  C   2.05638598593052     -0.85087278932714      0.05851147778992
  N   2.77129471413261     -1.78131874724388      0.08577281135208
  C   1.04826234525293      0.92356807610499      1.33833514344004
  N   0.92372203586403      1.42746669379666      2.39133004821199
