16
Coordinates from ORCA-job run
  C   -0.24219731325632     -0.20741595065188     -0.33142082436346
  C   0.92034193696148      0.28238566876166      0.57351066446726
  F   0.34281196482700     -1.01248198409917     -1.30630814207227
  H   0.49713771830893      0.92196733289772      1.35828171500310
  C   -0.90880979966444      0.96000592842682     -1.02951246313971
  H   -1.70777105179636      0.58264776639516     -1.67003113241457
  H   -0.19290205709446      1.49565227439983     -1.65455445459985
  H   -1.34266721319944      1.65493917695166     -0.30650466494914
  C   -1.21423938901476     -1.06121362620820      0.45633244707974
  H   -1.67214769522920     -0.48940761843882      1.26701335263230
  H   -0.71092580449604     -1.93404120097318      0.87466826218620
  H   -2.00403589300204     -1.40876344616939     -0.21178711972682
  C   1.88718705380448      1.07837849638972     -0.19015943950573
  N   2.63600801497616      1.73844778664344     -0.80739762038480
  C   1.59887500570519     -0.84517507085311      1.22134914746964
  N   2.11333452216983     -1.75492553347226      1.75552027231811
