15

C	-0.551374	0.021289	-1.412079
C	0.0	0.0	0.0
Br	0.203628	1.496053	-2.437847
H	1.092124	0.0	0.0
H	-0.319616	0.942013	0.459565
N	-0.208503	-1.305187	-2.111476
O	-1.061159	-2.183519	-1.984703
O	0.87605	-1.416748	-2.653102
C	-2.004207	0.167319	-1.452973
N	-3.167677	0.336321	-1.412591
C	-0.483145	-1.190922	0.820006
H	-0.054521	-2.122215	0.444628
H	-1.571953	-1.293375	0.85435
H	-0.108706	-1.059719	1.838491
H	2.842075	0.0	0.0
