15

C	-0.483042	-0.032642	-1.423232
C	0.0	0.0	0.0
Br	0.123645	-1.652048	-2.337719
H	1.093182	0.0	0.0
H	-0.341903	-0.922027	0.480676
N	-2.017936	-0.052756	-1.421038
O	-2.585477	1.000232	-1.710557
O	-2.564079	-1.072297	-1.019771
C	-0.052953	1.115913	-2.213157
N	0.300547	2.038762	-2.849627
C	-0.477013	1.237357	0.749349
H	-1.560662	1.27145	0.903165
H	-0.170035	2.149076	0.230871
H	0.014849	1.243884	1.725903
H	2.772709	0.0	0.0
