15

C	-0.468661	0.025162	-1.434489
C	0.0	0.0	0.0
Br	0.268982	-1.443993	-2.484432
H	1.092923	0.0	0.0
H	-0.314934	0.952111	0.443883
N	-2.003304	-0.081598	-1.448161
O	-2.595941	0.976754	-1.237777
O	-2.520713	-1.187489	-1.534898
C	-0.122866	1.270576	-2.112499
N	0.14599	2.271823	-2.666849
C	-0.512626	-1.178554	0.810436
H	-0.278983	-2.12356	0.316369
H	-1.590335	-1.143489	1.000309
H	0.011184	-1.174525	1.770128
H	2.765806	0.0	0.0
