10
Coordinates from ORCA-job run
  C   -0.04130338638213     -0.46201435605409     -0.34880247781537
  C   1.07808505564345      0.25578568588779      0.35926721441761
  Cl  -0.29872538811323     -2.08651747028112      0.30268193498077
  H   2.01264552748680     -0.28479369677839      0.20814864024842
  H   0.10238352831842     -0.55107507104418     -1.42264607818085
  H   1.18239703138827      1.26480562427555     -0.04682435139035
  H   0.86422220468357      0.31743013207779      1.42509351082012
  N   -1.32462970985009      0.31964837655996     -0.19280766934797
  O   -1.91987222757358      0.59913981719575     -1.23017020484382
  O   -1.65620263560147      0.62759095816093      0.94505948111145
