10
Coordinates from ORCA-job run
  C   -0.03782782799325     -0.45448844475967     -0.35917592216836
  C   1.07453163131186      0.24589929760233      0.37689741780622
  Cl  -0.30482626974591     -2.09232282446813      0.25362224464312
  H   2.01019576241638     -0.29225688100058      0.22397470436031
  H   0.11743268294033     -0.52007639641448     -1.43310180864515
  H   1.18427706473111      1.26359942457104     -0.00540198134685
  H   0.84898141047765      0.28402261398467      1.44141146117089
  N   -1.32156384392668      0.32588304640874     -0.20040383713014
  O   -1.66560771084191      0.60927873191061      0.94016008673727
  O   -1.90459289936958      0.62946143216547     -1.23798236542730
