18

C	-0.413299	0.019441	-1.447576
C	-0.01799	0.098317	0.028981
Cl	0.031824	1.599238	-2.241329
H	1.07634	0.234813	0.026471
C	0.342899	-1.091297	-2.165777
H	-0.078435	-2.058243	-1.879905
H	1.39268	-1.056403	-1.833019
H	0.251687	-0.975567	-3.247946
C	-1.864984	-0.118526	-1.611624
N	-3.014064	-0.310701	-1.766817
C	-0.276732	-1.226744	0.72725
H	0.475956	-1.948377	0.406936
H	-0.139227	-1.088994	1.804868
H	-1.292732	-1.597465	0.556903
N	-0.788394	1.166469	0.679384
H	-0.566105	1.139416	1.668806
H	-0.449717	2.05914	0.335898
H	2.89899	-0.884294	-0.289659
