18

C	-0.453659	-0.037063	-1.588465
C	0.17156	-0.015884	-0.179443
Cl	0.117438	1.405495	-2.509222
H	1.25617	0.064706	-0.313569
C	-0.078938	-1.27031	-2.405345
H	1.008679	-1.371337	-2.409798
H	-0.431236	-1.170401	-3.433344
H	-0.521049	-2.165897	-1.966672
C	-1.912361	0.062454	-1.488581
N	-3.084274	0.067622	-1.39885
C	-0.103986	-1.307699	0.592192
H	-1.178434	-1.433539	0.774971
H	0.413107	-1.178268	1.546238
H	0.282036	-2.209534	0.106359
N	-0.23319	1.167521	0.546548
H	-1.062056	0.942591	1.091447
H	0.550219	1.288343	1.235595
H	1.978764	0.833198	2.059566
