18

C	-0.393996	-0.113397	-1.496793
C	0.010812	-0.180765	-0.007961
Cl	-2.193921	0.082936	-1.685235
H	1.087899	-0.435928	-0.051964
C	0.293803	1.056567	-2.18031
H	1.362154	1.023501	-1.941577
H	0.120122	1.040358	-3.258675
H	-0.10294	1.970586	-1.740842
C	-0.061376	-1.376615	-2.161259
N	0.226457	-2.391343	-2.680267
C	-0.737768	-1.257248	0.760608
H	-1.782101	-0.968832	0.905241
H	-0.271351	-1.378204	1.74254
H	-0.711245	-2.224343	0.250148
N	-0.119428	1.139148	0.570171
H	-0.402856	1.043456	1.540001
H	0.873816	1.496489	0.580048
H	2.508594	1.401266	0.345231
