14
Coordinates from ORCA-job run
  C   -0.76903403332607      0.16739214360353     -0.53220003219067
  C   0.71119057226670     -0.15896941816633     -0.68721149487693
  Br  -1.71173600778738     -0.04543239150594     -2.21553285505062
  H   0.77636747436079     -1.16028072603419     -1.11822369279004
  H   1.12207300849509      0.54742987977669     -1.41331623009081
  C   -0.99105393947742      1.51782372304679     -0.03757304805626
  N   -1.09706964685496      2.63174331105112      0.32336623374858
  N   -1.36801674305781     -0.83742941674503      0.46585238747016
  O   -1.23462673222956     -2.01514943430405      0.17197937965234
  O   -1.87599553086030     -0.37928705371968      1.48125966085162
  C   1.45779704167123     -0.07861308040170      0.64123802193729
  H   2.51942141741833     -0.26743222655466      0.47186885261289
  H   1.09969668685517     -0.82910904786417      1.34893545328602
  H   1.36098643252619      0.90731373781763      1.10055736349643
