14
Coordinates from ORCA-job run
  C   -0.76333922759521      0.30419435326197     -0.34895156922477
  C   0.71651528122623      0.55308704245251     -0.04076132004414
  Br  -1.04246703881518     -0.26497631267554     -2.17414448748483
  H   0.75010251050826      1.02389528419084      0.94644361141310
  H   1.07273270358416      1.28502502358716     -0.77005875447695
  C   -1.56821519404873      1.49303689740721     -0.10542998783030
  N   -2.17891275015570      2.48098357575139      0.07691842749236
  N   -1.23568905315876     -0.78710446654757      0.63589565732776
  O   -1.39235142972594     -1.92511912642312      0.23043494502490
  O   -1.32270961012969     -0.38863554346235      1.79134974899222
  C   1.56981584490639     -0.70833076415790     -0.06040838902728
  H   1.48482498154717     -1.23915787854511     -1.00920628969659
  H   2.61669706858266     -0.43529254004684      0.08385475338561
  H   1.29399591327436     -1.39160554479265      0.74506365414892
