14
Coordinates from ORCA-job run
  C   -0.74975891432711      0.32898649676933     -0.35676435109706
  C   0.72654721949841      0.54099997905507     -0.00655652753681
  Br  -0.99699007376818     -0.17546169085891     -2.20490739148568
  H   1.11243136139586      1.29017947975900     -0.70250163378715
  H   0.74462067765973      0.97851718602942      0.99622593319800
  C   -1.53879472733575      1.52365903925888     -0.09152283619984
  N   -2.13450924031797      2.51675190893525      0.11099414990150
  N   -1.26372286900287     -0.78516048683768      0.58135248940825
  O   -1.43059105586601     -1.90643132356097      0.13550044008117
  O   -1.37135823681664     -0.42261551991558      1.74676882242757
  C   1.55837316874077     -0.73416998517225     -0.04826586872349
  H   2.60631498118599     -0.48461661317448      0.12753092762760
  H   1.25271930931922     -1.43767921531974      0.72843845324630
  H   1.48571839963453     -1.23295925496736     -1.01529260706038
