16

C	0.0	0.0	0.0
C	-0.503984	0.091772	-1.451965
Cl	1.838752	0.0	0.0
H	-1.606048	0.077945	-1.336331
C	-0.349906	1.217323	0.746584
N	-0.552892	2.179783	1.387835
N	-0.529787	-1.128123	0.628977
H	-0.360867	-1.171633	1.621809
H	-0.31273	-1.996544	0.160811
C	-0.092689	-1.117564	-2.162815
N	0.252284	-2.083029	-2.73725
C	-0.047791	1.343726	-2.198693
H	-0.383724	2.233717	-1.66284
H	-0.497492	1.355543	-3.193087
H	1.038242	1.373073	-2.302497
Br	-3.784078	0.0	0.0
