16

C	0.0	0.0	0.0
C	-0.573331	0.314498	-1.391929
Cl	1.796582	0.0	0.0
H	-1.665218	0.32388	-1.215274
C	-0.371519	1.076676	0.928545
N	-0.590447	1.957691	1.674364
C	-0.496959	-1.347202	0.497104
H	-0.105997	-1.537703	1.497989
H	-1.589102	-1.308441	0.517985
H	-0.161079	-2.120262	-0.192453
N	-0.250698	-0.741927	-2.336757
H	-0.980375	-0.797145	-3.035668
H	0.631753	-0.554565	-2.796873
C	-0.155378	1.647509	-1.855006
N	0.172808	2.679143	-2.312677
Cl	-3.667965	0.0	0.0
