16

C	0.0	0.0	0.0
C	-0.57603	0.407496	-1.366294
Cl	1.796537	0.0	0.0
H	-1.667913	0.407611	-1.185544
C	-0.37442	1.009237	1.000679
N	-0.584177	1.833782	1.811451
C	-0.494032	-1.379679	0.404863
H	-0.156065	-2.102303	-0.336099
H	-1.586885	-1.34562	0.431562
H	-0.101107	-1.637236	1.390254
N	-0.258238	-0.585217	-2.380591
H	0.61671	-0.364022	-2.836171
H	-0.994087	-0.598547	-3.073355
C	-0.155735	1.766886	-1.742147
N	0.175591	2.8246	-2.133303
Cl	-3.663304	0.0	0.0
