14
Coordinates from ORCA-job run
  C   0.79449050658842     -0.38404559619544      0.52793387642764
  C   -0.50945879333944     -0.12091779961794     -0.21386709869382
  F   0.87536547475401      0.37183512055626      1.64510562145035
  H   -0.43531701832397     -0.63924672090320     -1.17742075801763
  H   0.94427223333208     -1.43543071050555      0.78398371759521
  N   1.93520619299807     -0.01971379826938     -0.38852174148453
  O   2.65087214730818      0.92101892066243     -0.08779668936003
  O   2.02720150824398     -0.73511746552564     -1.38212036024664
  N   -0.57111984585447      1.29159643403657     -0.48219972737267
  H   -0.76796124753748      1.79275110535004      0.37540150927504
  H   -1.28207235172798      1.50767442109079     -1.16700985776135
  N   -1.60025598738837     -0.59496732411637      0.63669398941512
  H   -2.48287775705797     -0.34862644981572      0.20480115564032
  H   -1.57734506199507     -1.60581013674685      0.72501636313300
