14
Coordinates from ORCA-job run
  C   0.74802255382151     -0.58110845482165      0.28036098800938
  C   -0.59648495385936     -0.08637450714788     -0.26712284903608
  F   0.79900825142337     -0.48269444127949      1.62771512609814
  H   -0.61959057157628     -0.35786259458992     -1.33134100694804
  H   0.95586301760676     -1.61105358804766     -0.01906263525419
  N   1.85374201300448      0.25044454809352     -0.31329292908742
  O   2.52607172732340      0.95866630954879      0.42011506266433
  O   1.94466633890330      0.15400170022952     -1.53636727565339
  N   -0.70482571202258      1.33464831318214     -0.00285281028966
  H   -0.12302066749731      1.87517035743919     -0.63123686511303
  H   -1.66964461407898      1.59974513360913     -0.15576447869632
  N   -1.71741304024497     -0.72374679352605      0.38555087654992
  H   -1.77420706425525     -1.70667248410820      0.15301354310193
  H   -1.62218727854810     -0.62316349858145      1.38928525365443
