14
Coordinates from ORCA-job run
  C   0.70009389134372     -0.63905821874076      0.02676406937861
  C   -0.52030139337278      0.22859763033714      0.29493990682155
  F   0.86815544881394     -1.52623497745693      1.05070566353049
  H   -0.31754843266237      0.74487583682123      1.23775106833446
  H   0.65220901959752     -1.18399412140448     -0.91844374868014
  N   1.92437681887322      0.22410905697050     -0.04188807560457
  O   2.25362166695929      0.77824302190832      1.00100602334150
  O   2.47233832363300      0.32189295658632     -1.13532959205924
  N   -1.73842892490426     -0.54456378803337      0.47478481891675
  H   -1.91565350818862     -1.12900887416474     -0.33539473285955
  H   -1.66247445271199     -1.14756529448933      1.28586990450570
  N   -0.58405067980239      1.21242152735966     -0.75655073523566
  H   -1.31178736724395      1.88226864663207     -0.54199834922207
  H   -0.81955041033432      0.77801659767440     -1.64221622116781
