14
Coordinates from ORCA-job run
  C   0.82734955384962      0.01176835047491      0.51885888828353
  C   -0.50863649754143      0.37733221694914     -0.12390661575630
  F   1.46249413048834      1.14046382020502      0.94478696932588
  H   -0.27415289457714      1.07496723128033     -0.94288198269392
  H   0.71618339580914     -0.68990767880423      1.34510106135069
  N   1.68724494185936     -0.65028719552641     -0.51424914396450
  O   1.68808000023895     -1.88023267704150     -0.50737098874385
  O   2.25291972026141      0.07843002159423     -1.32152203040764
  N   -1.32133330536713      0.93581941540427      0.93917387352791
  H   -2.24472003380769      1.11493855969206      0.56399316529152
  H   -0.92771643302555      1.80845835499244      1.26853855098528
  N   -1.23124047780656     -0.73730675340570     -0.68140984735603
  H   -0.77880969703918     -1.11958213837380     -1.50040777546757
  H   -1.34766240334216     -1.46786152744077      0.01029587562498
