14
Coordinates from ORCA-job run
  C   0.70212258834278     -0.63085939960734      0.09980512346871
  C   -0.58286211621406      0.16114512946499      0.25943622636379
  F   0.93065738443909     -1.38942368161731      1.21565777026555
  H   -0.52030539583690      0.69049136437572      1.21838794529964
  H   0.69210812392545     -1.26375848272372     -0.78724408522887
  N   1.88706788106962      0.28247553339819     -0.04745434666661
  O   1.93645779897866      1.24291055225449      0.72054724952049
  O   2.71895102592455     -0.00787032145501     -0.90286457363683
  N   -1.74799165153584     -0.69581870166432      0.30014611385798
  H   -1.77965624979685     -1.27865791852908     -0.52926139747541
  H   -1.72679206548135     -1.29078241507995      1.11811363869490
  N   -0.70483842159471      1.01910730233878     -0.90554285906589
  H   -1.67209667499323      1.31461975029558     -0.96315103516090
  H   -0.13182222722725      1.84742128854899     -0.79857577023654
