14
Coordinates from ORCA-job run
  C   0.81884469944428     -0.07203568306765      0.58904619717516
  C   -0.43704657313590      0.32262160849856     -0.16093616217703
  F   1.37754531001034      1.02697503736081      1.18122579025284
  H   -0.12647240884239      1.04352059095301     -0.92871156659205
  H   0.64240957777576     -0.84274109151085      1.33877642896514
  N   1.81672126449149     -0.62536731102121     -0.38303115545906
  O   2.12665092428720     -1.80452927351907     -0.24976718959960
  O   2.23257569232694      0.15264496456097     -1.23543976127315
  N   -1.36908017460961      0.85526414242539      0.82706466117537
  H   -2.20930398741936      1.17049977210156      0.35643877588883
  H   -0.96121338336795      1.65643613901766      1.29643116734548
  N   -0.92952220189469     -0.85626110520573     -0.82874153772497
  H   -1.47602998138307     -1.40887226757736     -0.17851505302548
  H   -1.50707875768306     -0.61915552301610     -1.62284059495148
