14
Coordinates from ORCA-job run
  C   0.68776272988207     -0.63084642394335     -0.16628283877519
  C   -0.50926031433207      0.14534593825608      0.36298750562999
  F   0.86210434009160     -1.76494335686436      0.57302249352779
  H   -0.27461831106730      0.37638783470987      1.40633233561847
  H   0.60664306720094     -0.89815962069910     -1.22205550487989
  N   1.92562434459363      0.20462791121236     -0.03288628086802
  O   2.43671989406183      0.60517117292888     -1.07395528946601
  O   2.30316312936775      0.43291238624296      1.11088035340291
  N   -1.73817015948902     -0.63104497492693      0.35504868532968
  H   -1.65644301672617     -1.43781270568974      0.96294561615871
  H   -1.94899863935309     -0.96097310154590     -0.58083549925572
  N   -0.57764402270827      1.38292425721098     -0.37206733186823
  H   -1.30760082228300      1.96327046192966      0.02135149393105
  H   -0.81028221923890      1.21314022117856     -1.34448573848556
