14
Coordinates from ORCA-job run
  C   0.81274330284104     -0.67878315513035      0.00115021687486
  C   -0.52584075230081     -0.03910526868086      0.32410445969865
  F   1.19287737481624     -1.52816977785326      0.99109740282954
  H   -0.49165222289221      0.23696640860365      1.38530970584721
  H   0.81048649753554     -1.19332445955977     -0.95927406535284
  N   1.87815532251049      0.37942344900381     -0.08922288326989
  O   2.59012451479862      0.38733915084784     -1.08899669959183
  O   1.95510213987257      1.15106716420786      0.86625181991581
  N   -1.52840770466107     -1.06260884795497      0.15471751364895
  H   -2.36304449543410     -0.85077276170803      0.68345616071529
  H   -1.76996408572034     -1.14422180313852     -0.82630518160461
  N   -0.71281300782164      1.08860669166718     -0.58714469980466
  H   -0.16110728160611      1.88634442878351     -0.29087555114026
  H   -1.68565960193822      1.36823878091186     -0.56326819876623
