14
Coordinates from ORCA-job run
  C   0.74005711981449     -0.58791912631878      0.28536566683963
  C   -0.61593958213028     -0.07877305159483     -0.21859240302326
  F   0.88917131417237     -0.36786517909639      1.61078828130649
  H   -0.71872961541567     -0.43718110526645     -1.25218745855388
  H   0.88023476722645     -1.65017302203208      0.07250378415710
  N   1.83653240053907      0.12764539707157     -0.45748141570303
  O   1.85044968342777     -0.10443133411066     -1.66554487095362
  O   2.57406043866769      0.88517669595223      0.15435989706506
  N   -0.65028205809370      1.36226717360867     -0.07041017748072
  H   -0.07715134226090      1.82370825917861     -0.76613412212187
  H   -1.60918200334193      1.65941499592175     -0.19952482933712
  N   -1.71735698201269     -0.60689144299666      0.55367914021733
  H   -1.55548747341493     -0.42168162600537      1.53667977511550
  H   -1.82537666717776     -1.60329663431164      0.41549873247238
