14
Coordinates from ORCA-job run
  C   0.76952364321413     -0.67916950462741      0.00431956205019
  C   -0.56837903161165     -0.04561160053802      0.39270301650043
  F   1.18712502917535     -1.55067991604319      0.95233102608684
  H   -0.47170640436043      0.20086341806529      1.45431016931924
  H   0.75397168567952     -1.16900187323817     -0.97135728946254
  N   1.78953400546293      0.41872139198980     -0.10033436076193
  O   2.07163436361440      0.79830499631871     -1.23483952021866
  O   2.19857423164556      0.89391493541957      0.95332647146006
  N   -1.56418965217622     -1.08428136312377      0.25331256620362
  H   -2.43092348818919     -0.75318520382750      0.65990520431477
  H   -1.74664500156670     -1.25177183184536     -0.73090249102067
  N   -0.89104663840267      1.18048090198679     -0.31583939459089
  H   -0.76784652011558      1.08170347010585     -1.31696881224643
  H   -0.32862622236946      1.96071217935744      0.00003385236595
