14
Coordinates from ORCA-job run
  C   0.75429195699232     -0.26180982742829      0.70766326415517
  C   -0.69452112589471      0.09331672536075      0.34827531372694
  F   1.23568989630976      0.64565530868357      1.60222877555689
  H   -1.19864238548124      0.18301482551450      1.32465385652367
  H   0.85809033342177     -1.26824129211954      1.11591954199024
  N   1.61107065145542     -0.21089401786597     -0.52623044145978
  O   1.42256308275349     -1.13945672279785     -1.30926388754485
  O   2.37888314472587      0.72631237939713     -0.66973556613643
  N   -1.41727872229480     -0.88350600919605     -0.42526084133674
  H   -0.90059343154280     -1.10202830022225     -1.26871634090931
  H   -1.56417709930678     -1.73616970841248      0.09927046292307
  N   -0.65343452864938      1.31513087336483     -0.42569232439467
  H   -1.60050094225565      1.56923038049368     -0.67516979189973
  H   -0.23344083023327      2.07044538522797      0.10205797880551
