14
Coordinates from ORCA-job run
  C   0.65788215613333     -0.63525207767046     -0.09285248257880
  C   -0.60708291526382      0.08220565817635      0.37351835072824
  F   0.93335874340139     -1.68711864500650      0.72749787605491
  H   -0.39964640034504      0.42170699507973      1.39491898335998
  H   0.59233653255473     -0.98266847431189     -1.12550888689812
  N   1.81441626446955      0.31796781112715     -0.03473026370771
  O   2.27293178977123      0.56747641529710      1.07404293967453
  O   2.16026701814688      0.81903940387381     -1.10416924217605
  N   -1.74740035921437     -0.81304631783698      0.40974674947376
  H   -2.17006979813041     -0.85874853326527     -0.50790474213467
  H   -1.49517909398138     -1.73953328723107      0.73051556029381
  N   -0.89938610541040      1.21282059844869     -0.48115454959322
  H   -0.37961172291175      1.20218823665982     -1.34836909161164
  H   -0.73481610921992      2.09196221665950     -0.01655120088503
