14
Coordinates from ORCA-job run
  C   0.80537572889841     -0.10126081704661      0.60353407486515
  C   -0.42832932285399      0.33413398665081     -0.16054206909786
  F   1.36889563223753      0.97205950972946      1.23680633999914
  H   -0.09082241400282      1.07188521712592     -0.90043932102486
  H   0.60102956212148     -0.88888245179177      1.32818344650648
  N   1.81445448492027     -0.64426467787944     -0.36261288850888
  O   2.10248198455977     -1.83168798117948     -0.25594174270642
  O   2.26054772309349      0.14977802160694     -1.18439234981301
  N   -1.37274251433448      0.85288234185818      0.82323672409765
  H   -0.96335704799565      1.63459557946091      1.32310690830427
  H   -2.19851030883756      1.19337881759866      0.34467699035526
  N   -0.92477468480269     -0.81706550672155     -0.87202658912223
  H   -1.48041221002513     -0.54840620204197     -1.67164566751303
  H   -1.49383661297864     -1.37914583737006     -0.24994385634165
