14
Coordinates from ORCA-job run
  C   0.75063031103044     -0.55856156407092      0.31627074288478
  C   -0.61309168245496     -0.10420702952624     -0.21882203518224
  F   0.88352527554795     -0.27697359716675      1.63191317809499
  H   -0.70449206706004     -0.51706269881892     -1.23272039155510
  H   0.91807360231465     -1.62568334607502      0.15226611866055
  N   1.83707638821275      0.14987119898850     -0.44842916780441
  O   1.85390980571510     -0.11855689343428     -1.64901582494593
  O   2.56606866885143      0.93363819633458      0.13980292473922
  N   -0.67621992191303      1.34199096862003     -0.14678490035727
  H   -0.11888285718038      1.77533304598769     -0.87276841948657
  H   -1.64210222380185      1.61154308314143     -0.28420728213981
  N   -1.70684401832090     -0.61405473648810      0.57626066755976
  H   -1.79627185905566     -1.61780583961433      0.48680525593854
  H   -1.55137942188549     -0.37847078787767      1.54942913359348
