14
Coordinates from ORCA-job run
  C   0.74941986426424     -0.45860267796500      0.47772107549239
  C   -0.57712624241154     -0.29115682713496     -0.25763161861349
  F   0.69704758457900      0.19114000160918      1.67323498786785
  H   -0.49035838441119     -0.84227226287842     -1.19724492659892
  H   1.02588480275531     -1.50072151194531      0.63503478669748
  N   1.83325377132313      0.16492079871896     -0.35581647829933
  O   2.08286255252804     -0.44423625703439     -1.39243634622480
  O   2.32917266100114      1.21985686696300      0.01502337679268
  N   -0.89232703518537      1.08950850686484     -0.58203577713234
  H   -0.34380946417175      1.43134955375638     -1.36168517319645
  H   -0.73117590604770      1.69418961544610      0.21527163021339
  N   -1.57058724769116     -0.94223529986869      0.56900409547624
  H   -2.46771388362981     -0.85824047096891      0.10622410510468
  H   -1.64454307290233     -0.45350003556276      1.45433626242062
