14
Coordinates from ORCA-job run
  C   0.81964320102657     -0.25996683597809      0.70514922718380
  C   -0.67706636725770     -0.02182631530789      0.47596712455331
  F   1.28849870095755      0.64805135025906      1.59980257068857
  H   -1.07856983625408      0.07682686946471      1.49062146018506
  H   1.04221179779232     -1.27318023833711      1.04024674139937
  N   1.55643442674690     -0.05206626703246     -0.59023367494304
  O   1.34559681558751     -0.91288607693241     -1.44369671392205
  O   2.24022754874467      0.95208902434987     -0.72420718333855
  N   -1.26363747629821     -1.19244977717540     -0.12692913041076
  H   -0.82896888960161     -1.38909385887154     -1.02036624514319
  H   -2.24796493953380     -1.01247435054088     -0.28162518914162
  N   -0.98177538473696      1.21905793228980     -0.21602472814603
  H   -0.63986822446467      1.20090141256685     -1.17028018721430
  H   -0.57576137270848      2.01701713124549      0.25957592824945
