16

C	-0.434459	-0.034584	-1.467518
C	0.0	0.0	0.0
F	-1.832438	-0.174966	-1.510035
H	1.095205	0.0	0.0
C	-0.124512	1.241721	-2.136188
N	0.094936	2.264914	-2.669467
C	0.201097	-1.196862	-2.197378
H	1.288312	-1.097969	-2.147152
H	-0.098167	-2.114717	-1.693818
H	-0.132873	-1.207267	-3.236802
N	-0.430534	-1.22941	0.653551
H	-1.381461	-1.141002	0.988179
H	0.182361	-1.404683	1.43989
C	-0.503568	1.210147	0.66763
N	-0.926553	2.130767	1.263486
Br	3.440084	0.0	0.0
