16

C	-0.386458	-0.070738	-1.489965
C	0.0	0.0	0.0
F	-1.766145	-0.339979	-1.578302
H	1.096111	0.0	0.0
C	-0.169253	1.220118	-2.162345
N	-0.008831	2.251922	-2.69986
C	0.368902	-1.175112	-2.198955
H	1.443024	-1.002256	-2.090729
H	0.114406	-2.131296	-1.739455
H	0.088848	-1.202452	-3.253424
N	-0.417457	-1.172968	0.752183
H	0.320058	-1.864264	0.726772
H	-1.277967	-1.557053	0.384357
C	-0.551768	1.209951	0.618023
N	-1.027805	2.163964	1.11046
Br	3.433784	0.0	0.0
