16

C	-0.412966	0.014913	-1.481217
C	0.0	0.0	0.0
F	0.054288	-1.15563	-2.053378
H	1.09533	0.0	0.0
C	-1.887028	-0.00698	-1.598851
N	-3.05917	-0.010476	-1.675014
C	0.20488	1.185087	-2.221413
H	-0.190641	2.134685	-1.856269
H	1.284641	1.149374	-2.052109
H	-0.007244	1.092846	-3.288358
N	-0.478101	-1.202123	0.66497
H	0.27532	-1.58188	1.22346
H	-1.271383	-1.010489	1.261682
C	-0.458187	1.236689	0.644092
N	-0.864179	2.19434	1.19189
Br	3.446256	0.0	0.0
