17

C	-0.181741	-0.00371	-1.558749
C	0.0	0.0	0.0
Cl	-0.033489	1.741493	-2.041678
H	1.091354	0.0	0.0
N	0.895914	-0.699985	-2.207398
H	0.741451	-1.68762	-2.034969
H	1.747117	-0.458025	-1.674286
C	-1.540379	-0.481176	-2.031405
H	-1.598064	-0.368554	-3.114201
H	-1.668665	-1.535786	-1.778749
H	-2.336009	0.103874	-1.567709
N	-0.412494	-1.297105	0.593848
O	-0.944542	-1.294564	1.704026
O	-0.150797	-2.324289	-0.036752
C	-0.636198	1.07799	0.720023
N	-1.141141	1.966838	1.301958
F	2.518576	0.0	0.0
