17

C	-0.185808	-0.025008	-1.541625
C	0.0	0.0	0.0
Cl	-0.013963	1.795096	-2.064718
H	1.091598	0.0	0.0
N	0.860062	-0.813087	-2.030942
H	1.733781	-0.60308	-1.512591
H	0.960643	-0.750357	-3.034006
C	-1.555208	-0.429233	-2.044604
H	-1.742635	-1.471827	-1.77872
H	-1.592908	-0.331399	-3.132963
H	-2.331082	0.202326	-1.607671
N	-0.489799	-1.308854	0.542226
O	0.288899	-2.255912	0.519914
O	-1.653859	-1.363297	0.952889
C	-0.662489	1.075619	0.698898
N	-1.172478	1.938352	1.313123
F	2.564948	0.0	0.0
