17

C	-0.119406	0.008387	-1.54091
C	0.0	0.0	0.0
Cl	-1.854894	0.125571	-2.050026
H	1.093769	0.0	0.0
N	0.58723	1.180894	-2.0264
H	0.149277	2.016365	-1.649859
H	1.515794	1.09995	-1.596263
C	0.524716	-1.207064	-2.176554
H	0.575895	-1.0216	-3.250881
H	1.527988	-1.277151	-1.747148
H	-0.025934	-2.123395	-1.974604
N	-0.54203	-1.179961	0.709329
O	-0.125974	-2.285176	0.367461
O	-1.347091	-0.994695	1.62416
C	-0.528147	1.217705	0.580516
N	-0.898925	2.251097	1.000478
F	2.533569	0.0	0.0
