17

C	-0.408603	0.038875	-1.48171
C	0.0	0.0	0.0
Cl	0.19066	-1.42018	-2.350175
H	1.09141	0.0	0.0
N	-1.85309	0.023925	-1.608255
H	-2.235118	0.798054	-1.073057
H	-2.107593	0.149655	-2.58237
C	0.333498	1.224047	-2.096566
H	0.223178	1.212071	-3.183749
H	1.386264	1.141558	-1.81141
H	-0.078566	2.159909	-1.708904
N	-0.556081	-1.172667	0.729615
O	-1.462617	-0.980872	1.545725
O	-0.062014	-2.266349	0.483419
C	-0.480379	1.214529	0.637366
N	-0.838773	2.241495	1.086132
F	2.502942	0.0	0.0
