17

C	-0.369066	0.057985	-1.495841
C	0.0	0.0	0.0
Cl	0.124169	-1.471058	-2.310802
H	1.091391	0.0	0.0
N	-1.801969	0.169692	-1.676062
H	-2.00218	0.335863	-2.656457
H	-2.139947	0.962996	-1.140123
C	0.49925	1.160718	-2.098149
H	0.421414	1.146755	-3.188317
H	0.159634	2.134006	-1.730845
H	1.529207	0.988117	-1.770218
N	-0.58831	-1.171961	0.703249
O	-1.623497	-1.002398	1.355095
O	0.00068	-2.242402	0.590696
C	-0.478611	1.216051	0.635062
N	-0.834345	2.244071	1.082723
F	2.521276	0.0	0.0
