17

C	-0.376841	0.063165	-1.511648
C	0.0	0.0	0.0
Cl	-0.031037	-1.577122	-2.181141
H	1.091134	0.0	0.0
N	-1.744187	0.37622	-1.849831
H	-1.9164	1.341768	-1.58756
H	-2.360462	-0.206173	-1.29162
C	0.597699	1.044456	-2.14018
H	0.357634	2.059048	-1.802048
H	1.602233	0.789569	-1.787893
H	0.51096	1.002912	-3.226813
N	-0.604493	-1.194579	0.655609
O	-1.84083	-1.250342	0.689195
O	0.14329	-2.058805	1.095372
C	-0.52356	1.185054	0.651438
N	-0.92736	2.18168	1.128219
F	2.542541	0.0	0.0
