16
Coordinates from ORCA-job run
  C   -0.55538789023878     -0.23049253155464      0.00057511688176
  C   0.94217969564597      0.03817751545867     -0.27441537672532
  F   -1.25846842799576      0.54141120227142     -0.93968543775645
  H   1.53690867596228     -0.45558674674371      0.49499151787333
  N   -0.76529378899327     -1.61933936480514     -0.17794247307689
  H   -1.69170210461112     -1.88754686384235      0.12751115484070
  H   -0.64325360009839     -1.89367374912834     -1.14602025966207
  C   -0.99582326510339      0.21878778881312      1.37555468324840
  H   -0.88664065479001      1.29587368684203      1.48569429894551
  H   -0.41898189301510     -0.28368389340589      2.15195214603365
  H   -2.05281374827112     -0.02941094104204      1.49510990637259
  N   1.23129654772968      1.51301453804610     -0.15444751178467
  O   1.49707038732606      1.90141773324227      0.98010966032296
  O   1.14763232340768      2.19765265302411     -1.16550908067773
  C   1.31930025741870     -0.43151571642012     -1.60160564023450
  N   1.59597748562656     -0.87708531075549     -2.65187270460129
