16
Coordinates from ORCA-job run
  C   -0.57881934959249     -0.16330382647538      0.00476523736874
  C   0.93284583990070     -0.05364120417703     -0.30044133959356
  F   -1.20778344948817      0.74606028942895     -0.86248293090730
  H   1.48406983303632     -0.65811680153646      0.42084570005489
  N   -0.95598150087041     -1.50317102926448     -0.25307629855955
  H   -1.89902833304117     -1.68248139157385      0.06646906489783
  H   -0.89164841443879     -1.72661853234208     -1.23959265121630
  C   -0.92954827990196      0.24269581156212      1.41850684902794
  H   -0.39991673983247     -0.37599802898190      2.14303290814180
  H   -0.68824171804180      1.28926084471262      1.59353261200443
  H   -2.00571003571313      0.11481273976615      1.55505248933697
  N   1.39608048215992      1.36809804299532     -0.10536077585071
  O   1.73152620201329      1.65449481239674      1.04100911039202
  O   1.37205341090804      2.11683149855691     -1.07319796881641
  C   1.22103171466567     -0.48180693756612     -1.66347060258376
  N   1.41907033823644     -0.88911628750153     -2.74659140369703
