16
Coordinates from ORCA-job run
  C   -0.55700286965738     -0.22407166029493     -0.04284672669389
  C   0.96285887355618      0.01784647004519     -0.19063412054471
  F   -1.16207083711654      0.52645277937639     -1.06509193412635
  H   1.47973196518801     -0.45954273132329      0.64266612615811
  N   -0.77059137542236     -1.61490133062331     -0.19701298985962
  H   -1.72366499406397     -1.86361941660667      0.03375995964969
  H   -0.56627242915166     -1.92219053202400     -1.14091584326999
  C   -1.11048535037065      0.27425289692324      1.27316963102484
  H   -0.60523862830374     -0.20225212640009      2.11309984584893
  H   -2.17552475039727      0.03453106635939      1.31185499893086
  H   -1.00410960448460      1.35410955886834      1.35392566485486
  N   1.26229280419923      1.49207221919794     -0.08720725877373
  O   1.27796213074750      2.14784254349403     -1.12052766575633
  O   1.43396722894761      1.91018280633254      1.05493247154216
  C   1.44910575611307     -0.49550323931894     -1.46504045347663
  N   1.80904208021655     -0.97520930400585     -2.47413170550820
