16
Coordinates from ORCA-job run
  C   -0.48097159403809     -0.40705170692813     -0.06082328589039
  C   0.75738458440047      0.44286649783320     -0.41109745507571
  F   -0.34292788471061     -1.54006080238566     -0.90245605460177
  H   0.68893710805157      0.75963757818862     -1.45262211146709
  N   -0.50891562200239     -0.73996626709848      1.30426321636495
  H   0.32933623698486     -1.21615815861946      1.60952744366251
  H   -1.33165042737099     -1.27977045548169      1.53559023243650
  C   -1.74729385288528      0.30617278742785     -0.48040267450565
  H   -2.60387092648063     -0.33615707717212     -0.26407046081863
  H   -1.86246212615517      1.24075942262379      0.06941961116946
  H   -1.73481237339586      0.50307809833847     -1.55302749629674
  N   2.00424440077061     -0.41040468335673     -0.35223500460486
  O   2.59031266837693     -0.59220369564487     -1.41102138418319
  O   2.31689694589527     -0.86089077794750      0.74562578101170
  C   0.90683151143494      1.58993987221381      0.47237759099771
  N   1.01796135112438      2.54220936800893      1.14995205180121
