16
Coordinates from ORCA-job run
  C   -0.47995063306896     -0.40931569638865     -0.05822394010543
  C   0.76493659291676      0.43056416747125     -0.40974627771040
  F   -0.32455080517486     -1.56767696241637     -0.86089486621999
  H   0.71765969433890      0.71353905861862     -1.46205340592435
  N   -0.53556494366636     -0.69913630154528      1.31584526825596
  H   -1.36093379568763     -1.23509486678097      1.54646995315054
  H   0.29766375186991     -1.16203289335739      1.65351715074521
  C   -1.73775186496332      0.28912006686084     -0.52559708993660
  H   -2.59892288626200     -0.34436742287526     -0.30164399347811
  H   -1.70553601349709      0.44734523983759     -1.60415874343196
  H   -1.86201105980391      1.24279561131006     -0.01178535255273
  N   2.01079673976495     -0.41903394500515     -0.29781687417764
  O   2.29967946573359     -0.83558456577728      0.81978171666743
  O   2.61957376564139     -0.63264467804741     -1.33763062725831
  C   0.89687515342022      1.60469337404415      0.44029701978329
  N   0.99803683843840      2.57482981405123      1.09364006219308
