16
Coordinates from ORCA-job run
  C   -0.50802847111331     -0.37768308856915     -0.01068485376831
  C   0.71025557552525      0.43481261810550     -0.49480777271203
  F   -0.56807815549554     -1.45113666080565     -0.93490881053921
  H   0.50122708832000      0.83185333674208     -1.48901808148522
  N   -0.34605051807960     -0.80806679599428      1.31758191457059
  H   0.50000314473387     -1.34538452316246      1.45510189686795
  H   -1.15346494715052     -1.32515417070524      1.63799438900090
  C   -1.77900702333312      0.42515084524339     -0.17890696740740
  H   -2.62884060765779     -0.18588135205669      0.13290957364622
  H   -1.75041359735249      1.32431305472650      0.43699651587926
  H   -1.92200281565012      0.69397674664996     -1.22589469348531
  N   1.89815385650345     -0.47996631311451     -0.69052841536625
  O   2.30407806443625     -0.60783125004140     -1.83763597819243
  O   2.34797596820187     -1.02819349397555      0.31111596736944
  C   1.06183658112987      1.50389993656681      0.42827866909041
  N   1.33135585698193      2.39529111039069      1.14340664653140
