16
Coordinates from ORCA-job run
  C   -0.57749017178261     -0.16507408708942     -0.04151551679191
  C   0.95619717120598     -0.06710025297469     -0.21220346774435
  F   -1.12256348597921      0.69605252488239     -1.00885362369040
  H   1.43701270345326     -0.63906266171015      0.58232163140116
  N   -0.93169011904956     -1.51760235459322     -0.26332588941802
  H   -1.90030217579017     -1.68296210599288     -0.02298032822348
  H   -0.77714554491988     -1.79121783960748     -1.22698189607803
  C   -1.05494279683198      0.31316886445199      1.31105890521660
  H   -0.83653172650075      1.37042930413765      1.44750883927810
  H   -2.13827197877545      0.18218448358317      1.35979814042084
  H   -0.58735115743475     -0.25775654141945      2.11299528847986
  N   1.40421680217664      1.36207145846933     -0.03781303719395
  O   1.46775838342567      2.06842527583711     -1.03528793528603
  O   1.63716547281098      1.69740642374924      1.12063139571230
  C   1.36482607333785     -0.55557172279230     -1.52299484277048
  N   1.65811255065398     -1.01339076893131     -2.56335766331221
