16
Coordinates from ORCA-job run
  C   -0.56647703877925     -0.42721250799598     -0.13053716455766
  C   0.85407264311293     -0.06161288608645     -0.62165532233363
  F   -1.18328286437927     -0.88365068008737     -1.32032026801375
  H   1.27771518256043     -0.93492063766978     -1.12206964224213
  N   -0.44764327544651     -1.43991602965997      0.84200455798927
  H   0.00030492089069     -2.27438861859097      0.48479882104782
  H   -1.34203954161368     -1.67537619563335      1.24992991253973
  C   -1.38035792136120      0.73951737533489      0.37350001834618
  H   -0.91660100145126      1.18379264556488      1.25224460471226
  H   -2.37952251876945      0.38080233804519      0.63096050203895
  H   -1.48099163868229      1.49460033139220     -0.40538723691711
  N   1.74666083745338      0.21401834648681      0.55881668758019
  O   2.51806028058060     -0.68564152192151      0.87003737339585
  O   1.60702736207417      1.29376722394708      1.12138569282988
  C   0.85251639701549      1.08139669949204     -1.52308995005722
  N   0.84055817679523      1.99382411738228     -2.26161858635862
