16
Coordinates from ORCA-job run
  C   -0.64912893655221     -0.42203186734518     -0.19400827787204
  C   0.79014283385745     -0.09008855120113     -0.69361879671396
  F   -1.28843362940549     -0.73742341572042     -1.39894133805717
  H   1.15513902849064     -0.95878002292133     -1.24579079126542
  N   -0.68100439724873     -1.54909976316656      0.65515282830753
  H   -0.76624273801495     -1.32628615340623      1.63374563717212
  H   0.04613629704244     -2.23064937227773      0.49513669608373
  C   -1.36869175686438      0.75638792035281      0.41784178822009
  H   -0.84217113866351      1.13625229070253      1.29407306946487
  H   -1.45900035745447      1.56010272842101     -0.31195856150479
  H   -2.36944983879262      0.42937254008044      0.70380361023782
  N   1.70021868474969      0.06488590313026      0.49150449353140
  O   1.73244359608433      1.15961371670628      1.04393518667990
  O   2.29794412399511     -0.94932069146448      0.84246159248367
  C   0.84185103559297      1.10148242625177     -1.52579019762321
  N   0.86024719318375      2.05658231185796     -2.20854693914454
