16
Coordinates from ORCA-job run
  C   -0.48401121493482     -0.49301689102059     -0.07835752158384
  C   0.72326220600422      0.32561264515351     -0.58323752108568
  F   -0.55460134015074     -1.57625783830035     -0.96838265980192
  H   0.61201874886368      0.47853712187289     -1.65750284190048
  N   -0.26410911495181     -0.96996239865848      1.23085483424878
  H   -1.09857350341548     -1.02874060860201      1.79187689984696
  H   0.51146934495258     -0.57167374832132      1.73560705035032
  C   -1.77280086692445      0.28581252284987     -0.25962650294054
  H   -1.90107605067260      0.59650480204618     -1.29815187480007
  H   -2.60415044731574     -0.37529211371195     -0.00276801908420
  H   -1.79837643577099      1.15983205287716      0.39193611683836
  N   1.99151371910796     -0.47903742328047     -0.41585341225172
  O   2.35074595404396     -1.12822468579469     -1.38822504624226
  O   2.53451117341054     -0.43394896680807      0.68475992735396
  C   0.84863766423572      1.59079713644591      0.12557073802578
  N   0.90654016351794      2.61805839325241      0.69149983302654
