16
Coordinates from ORCA-job run
  C   -0.53712723900162     -0.43278716913817     -0.11637021550644
  C   0.76272227565016      0.36114835930843     -0.46237443334364
  F   -0.51421051269412     -1.47241543234894     -1.04421069770569
  H   0.69304868587575      0.76776789122080     -1.47235717620709
  N   -0.59498992029438     -0.99600127044013      1.18020686595894
  H   0.28802437735110     -1.38512938746786      1.48303453160755
  H   -0.95035192214006     -0.34846293455039      1.86800115078056
  C   -1.74933756671626      0.43003835598344     -0.38916333458393
  H   -1.76501617842560      0.73535668807400     -1.43594420006273
  H   -2.64009607032066     -0.16453137430766     -0.18330796223621
  H   -1.75783948186535      1.32010573843177      0.24366011100250
  N   1.93365787258902     -0.58575607983937     -0.49628986955280
  O   2.42550836273049     -0.80969883943125     -1.59429653046413
  O   2.27675735385156     -1.07764223095750      0.57594319163965
  C   0.99927886345547      1.40680547446774      0.52004792148549
  N   1.13097109995453      2.25320221099509      1.32342064718795
