16
Coordinates from ORCA-job run
  C   -0.65589838172890     -0.41594131396731     -0.18068216607081
  C   0.77602434125351     -0.09793619278058     -0.70922955731711
  F   -1.32302486804666     -0.71980346121164     -1.37467609182395
  H   1.12225069284930     -0.97054399977598     -1.26726492650782
  N   -0.68097456745316     -1.54419139726499      0.66583087841251
  H   0.04248944617434     -2.22775921922873      0.49926303601240
  H   -0.76360030341811     -1.32532489239468      1.64535363781129
  C   -1.35094739262150      0.76854015075920      0.44776675223985
  H   -2.35153182420690      0.45257272938316      0.74725755943447
  H   -1.44315794183296      1.57714605733708     -0.27657914612069
  H   -0.80615998877877      1.13724558582665      1.31769280132178
  N   1.71084615028325      0.05123855424230      0.45638162265324
  O   1.76284658214725      1.14614036783611      1.00691562952642
  O   2.30733401546802     -0.96749268704167      0.79655019242597
  C   0.82007761077717      1.09149312979836     -1.54506940314275
  N   0.83342642913411      2.04461658848272     -2.23051081885483
