16
Coordinates from ORCA-job run
  C   -0.58004343612883     -0.15616752754811     -0.03844150630170
  C   0.94980022433480     -0.06102372440616     -0.24093549643121
  F   -1.14030005178037      0.77417486060883     -0.92962427054750
  H   1.44340603324012     -0.69191725939100      0.49922713762931
  N   -0.95433429944130     -1.48706709002100     -0.34319618917677
  H   -1.91773393603507     -1.66042870715741     -0.08795457447660
  H   -0.82928468949509     -1.69438507824039     -1.32735870775779
  C   -1.01765187064135      0.23203967929313      1.35594934769328
  H   -2.10097993704256      0.10934319120541      1.42288244552486
  H   -0.53792940237708     -0.39871459688184      2.10420117533183
  H   -0.78267989960756      1.27479909742188      1.55991874771516
  N   1.41783070726618      1.34771735163363      0.02035947072973
  O   1.46124111500943      2.12197714787143     -0.92654122216259
  O   1.68483624912359      1.59955440052612      1.19262123690495
  C   1.32079289840692     -0.46142042513202     -1.59241330017257
  N   1.58203029516819     -0.84748131978250     -2.66969429450238
