16
Coordinates from ORCA-job run
  C   -0.57958334306135     -0.15805657167181     -0.03641812338447
  C   0.95477870213769     -0.08412043239991     -0.21237512711942
  F   -1.11593082263408      0.68936873600093     -1.02041055871885
  H   1.43025065549603     -0.64458433408461      0.59341564280304
  N   -0.95246705494392     -1.51014800471176     -0.22824966440645
  H   -1.92326280733196     -1.65661639966337      0.01603613232598
  H   -0.80287435062742     -1.80682940326965     -1.18577459035357
  C   -1.04705262642545      0.35542628896506      1.30684432616011
  H   -0.81290948434933      1.41202423668131      1.42061009549809
  H   -0.58686941563614     -0.20595307474966      2.11982842847620
  H   -2.13206591137398      0.24106065351270      1.35985947581357
  N   1.42164666528244      1.34219685302225     -0.07148319361474
  O   1.66244011909824      1.70062567699097      1.07842373427376
  O   1.49009933128151      2.02563363200427     -1.08453229899080
  C   1.35446331023877     -0.60761392294043     -1.51263821323784
  N   1.63933703284895     -1.09241393368631     -2.54313606552461
