16
Coordinates from ORCA-job run
  C   -0.49399454371569     -0.48100759604851     -0.11737661633936
  C   0.74545480715368      0.40782572797330     -0.45239086543354
  F   -0.35330109701359     -1.54524237041185     -1.00630977390365
  H   0.67776842265576      0.76959996994921     -1.47939911682394
  N   -0.54696445026540     -1.00143822403279      1.19655369003462
  H   -0.99317676364801     -0.37138061789677      1.84634062260470
  H   0.35599447331597     -1.29276013801864      1.54675313112515
  C   -1.76457547764436      0.26567039659915     -0.45870284350188
  H   -2.60892282479907     -0.39317005880090     -0.25209389225790
  H   -1.77346628696536      0.52517705807490     -1.51802162933257
  H   -1.86612926729851      1.17696971368577      0.13470055421701
  N   1.99276476005388     -0.43642993869960     -0.41156620118215
  O   2.53988162762129     -0.65733527793338     -1.48367414709278
  O   2.33908041997843     -0.85636622104573      0.68980848085989
  C   0.85897353646564      1.50421455149005      0.49603505187053
  N   0.89161266410534      2.38567302511579      1.27134355515588
