16
Coordinates from ORCA-job run
  C   -0.65112510545444     -0.09138389551990     -0.12990964264074
  C   0.90763267875433     -0.12486827102545     -0.17762837949866
  F   -1.02257105151682      0.71641084794176     -1.19144329627609
  H   1.27743016075377     -0.71426265115950      0.66365475325623
  N   -1.22579869539142     -1.37561985641961     -0.34742384330801
  H   -1.20714691927638     -1.95894779084430      0.47638328767418
  H   -0.83508058013883     -1.85950054443167     -1.14607875589932
  C   -1.17229121692469      0.51753950391062      1.15222248043440
  H   -2.25968194649648      0.44038818235540      1.13600021527735
  H   -0.78134384147611     -0.00056319657707      2.03043769897567
  H   -0.89290410259297      1.56763559916781      1.21956585361911
  N   1.47675271890873      1.25751728925385      0.00775258848715
  O   1.68258835834571      1.58732678689966      1.17336988438131
  O   1.64544416958974      1.94361270502784     -0.99212421883034
  C   1.36676305776426     -0.68941599576559     -1.43963564392581
  N   1.69233231515161     -1.21786871281385     -2.43614298172641
