16
Coordinates from ORCA-job run
  C   -0.65539966872803     -0.41877754656572     -0.17843652690356
  C   0.78177034192780     -0.11026563172203     -0.70058125156759
  F   -1.31091404701331     -0.75036554567954     -1.37008209646255
  H   1.13156405868732     -0.99255062716157     -1.24085170021731
  N   -0.68946677426475     -1.52881746907634      0.69222043530014
  H   0.02404111878596     -2.22476956455656      0.53357840492923
  H   -0.75743562476514     -1.28720609364979      1.66771330551487
  C   -1.35585164669015      0.77834341088054      0.41964597004549
  H   -1.44612198370754      1.56962548050833     -0.32367079898023
  H   -0.81536686250677      1.16800580510180      1.28298833286004
  H   -2.35680463372675      0.46713657401719      0.72215502337030
  N   1.70650865089234      0.05627652221431      0.47074221758192
  O   1.75596945594048      1.16016763629501      1.00343657171214
  O   2.29705623276482     -0.95809136667763      0.83342344897933
  C   0.83458098677811      1.06528820872192     -1.55516506105389
  N   0.85387039562563      2.00700020735007     -2.25611627510833
