16
Coordinates from ORCA-job run
  C   -0.63399526799277     -0.18530776115196     -0.10680536953405
  C   0.90780185945542      0.02167006071539     -0.21725634391074
  F   -1.17064281639963      0.59383841544605     -1.11852015417596
  H   1.39939933269798     -0.53101460557151      0.58574950944394
  N   -1.01764504074766     -1.53332734004236     -0.35599311013274
  H   -0.59622225454083     -1.92200800968120     -1.19015398801494
  H   -0.87418335462114     -2.13754816604163      0.43991012305306
  C   -1.18447008699402      0.29065293784747      1.21847846087862
  H   -1.04996791600297      1.36519747312782      1.32892117049352
  H   -2.25067358946284      0.06426703472012      1.23105866811135
  H   -0.69492226859544     -0.20729875974822      2.05779753236336
  N   1.26862969759765      1.46842184576221      0.00011457659579
  O   1.47089608960648      1.78760162572651      1.16919987452028
  O   1.28733017037151      2.20439568304135     -0.97812668534751
  C   1.39135523153428     -0.42290209612524     -1.51718159601150
  N   1.74831021409398     -0.85663833802482     -2.54819266833248
