16
Coordinates from ORCA-job run
  C   -0.55115204974228     -0.23182991190324     -0.06571177156040
  C   0.96697398888232      0.04264487919118     -0.16501827588021
  F   -1.14483255642173      0.55184917797293     -1.06977221131115
  H   1.47281808480736     -0.46133927108920      0.65932285064513
  N   -0.73558426382714     -1.61818059743324     -0.28495671956933
  H   -0.50069701279295     -1.88059429201520     -1.23537086967971
  H   -1.69056079776979     -1.89127708258473     -0.09259437833187
  C   -1.14660913879816      0.19885152146706      1.25588663310333
  H   -1.05981835226424      1.27540498339820      1.38815100891372
  H   -2.20823083955684     -0.05863902854415      1.25475138557316
  H   -0.65587929123391     -0.30777986587781      2.08690264780465
  N   1.23615223440365      1.51600706212724      0.00800297562084
  O   1.26478986529806      2.21516776892942     -0.99612537660500
  O   1.37118564847495      1.88784771630163      1.17072548132228
  C   1.49315652372026     -0.40691168651697     -1.44777758202157
  N   1.88828795682042     -0.83622137342312     -2.46641579802383
