16
Coordinates from ORCA-job run
  C   -0.56088842215698     -0.43102854965407     -0.13900555601237
  C   0.87066628456938     -0.06771489709991     -0.59908068311314
  F   -1.14628170175893     -0.90442936689253     -1.33767013496053
  H   1.30966290086367     -0.94705354836012     -1.07510664563579
  N   -0.46384635781142     -1.43118029036440      0.84918432389683
  H   -0.00869452677009     -2.26993777076023      0.51159910778800
  H   -1.36768721297869     -1.66219672369678      1.23874762650057
  C   -1.39049874727226      0.73941681064313      0.32964379142389
  H   -2.39613701901132      0.38100019841484      0.56109905280370
  H   -0.95360531654916      1.19340424873919      1.21714516899453
  H   -1.46960818230640      1.48673369201145     -0.45926321307665
  N   1.73163241168167      0.22974211595683      0.59931623296285
  O   2.49824983553853     -0.66156749940065      0.94455551729503
  O   1.57276324198089      1.31733111650206      1.14162286583378
  C   0.88693881982789      1.06175254011744     -1.51734039139267
  N   0.88733399215321      1.96472792384376     -2.26744706330804
