16
Coordinates from ORCA-job run
  C   -0.59821818289510     -0.36626828575542      0.03155682271825
  C   0.66967149107967      0.25103126564768     -0.63829820216023
  F   -0.91193502133716     -1.42159498197078     -0.82298507568405
  H   0.41799528591532      0.64036602598166     -1.62590502951502
  N   -0.41961831382261     -0.88765418755272      1.33477666360603
  H   -0.53520997599064     -0.18713667242392      2.05209412490928
  H   0.45999944719110     -1.37291166227015      1.45124708160556
  C   -1.73193366169031      0.63462268980162     -0.00285561956957
  H   -1.48961505562387      1.53363812088350      0.56807191848235
  H   -1.95452918383519      0.91458061810329     -1.03303666034847
  H   -2.61368299663479      0.16151621264464      0.43084427542090
  N   1.68322455906630     -0.83551919845759     -0.88613916639387
  O   1.87652657856311     -1.14786933858865     -2.05347992959811
  O   2.20692969489718     -1.33828142463394      0.10492678953907
  C   1.24812382670408      1.28244273856974      0.20826824136403
  N   1.69227150841288      2.13803808002106      0.87891376562383
