16
Coordinates from ORCA-job run
  C   -0.56576212258694     -0.39084874935676     -0.12513855979842
  C   0.71419166718851      0.43151230219076     -0.48129541907830
  F   -0.70654684509178     -1.22748896005492     -1.23093018876245
  H   0.53471307194637      1.03147536649159     -1.37463707071574
  N   -0.48291039073385     -1.19705580981539      1.03419416025728
  H   0.41441880562473     -1.65203520424371      1.13772566092117
  H   -0.72443959106412     -0.69374477124115      1.87503313564947
  C   -1.76336182421971      0.53101803085829     -0.06283983060078
  H   -1.89965236577035      1.03366893511554     -1.02105276973034
  H   -2.64624079940881     -0.07481034935255      0.14406846718974
  H   -1.65062034103601      1.28181773859307      0.72234058504842
  N   1.82628657176464     -0.51329191848238     -0.85337527937051
  O   2.16017841915071     -0.52975444895407     -2.03072539618118
  O   2.28297509923510     -1.21101453007416      0.04882893073930
  C   1.11986030115994      1.25656189139255      0.64525913307240
  N   1.38891034384154      1.92499047693328      1.57254444135995
