16
Coordinates from ORCA-job run
  C   -0.66020961827935     -0.11238486612008     -0.05215582001963
  C   0.87446003756753     -0.04882470141243     -0.31771248454503
  F   -1.21133487724616      0.80538693304081     -0.93120913430122
  H   1.38427124564509     -0.72689960229581      0.36936684909182
  N   -1.20924567851833     -1.38790605025491     -0.36558946226496
  H   -0.91575192647323     -1.74065987394400     -1.26763708634953
  H   -1.05748455819623     -2.07238499999518      0.36056451889462
  C   -1.01717044887887      0.29127754566406      1.36047613101801
  H   -0.76966368907595      1.33697546692246      1.53495103337431
  H   -0.48857615268412     -0.31672734612771      2.09749775196479
  H   -2.09248162796713      0.15701552834435      1.47961664855540
  N   1.41135725716183      1.32570845446060     -0.01216005756316
  O   1.40642670597274      2.15386179363329     -0.91373768041622
  O   1.77088356162130      1.50056740283558      1.14962490720084
  C   1.17011190658323     -0.40287157839964     -1.69963415752326
  N   1.40540786276767     -0.76213410635141     -2.79226195711678
