16
Coordinates from ORCA-job run
  C   -0.57188910732378     -0.42244178849089     -0.12378262944978
  C   0.85285693296221     -0.08238405993275     -0.62093380099349
  F   -1.19459872713479     -0.89146264251933     -1.30537006095899
  H   1.26559442795118     -0.96847830842690     -1.10773361853049
  N   -0.46546749511076     -1.41993745383207      0.86608322897729
  H   -1.36371680697995     -1.63880850321322      1.27521457276038
  H   -0.02704189613053     -2.26551680067012      0.52299401024580
  C   -1.37088309089499      0.76278482581721      0.36062998268480
  H   -0.90042788465841      1.21680680028031      1.23090116823996
  H   -1.46348019362868      1.50532011313780     -0.43129044744702
  H   -2.37397961686020      0.42096291958800      0.62567112319852
  N   1.74941788112089      0.20042266628615      0.55506081119039
  O   1.62854900766654      1.29310920323870      1.09663373611655
  O   2.50452795616525     -0.70649524630016      0.88459336113724
  C   0.86536938614913      1.04683533391437     -1.53953308802571
  N   0.86516922670688      1.94928294112291     -2.29013834914544
