16
Coordinates from ORCA-job run
  C   -0.65105376239019     -0.42121573725734     -0.19043168784360
  C   0.78343907272660     -0.08354190867680     -0.70205668051727
  F   -1.30172083797722     -0.72812516973698     -1.39089079143079
  H   1.14334928822448     -0.94745904353936     -1.26487496114241
  N   -0.67401687867650     -1.55453882782431      0.65043516521339
  H   0.04766184581046     -2.23782835063676      0.47373520678210
  H   -0.74373263494097     -1.33901402377125      1.63193655678220
  C   -1.36430504376393      0.75238010993937      0.43837970350832
  H   -1.46494725600501      1.56021864468344     -0.28550761801541
  H   -2.36110510623256      0.42261716768668      0.73483798928519
  H   -0.82659434297173      1.12776062459028      1.30965992213296
  N   1.70521995387934      0.06211950085014      0.47444756294505
  O   2.30607850384377     -0.95511666930673      0.81121214052024
  O   1.74294684688560      1.15229426754238      1.03561950897963
  C   0.82445822088923      1.11459347981792     -1.52533536850316
  N   0.83532213069863      2.07385593563934     -2.20216664869644
