16
Coordinates from ORCA-job run
  C   -0.55755715784810     -0.41522001190577      0.07489796251207
  C   0.72892256303512      0.14345873270163     -0.61272149670043
  F   -0.64600481301821     -1.70461619694180     -0.44661873077980
  H   0.58297489059503      0.19445545374467     -1.69260621056587
  N   -0.51557578633121     -0.50827941830684      1.48619029286310
  H   0.38121976552717     -0.81773834178302      1.83670499192686
  H   -0.79422599158256      0.34977776586073      1.93902871456204
  C   -1.76470292512234      0.37271037707934     -0.38307720342783
  H   -2.65018368805850     -0.06917096842486      0.07515421671314
  H   -1.86343395261098      0.31220728136862     -1.46738641862724
  H   -1.69349570337024      1.42181249203024     -0.08803980449315
  N   1.86368103666727     -0.82706215602197     -0.41105007947029
  O   2.24540370501432     -1.43635746287680     -1.40136672214323
  O   2.29036648347494     -0.94681555179195      0.73465481027727
  C   1.08227905280908      1.43935761598409     -0.05606682690097
  N   1.31033252081923      2.49248038928370      0.41130250425434
