16

C	0.0	0.0	0.0
C	-0.221155	0.084222	-1.533576
F	1.354438	0.0	0.0
H	0.428786	0.90248	-1.839072
H	-0.345384	-0.895048	0.499005
N	-0.608624	1.151365	0.664614
O	-0.591591	2.231451	0.00339
O	-0.599355	1.124916	1.921301
C	-1.55544	0.246709	-2.231936
H	-1.354554	0.370752	-3.306545
H	-2.205511	-0.60666	-2.059814
H	-2.036558	1.13894	-1.837899
N	0.431543	-1.136658	-2.123287
O	0.142364	-2.234904	-1.651007
O	1.176766	-0.971817	-3.090481
H	-2.14562	0.0	0.0
