16

C	0.0	0.0	0.0
C	-0.700341	0.130091	-1.311639
F	1.353185	0.0	0.0
H	-1.820846	0.247329	-0.904551
H	-0.375731	-0.889374	0.506301
N	-0.368076	1.135861	0.946033
O	-0.745651	2.20076	0.474963
O	-0.186406	0.897733	2.140407
C	-0.658303	-1.154441	-2.116465
H	-1.099369	-0.981041	-3.097725
H	0.361841	-1.532234	-2.244264
H	-1.264216	-1.902933	-1.597366
N	-0.284523	1.26017	-2.141492
O	0.741661	1.895814	-1.865887
O	-1.005086	1.509267	-3.119811
H	-2.898487	0.0	0.0
