16

C	0.0	0.0	0.0
C	-0.219904	-0.041636	-1.532229
F	1.363565	0.0	0.0
H	0.461102	0.721081	-1.905619
H	-0.342491	-0.850656	0.57203
N	-0.599909	1.20483	0.572857
O	-0.601183	1.275964	1.827434
O	-0.575481	2.228475	-0.170929
C	-1.547063	0.11504	-2.243387
H	-2.22373	-0.705778	-2.020039
H	-1.343449	0.161792	-3.323512
H	-2.000721	1.04423	-1.908994
N	0.383694	-1.332051	-2.020332
O	0.131636	-2.368769	-1.407302
O	1.048334	-1.283933	-3.058637
H	-2.151726	0.0	0.0
