16

C	0.0	0.0	0.0
C	-0.644834	-0.036476	-1.377451
Br	1.938681	0.0	0.0
H	-0.469489	-1.024688	-1.805451
H	-1.720346	0.131774	-1.225895
N	-0.355777	1.319117	0.685499
O	-0.459393	1.312866	1.904689
O	-0.449997	2.299069	-0.044364
C	-0.519361	-1.156788	0.823057
H	-0.108154	-1.117866	1.829206
H	-1.612674	-1.082736	0.859293
H	-0.224167	-2.093528	0.345159
N	-0.163546	0.930514	-2.408621
O	0.994547	0.800353	-2.807762
O	-0.97316	1.74302	-2.844859
Br	-3.903786	0.0	0.0
