16

C	0.0	0.0	0.0
C	-0.67364	-0.11129	-1.354906
Br	1.934193	0.0	0.0
H	-0.591697	-1.124987	-1.734353
H	-1.730287	0.152064	-1.188147
N	-0.364814	1.432524	0.576253
O	0.437109	2.340189	0.390162
O	-1.436188	1.500791	1.158508
C	-0.589844	-1.03313	0.921167
H	-0.4272	-2.029773	0.502436
H	-0.124678	-0.985296	1.901637
H	-1.665486	-0.825149	0.981989
N	-0.102705	0.789331	-2.382318
O	0.598837	0.279909	-3.25721
O	-0.368999	1.984052	-2.283773
Br	-4.035049	0.0	0.0
