16

C	0.0	0.0	0.0
C	-0.634361	0.046981	-1.384647
Br	1.943256	0.0	0.0
H	-0.544742	-0.945322	-1.825931
H	-1.693133	0.2998	-1.240161
N	-0.354259	1.276421	0.764275
O	-0.486773	1.189906	1.977576
O	-0.413754	2.303173	0.099282
C	-0.522834	-1.206158	0.744608
H	-1.616824	-1.145088	0.741951
H	-0.191988	-2.112634	0.234507
H	-0.15203	-1.207986	1.767143
N	-0.046524	0.975233	-2.393704
O	1.025254	0.633252	-2.898494
O	-0.687877	1.973399	-2.707689
Br	-3.88081	0.0	0.0
