15
Coordinates from ORCA-job run
  C   0.45903817409146      0.13813111141763     -0.22636551376275
  C   -0.91869493021617      0.34291556214344      0.39749086479868
  Br  0.72725074674089      1.62734491229033     -1.56003155721601
  H   -1.02300539747496     -0.31233280193083      1.26521480916978
  H   -1.07154398652131      1.38447865349150      0.66876902259302
  C   1.51857111661331      0.35830361330509      0.84686035241433
  H   2.51308541494233      0.31365687592513      0.39884142285808
  H   1.41179827841660      1.33009057204070      1.33212235352997
  H   1.43213957765868     -0.43642293694344      1.59478191599542
  N   0.54828484640408     -1.10645423764015     -0.89088564883876
  H   -0.15663839146063     -1.78296030221773     -0.64047336606800
  H   1.47964786047248     -1.49121284551880     -0.91146513241917
  N   -2.02917270133811     -0.02347276787342     -0.52827784494358
  O   -2.28210906069103     -1.22576405711702     -0.63059812553933
  O   -2.60865154763762      0.88369864862758     -1.11498355257169
