15
Coordinates from ORCA-job run
  C   0.45325448647943      0.03154999089705     -0.26535566042811
  C   -0.90323668081816      0.48190023802225      0.26912306451894
  Br  0.70132724610149      0.91420056416197     -2.06800689857832
  H   -0.99170391451598      0.16979158787710      1.31211898033318
  H   -1.02276342427205      1.55774803487150      0.16747324054616
  C   1.54756061101141      0.61397587084472      0.62070567438698
  H   1.48406735505396      1.70147743020224      0.68417665647428
  H   1.46011418147297      0.18051757789256      1.62216374270034
  H   2.52714986671745      0.35721322157891      0.21265437603370
  N   0.50538701532875     -1.36915780899838     -0.41268468209103
  H   1.42783184838473     -1.76659633983153     -0.34225538553462
  H   -0.20905336800630     -1.89650426790964      0.06373065739074
  N   -2.04293368894143     -0.15822385704116     -0.44589915373780
  O   -2.33453763546422     -1.30311038176108     -0.09242826937344
  O   -2.60446389853206      0.48621813919349     -1.32451634264099
