15
Coordinates from ORCA-job run
  C   0.50342174818392     -0.01077423203673     -0.20671753069823
  C   -0.90967033827136      0.40003463431076      0.23688747388376
  Br  0.73838818000642      0.71604980309792     -2.03379027732164
  H   -1.01450350245652      1.48205128931985      0.28643896823952
  H   -1.11705157433945     -0.05708894964175      1.20883841793345
  C   1.51051518909753      0.67598901058413      0.70120551921853
  H   2.51773835043429      0.40876344059202      0.38111621136959
  H   1.36601972531694      0.33552491146998      1.73306782713381
  H   1.40283443215006      1.76015743365749      0.67099579670580
  N   0.78395663330474     -1.41367027629050     -0.25255978577268
  H   0.02199764297896     -1.92742933392408     -0.67687884475813
  H   0.94870689522701     -1.76797989672048      0.68255370434921
  N   -1.98090010729905     -0.07725399730341     -0.68181709196642
  O   -2.70917763149766      0.76710470527003     -1.19276550350277
  O   -2.06327564283582     -1.29347854238523     -0.85757488481377
