15
Coordinates from ORCA-job run
  C   0.40233950035280     -0.26099231938062     -0.35209981852322
  C   -1.08268882039803     -0.42982251842626     -0.02760093501549
  Br  0.57678038764663      0.26844261491626     -2.23357426169805
  H   -1.17550546959566     -0.83216967657593      0.98389266615895
  H   -1.54552176244727     -1.09179453808897     -0.75474073074410
  C   1.11020271972728      0.78288436457117      0.49843081877080
  H   0.71830204202407      1.78733812410718      0.34493119214458
  H   0.98663282621303      0.52797551883152      1.55599304552061
  H   2.17441274205405      0.78040464877698      0.25554829737337
  N   0.95469190127792     -1.60426432688105     -0.24487680801904
  H   1.87213732387891     -1.63298411935784     -0.67511451004761
  H   1.06869320051179     -1.82884368782122      0.74008639589453
  N   -1.83489958463696      0.85336772180467     -0.03169238146724
  O   -2.50416016567996      1.11593190927141     -1.02777583240317
  O   -1.72241684092861      1.56452628425267      0.96759286205509
