15
Coordinates from ORCA-job run
  C   0.40775275083065     -0.26336925529220     -0.34417946705486
  C   -1.08885475232150     -0.41031906837319     -0.06486057792011
  Br  0.64638866909915      0.28771687514618     -2.21218493879814
  H   -1.21775803813719     -0.82504534698415      0.93760390852248
  H   -1.54180305062405     -1.05392257648000     -0.81439958077031
  C   1.10807386585956      0.75640228007658      0.54113735073601
  H   0.73753415646293      1.76942845913082      0.39076747127664
  H   2.17868772768353      0.73894287220372      0.32899234959952
  H   0.94972227987936      0.48908754959550      1.59099492244068
  N   0.93380354934523     -1.61748406751277     -0.23918926580161
  H   1.86113467460379     -1.65749698253601     -0.64670556668337
  H   1.01904038893566     -1.85534860875248      0.74556388428094
  N   -1.81766157802074      0.88599496112419     -0.07225079374734
  O   -2.44983721356487      1.17608328546892     -1.08486820555486
  O   -1.72522343003151      1.57932962318490      0.94157850947432
