15
Coordinates from ORCA-job run
  C   0.45741337327331     -0.12293863668065     -0.39011371427885
  C   -1.03505263809732      0.13484141219264     -0.57558097650385
  Br  1.13807673149884     -0.04162212212967     -2.33109137614366
  H   -1.48225939919290     -0.60343911424196     -1.23880187680302
  H   -1.21159269752977      1.14389234686462     -0.94350955095191
  C   1.19998134675734      0.97160698353376      0.34973202473171
  H   0.84253193636490      1.01257418389940      1.37973983951035
  H   2.27118601273252      0.75998173886496      0.34864684689196
  H   1.04271748276734      1.93947856948132     -0.12496685498854
  N   0.65918278744789     -1.37189395565956      0.21385325408030
  H   1.63566694376966     -1.59057433576450      0.35653754613418
  H   0.18787460290089     -2.13660706845261     -0.25104084409331
  N   -1.73418184515881      0.00293970872770      0.73871935743163
  O   -2.30878424532124     -1.05971315829322      0.96128067183327
  O   -1.66276039221264      0.96047344765780      1.50659565314974
