15
Coordinates from ORCA-job run
  C   0.40348999534151     -0.26164123487262     -0.34816650856434
  C   -1.08363468028906     -0.42572776463939     -0.03145309914875
  Br  0.58836314054161      0.26854634205818     -2.22848286602391
  H   -1.18307595457534     -0.82301759144334      0.98146524982911
  H   -1.54300809772639     -1.09065891005043     -0.75805236387100
  C   1.11125226725775      0.77900098520216      0.50651492223406
  H   0.72396548753660      1.78499423806807      0.35183200136114
  H   0.98150532350767      0.52397803567229      1.56332410473976
  H   2.17659261953091      0.77196205957688      0.26873211471342
  N   0.95108899712196     -1.60686945770310     -0.23905895129877
  H   1.86876067279698     -1.63904328379774     -0.66850151675624
  H   1.06380092661445     -1.83061250312318      0.74623706281083
  N   -1.83394002212415      0.85841303369410     -0.04665766754122
  O   -1.71928444933311      1.57897854147458      0.94564814793384
  O   -2.50587622620139      1.11169750988355     -1.04338063041792
