13

C	-0.365739	0.323587	-1.422907
C	0.0	0.0	0.0
F	-1.739931	0.457758	-1.603398
H	1.102597	0.0	0.0
H	0.089885	1.296728	-1.638831
C	0.133908	-0.623946	-2.432573
N	0.478812	-1.265042	-3.352832
N	-0.411662	-1.307164	0.465696
O	-0.524919	-2.204897	-0.380395
O	-0.468725	-1.4803	1.690622
C	-0.433132	1.040688	0.902696
N	-0.710277	1.949472	1.596319
H	2.375009	0.0	0.0
