13

C	-0.47003	-0.144606	-1.437801
C	0.0	0.0	0.0
F	0.302776	-1.062527	-2.118115
H	1.105659	0.0	0.0
H	-1.501545	-0.507527	-1.471146
C	-0.381903	1.138689	-2.156985
N	-0.32881	2.129655	-2.784978
N	-0.4074	-1.129014	0.8063
O	-0.208828	-1.037491	2.027772
O	-0.792971	-2.159883	0.226062
C	-0.422786	1.232944	0.61748
N	-0.719633	2.269525	1.08989
H	2.345337	0.0	0.0
