13

C	-0.449186	-0.35873	-1.411237
C	0.0	0.0	0.0
F	0.310076	-1.378436	-1.943913
H	1.103733	0.0	0.0
H	-1.487076	-0.706059	-1.402438
C	-0.329057	0.807544	-2.308829
N	-0.234362	1.718126	-3.04381
N	-0.453085	-0.97087	0.964634
O	-0.478042	-0.630947	2.158415
O	-0.650858	-2.129795	0.555052
C	-0.391069	1.327132	0.404238
N	-0.620738	2.446166	0.686651
H	2.349256	0.0	0.0
