15

C	0.0	0.0	0.0
C	-0.472173	0.121059	-1.456594
F	1.393143	0.0	0.0
H	-0.116959	-0.727477	-2.052901
H	-1.580418	0.100885	-1.381481
N	-0.483707	1.054672	0.83767
H	-1.509984	0.931223	0.820809
H	-0.282517	1.94784	0.395578
C	-0.454787	-1.329627	0.561748
H	-1.550197	-1.351026	0.52695
H	-0.107986	-1.402811	1.594588
H	-0.029675	-2.149655	-0.024279
C	-0.02269	1.363709	-2.071793
N	0.339621	2.373868	-2.549484
H	-3.12098	0.0	0.0
