15

C	0.0	0.0	0.0
C	-0.569724	-0.016475	-1.408178
F	1.414653	0.0	0.0
H	-0.33262	0.917348	-1.925938
H	-1.678092	-0.050068	-1.233228
N	-0.415671	1.227821	0.601616
H	0.121609	1.993379	0.210366
H	-0.271447	1.196036	1.602096
C	-0.501508	-1.175949	0.79597
H	-1.601032	-1.105637	0.790582
H	-0.113763	-1.125441	1.81863
H	-0.167137	-2.111792	0.341267
C	-0.098941	-1.138098	-2.209033
N	0.275875	-2.041369	-2.860174
H	-3.329632	0.0	0.0
