15

C	0.0	0.0	0.0
C	-0.576348	0.072194	-1.403378
F	1.41731	0.0	0.0
H	-1.684018	0.09751	-1.216953
H	-0.316084	-0.821751	-1.975516
N	-0.405993	1.168816	0.712676
H	-0.159594	1.08079	1.689164
H	0.056583	1.983239	0.326382
C	-0.507989	-1.237913	0.691432
H	-0.131124	-1.273818	1.71828
H	-0.169912	-2.133641	0.164176
H	-1.607044	-1.164864	0.683723
C	-0.132648	1.255728	-2.126283
N	0.228589	2.217451	-2.697653
H	-3.334705	0.0	0.0
