15

C	0.0	0.0	0.0
C	-0.568813	-0.079501	-1.406863
F	1.414604	0.0	0.0
H	-0.325863	0.829196	-1.967024
H	-1.677224	-0.1002	-1.231138
N	-0.41329	1.25593	0.545878
H	-0.276757	1.263008	1.54835
H	0.137563	1.998293	0.129176
C	-0.500288	-1.137533	0.850452
H	-0.102503	-1.042502	1.86607
H	-1.59889	-1.063199	0.851126
H	-0.175394	-2.09418	0.435204
C	-0.103173	-1.23993	-2.152966
N	0.266568	-2.174911	-2.761574
H	-3.33946	0.0	0.0
