15

C	0.0	0.0	0.0
C	-0.509885	-0.192895	-1.423934
F	1.389473	0.0	0.0
H	-1.617052	-0.227991	-1.324413
H	-0.228311	0.685551	-2.01198
N	-0.491619	1.281647	0.428639
H	-0.292255	1.370677	1.423214
H	-1.5217	1.181543	0.352644
C	-0.413952	-1.157897	0.891913
H	-1.508211	-1.189709	0.901016
H	-0.036015	-0.974019	1.902325
H	0.001674	-2.102528	0.531477
C	0.002604	-1.396594	-2.061935
N	0.395172	-2.371001	-2.58786
H	-3.119318	0.0	0.0
