17

C	-0.477893	-0.05825	-1.44915
C	0.0	0.0	0.0
Cl	0.268499	1.213549	-2.432886
H	1.094677	0.0	0.0
C	-0.20855	-1.353604	-2.067704
N	0.027839	-2.354769	-2.634901
N	-2.002206	0.1454	-1.467818
O	-2.42916	1.294883	-1.510591
O	-2.680756	-0.868882	-1.307365
N	-0.382437	-1.238497	0.653158
H	-1.126884	-1.105915	1.324623
H	0.439252	-1.604832	1.123156
C	-0.450842	1.254098	0.727592
H	-1.520804	1.234348	0.97057
H	0.123864	1.308434	1.656056
H	-0.246974	2.159123	0.153751
H	2.698573	0.0	0.0
