17

C	-0.561054	-0.026602	-1.42711
C	0.0	0.0	0.0
Cl	0.144862	-1.341135	-2.371919
H	1.098691	0.0	0.0
C	-2.015656	-0.18243	-1.420459
N	-3.180359	-0.329628	-1.351487
N	-0.245185	1.307053	-2.121743
O	0.84447	1.434228	-2.651174
O	-1.110394	2.174341	-2.012832
N	-0.40691	-1.255754	0.619315
H	0.432557	-1.681131	1.004444
H	-1.06439	-1.09345	1.371878
C	-0.448987	1.226171	0.777173
H	0.017738	1.157758	1.763052
H	-0.09952	2.155178	0.324107
H	-1.537638	1.278757	0.896146
H	2.770544	0.0	0.0
