17

C	-0.543685	-0.006747	-1.414792
C	0.0	0.0	0.0
Cl	-2.348536	0.005248	-1.463469
H	1.094153	0.0	0.0
C	-0.082105	1.13193	-2.203179
N	0.275836	2.074754	-2.807205
N	-0.057822	-1.280861	-2.125631
O	1.082586	-1.196721	-2.566275
O	-0.785311	-2.259535	-2.14541
N	-0.366849	-1.241181	0.655496
H	0.458937	-1.572332	1.145823
H	-1.118991	-1.109094	1.318847
C	-0.403053	1.259963	0.74815
H	0.169837	1.277904	1.679262
H	-0.144623	2.16443	0.190892
H	-1.473467	1.281067	0.980437
H	2.706358	0.0	0.0
