17

C	0.0	0.0	0.0
C	-0.349663	0.464749	-1.423267
F	1.360444	0.0	0.0
H	0.228529	-0.207066	-2.063496
N	-0.573743	0.734972	1.024396
H	-1.579653	0.815667	0.86939
H	-0.420824	0.284052	1.918646
N	-0.289101	-1.538915	0.121525
O	-0.51073	-1.955409	1.253945
O	-0.185168	-2.224615	-0.890222
C	0.22134	1.805545	-1.594064
N	0.659038	2.875903	-1.796825
C	-1.806221	0.434092	-1.863073
H	-1.847176	0.660803	-2.931733
H	-2.429878	1.144687	-1.328157
H	-2.247721	-0.545371	-1.69432
Br	-4.524304	0.0	0.0
