17

C	0.0	0.0	0.0
C	-0.404157	-0.019368	-1.474571
F	1.377264	0.0	0.0
H	0.102836	-0.896338	-1.885468
N	-0.545897	1.028384	0.752448
H	-0.373666	0.883147	1.740558
H	-1.549729	1.094809	0.588525
N	-0.272	-1.414473	0.627565
O	-0.280091	-2.389989	-0.114795
O	-0.364532	-1.439042	1.851418
C	0.190577	1.158303	-2.114638
N	0.642673	2.095341	-2.658981
C	-1.898395	-0.109999	-1.763427
H	-2.041529	-0.270352	-2.834034
H	-2.437286	0.789731	-1.476735
H	-2.365794	-0.928701	-1.220983
Br	-4.751523	0.0	0.0
