15

C	-0.173389	-0.000313	-1.541964
C	0.0	0.0	0.0
Cl	0.073857	-1.743915	-2.123302
H	1.097	0.0	0.0
N	-1.518217	0.323972	-1.959867
H	-1.655501	1.312331	-1.76169
H	-1.593657	0.197383	-2.961723
N	0.84669	0.862192	-2.014155
H	0.972988	0.773573	-3.013433
H	1.722264	0.650495	-1.503027
C	-0.608959	-1.112253	0.698712
N	-1.065947	-2.008389	1.30634
C	-0.474393	1.270291	0.528208
N	-0.864797	2.297754	0.946088
F	2.551752	0.0	0.0
