15

C	-0.172225	-0.053858	-1.540904
C	0.0	0.0	0.0
Cl	0.063984	1.674679	-2.177257
H	1.096977	0.0	0.0
N	0.851986	-0.924624	-1.985103
H	1.731995	-0.68825	-1.490911
H	0.962549	-0.886334	-2.989895
N	-1.513408	-0.401949	-1.951936
H	-1.642066	-1.3825	-1.718583
H	-1.583926	-0.310663	-2.959111
C	-0.475402	-1.251539	0.569052
N	-0.864802	-2.267641	1.01544
C	-0.608618	1.136334	0.659032
N	-1.066898	2.056506	1.227997
F	2.553872	0.0	0.0
