15

C	-0.175323	0.037542	-1.541039
C	0.0	0.0	0.0
Cl	0.039227	-1.701762	-2.155941
H	1.096968	0.0	0.0
N	-1.514652	0.39506	-1.9534
H	-1.598431	0.265193	-2.955226
H	-1.618731	1.38625	-1.7565
N	0.855828	0.892622	-1.998378
H	0.965695	0.839395	-3.003215
H	1.734578	0.660602	-1.498118
C	-0.611132	-1.127239	0.672658
N	-1.077825	-2.035198	1.254616
C	-0.471655	1.258744	0.556082
N	-0.85621	2.2807	0.992057
F	2.554367	0.0	0.0
