15

C	-0.148912	-0.030904	-1.538868
C	0.0	0.0	0.0
Cl	0.174653	1.84801	-2.082893
H	1.095276	0.0	0.0
N	0.879287	-0.833437	-2.020352
H	1.74821	-0.615029	-1.49471
H	1.00092	-0.76076	-3.021226
N	-1.436633	-0.376554	-2.006578
H	-2.105171	0.329217	-1.723494
H	-1.443256	-0.437789	-3.018032
C	-0.456774	-1.264493	0.563596
N	-0.801158	-2.272955	1.059232
C	-0.629288	1.115896	0.673396
N	-1.14845	2.017017	1.221715
F	2.547261	0.0	0.0
