15

C	-0.171248	-0.32638	-1.507707
C	0.0	0.0	0.0
Cl	0.058241	1.266303	-2.437991
H	1.100477	0.0	0.0
N	0.857587	-1.256663	-1.789571
H	1.736074	-0.936013	-1.342811
H	0.96691	-1.402128	-2.784624
N	-1.510373	-0.744395	-1.854664
H	-1.631427	-1.677499	-1.471384
H	-1.59054	-0.807219	-2.864542
C	-0.478553	-1.129407	0.780692
N	-0.873507	-2.050508	1.395246
C	-0.602275	1.238756	0.447441
N	-1.059777	2.237479	0.864295
F	2.553689	0.0	0.0
