15

C	0.021229	-0.004993	-1.552828
C	0.0	0.0	0.0
Cl	-1.645929	-0.00481	-2.257958
H	1.101791	0.0	0.0
N	0.708669	1.199508	-1.922272
H	1.599	1.146581	-1.412333
H	0.909745	1.131208	-2.915045
N	0.709391	-1.177694	-2.048876
H	0.214122	-2.020829	-1.774806
H	1.608538	-1.155454	-1.557081
C	-0.535184	-1.224189	0.553823
N	-0.950419	-2.237197	0.983269
C	-0.571296	1.187894	0.597086
N	-1.031351	2.134298	1.121013
F	2.559165	0.0	0.0
