15
Coordinates from ORCA-job run
  C   0.61651767809158     -0.52102973128205     -0.35569168084312
  C   -0.72814091571408      0.17100373609873     -0.18809916652457
  Br  0.83096695345093     -0.96073950347493     -2.24990891397645
  H   -0.73757233825096      1.12318928406776     -0.72708897332021
  H   0.58394228396081     -1.47577543784958      0.17169504449454
  C   1.78944285089955      0.32227272751277      0.10807255606175
  H   2.72887260095201     -0.19458978895091     -0.08924300168175
  H   1.81032212439908      1.28313146991321     -0.41058731586126
  H   1.71956321591725      0.49633151989852      1.18379001004165
  N   -0.81833264975069      0.59087965905851      1.27880455148746
  O   -1.14135125367948      1.75605315293379      1.49899042194405
  O   -0.59038206979390     -0.27095465170082      2.11986781776658
  N   -1.84798826605875     -0.67549822215338     -0.44681777307005
  H   -2.61169109405601     -0.17394945718948     -0.87528408607515
  H   -1.60416912036736     -1.47032475688212     -1.01849949044346
