15
Coordinates from ORCA-job run
  C   0.61255278950155     -0.52841160114535     -0.27779817808675
  C   -0.74248426652642      0.18815367482671     -0.27943596218208
  Br  0.91822022124746     -1.17644878840427     -2.09673293992959
  H   -0.71358086762155      1.04811780455446     -0.94950196247562
  H   0.53221826609395     -1.42410223808088      0.34275696083076
  C   1.76920118795339      0.34674526872211      0.16711551242633
  H   1.64764919341416      0.61965498555132      1.21841578085167
  H   1.81942006972052      1.26105504936343     -0.42770887161760
  H   2.71431064034891     -0.18696222480982      0.06391899309197
  N   -0.89187866902682      0.76152348193250      1.10736323653800
  O   -0.80383175117698      1.97751484852743      1.24400830593586
  O   -1.05519749909790     -0.06085327381966      2.00611697529627
  N   -1.91448765357630     -0.59150089247574     -0.53598776615745
  H   -2.01971505880553     -0.75252507894802     -1.52770853255715
  H   -1.87239660244845     -1.47996101579421     -0.05282155196463
