15
Coordinates from ORCA-job run
  C   0.75882312792028      0.39318877025175     -0.10775052468049
  C   -0.73705466422938      0.06702742912432     -0.20880348958846
  Br  1.17162823607859      1.08479316875184      1.67240385471016
  H   -0.92356842234724     -0.25089998095370     -1.23892804872585
  H   0.98378979181551      1.21076737976070     -0.79388198526489
  C   1.61563759466620     -0.82309556142769     -0.40015754078856
  H   2.67427095654386     -0.56501609388636     -0.36264094973984
  H   1.43382256932953     -1.61566280879174      0.32732510784764
  H   1.38859462765169     -1.20133742905230     -1.40227425672250
  N   -1.48526761611344      1.38436954015680     -0.09305976252645
  O   -1.30894953479100      2.16878398609289     -1.02335050299632
  O   -2.15724405103982      1.58562725476129      0.90857372181058
  N   -1.29962731742557     -0.88088098442391      0.68653854081064
  H   -1.00434911750089     -0.73068420710998      1.64175097261014
  H   -1.10950618055831     -1.82798046325392      0.39525486324421
