15
Coordinates from ORCA-job run
  C   0.76559288799814      0.37024989838916     -0.13977777421607
  C   -0.74203015612116      0.08927301403898     -0.17696593967138
  Br  1.27339145832834      1.05043436552412      1.62038151981300
  H   -0.98139516323798     -0.22519291334607     -1.19721246753965
  H   0.98637841087072      1.18032904424525     -0.83606516865801
  C   1.57184759995368     -0.87198547788185     -0.46476203960880
  H   1.39332449782618     -1.65886114219411      0.26964051976938
  H   1.29410024780260     -1.24232395735130     -1.45703522431107
  H   2.63879584325803     -0.64760076134352     -0.46888775114719
  N   -1.44533214036510      1.42952055108034     -0.03661452107199
  O   -2.07024924369851      1.65387182948806      0.99015832447550
  O   -1.28430019546075      2.20472492593050     -0.97728462445567
  N   -1.29361621659269     -0.83872161243241      0.74463742504482
  H   -1.16023902638902     -1.79226496323468      0.44395754628862
  H   -0.94826880417248     -0.70245280091248      1.68483017528855
