15
Coordinates from ORCA-job run
  C   0.60788867618551     -0.12458065014386     -0.75496742729137
  C   -0.85917247365820      0.14131805758636     -0.38319489165125
  Br  1.28999175331448      1.34865110225763     -1.84616676209886
  H   -1.41457791071065      0.40692651199426     -1.28269077919920
  H   0.58188792718668     -0.98019986121653     -1.43564086846560
  C   1.56419410233483     -0.39943852320078      0.39154540717971
  H   1.68943632689062      0.47526823535349      1.02738267636432
  H   1.19874680858936     -1.22613941643485      1.00622589383297
  H   2.53839922938319     -0.68371527170452     -0.00803774065250
  N   -0.95658499958498      1.34645299829294      0.50999337352349
  O   -0.60567304587498      1.17836357846683      1.67692095183912
  O   -1.36960324019561      2.39268274439697      0.02208282340322
  N   -1.53425130466174     -0.92921225300030      0.29666859102524
  H   -1.71127696406027     -1.70248244962675     -0.32953004682609
  H   -1.02040488513825     -1.24289480302089      1.10840879901680
