15
Coordinates from ORCA-job run
  C   0.58829993504581     -0.51509237573027     -0.37992031847883
  C   -0.74776789445428      0.18579380678022     -0.16902388536044
  Br  0.74932140828137     -0.92915183234082     -2.28580944610180
  H   -0.76508895815459      1.14161992894136     -0.69891616757591
  H   0.55869189395598     -1.47895390108396      0.13226943578149
  C   1.78339338639031      0.30543308924874      0.06769032882521
  H   1.74314068832813      0.46844460021742      1.14689601100689
  H   1.80436900861293      1.27301955135725     -0.43795354486496
  H   2.71004131276233     -0.22225512489331     -0.15897914670495
  N   -0.76150686419435      0.59445975028123      1.30386041805156
  O   -0.90530022981390      1.79016256271078      1.54978390220777
  O   -0.62218193320635     -0.30285049663670      2.12736891297412
  N   -1.88681403816419     -0.63247059504976     -0.40874075873455
  H   -2.59144896811524     -0.16084511912905     -0.95361847930308
  H   -1.65614874727396     -1.51631384467316     -0.83590726172252
