15
Coordinates from ORCA-job run
  C   0.66779029857895     -0.14783177667718     -0.80063292039272
  C   -0.80070563474111      0.04746002139634     -0.39331934383068
  Br  1.25620557912276      1.17118973946369     -2.11236525892888
  H   -1.38908574517922      0.42139618480692     -1.23578094636987
  H   0.68634960849307     -1.09893631730533     -1.33424604677655
  C   1.60928805541411     -0.19044475255997      0.38692305434515
  H   1.23044139669499     -0.90966415949951      1.11658504509540
  H   2.60491503329467     -0.49977779353768      0.06827048578553
  H   1.69259850311403      0.79117853403470      0.85721019629688
  N   -0.87127458395986      1.14859964222509      0.63796161648442
  O   -0.70229931874509      2.28899202242059      0.22176717334694
  O   -1.04669527446471      0.83185010912915      1.81309737879490
  N   -1.27908919259295     -1.19179974480644      0.17340503216123
  H   -1.73236940432721     -1.02459862435773      1.06216993172400
  H   -1.92706932070238     -1.63761308473269     -0.46104539773576
