16
Coordinates from ORCA-job run
  C   -0.56850275860366      0.22015108596902     -0.04976641022612
  C   0.55419982813315     -0.23624151687038      0.88552439324526
  Br  -2.00755545223623      0.76501858327236      1.18718749707536
  H   0.23840870850269     -1.08721571907765      1.48738344661196
  H   0.89515085156278      0.58499278497864      1.51438087790924
  C   -1.09844730393933     -0.91188252689924     -0.91443554940122
  H   -1.96835139213425     -0.57410765286468     -1.48020393221210
  H   -1.38856815224732     -1.77259687895711     -0.30966795589319
  H   -0.32877079548646     -1.23309179002821     -1.62093688300594
  C   -0.17662373265140      1.43442937143932     -0.87558183217153
  H   0.61361161126138      1.16567571026406     -1.58130912397394
  H   -1.03734387566267      1.79576870342727     -1.44080795031022
  H   0.19019340870920      2.24448022210216     -0.24311909475683
  N   1.73573386249852     -0.68737269138160      0.09028526725314
  O   1.77255642833159     -1.87264023989549     -0.23846089532543
  O   2.57330876396200      0.16463255452154     -0.20447185481844
