16
Coordinates from ORCA-job run
  C   -0.45498981313328      0.13812417089117     -0.18364863774205
  C   0.68618779163329     -0.73939584015819      0.32674756113054
  Br  -1.21242883254801      1.11364509751734      1.34903813646899
  H   1.10885032538171     -1.29448794149332     -0.51456044165575
  H   0.33632989723145     -1.41858557783968      1.10249881284238
  C   -1.53877395215306     -0.78655107658515     -0.72557160759696
  H   -1.87090856162189     -1.49990735377537      0.03111489108308
  H   -1.15047534837254     -1.33909357829644     -1.58771481791248
  H   -2.40256645421005     -0.20462564786942     -1.05054789716569
  C   -0.02709127546666      1.15377578463844     -1.23102345269909
  H   0.68971328784667      1.87219558531752     -0.83814080358470
  H   0.43933693184831      0.63417705276954     -2.07406858770864
  H   -0.90304213129656      1.69494485301616     -1.59323143422990
  N   1.81557607579328      0.03128193082060      0.91893484640892
  O   2.55613781418340      0.62069042841997      0.13202646904248
  O   1.92714424488394      0.02381211262684      2.14214696331887
