16
Coordinates from ORCA-job run
  C   -0.39694983271737      0.26556362180102     -0.20624019916820
  C   1.02613010109136      0.02761476159642      0.29478524229559
  Br  -1.57905737193823      0.43380495894745      1.35878684227497
  H   1.34394567127478      0.83173433475112      0.95648593284875
  H   1.69489021122884     -0.05494839718375     -0.56575729749407
  C   -0.93153076129861     -0.85042148295496     -1.08968605558715
  H   -0.26148006530586     -0.99282697725264     -1.94349154533474
  H   -1.00610259059570     -1.79640649689582     -0.55689510908227
  H   -1.92117035075683     -0.57863965814745     -1.46129724734692
  C   -0.40845243908049      1.60102908393308     -0.94087243434559
  H   -1.42107082715209      1.84294987808850     -1.26710426800905
  H   -0.05099753459862      2.41156489101392     -0.30286383436409
  H   0.23347480111154      1.53683166647024     -1.82584712762138
  N   1.18655491633448     -1.23944004363798      1.06239634856480
  O   1.30268813581104     -1.15229988569035      2.28211849360099
  O   1.19012793659176     -2.28411025483883      0.41148225876837
