15
Coordinates from ORCA-job run
  C   -0.59035023126114      0.27640483585636     -0.17678022063283
  C   0.72670297227166      0.05495968040893     -0.91199260493411
  Br  -1.82968065295034      1.19649477457019     -1.36998838439844
  H   0.52045821377276     -0.65910366641816     -1.71332998631840
  H   1.04248568371347      0.99403572670333     -1.37275929981351
  C   -1.21663503812175     -0.98869409195304      0.35530853569048
  H   -2.14391168237414     -0.77576689492961      0.88200263852988
  H   -1.42425708966827     -1.65941008258699     -0.48031617398345
  H   -0.50717118944172     -1.46445074710065      1.03348438033033
  N   -0.33637822451194      1.24718732926255      0.97335083059433
  O   -1.09216846174323      1.19360637668743      1.93561167361802
  O   0.59886939729958      2.03299058937407      0.84236573264464
  N   1.69252634127953     -0.50325591931151      0.02426360388163
  H   2.26851098409802      0.23289962692628      0.40895381764047
  H   2.29099897763752     -1.17789753748918     -0.43017454284903
