15
Coordinates from ORCA-job run
  C   -0.43959441805063      0.30560945779282     -0.00955705512296
  C   1.06444580886372      0.18255820198093     -0.23254127245523
  Br  -1.27986224714468      0.89833270994380     -1.67322380571787
  H   1.50982767212913     -0.05200810933298      0.73913530562043
  H   1.45832672161316      1.15351891650664     -0.54656091639067
  C   -1.09095635510352     -0.96688477847021      0.47498026022229
  H   -2.16603306935861     -0.83796944075006      0.57941759169478
  H   -0.66826338819420     -1.22930398835614      1.45026532874428
  H   -0.86504852224785     -1.76340065868570     -0.23075916850244
  N   -0.71986028924157      1.41318387664525      1.00109356946060
  O   0.21771253514043      2.14193915378295      1.31719979547520
  O   -1.86307098432346      1.49238410683284      1.43345362941451
  N   1.33528109662811     -0.91731885372105     -1.15000719313794
  H   1.21097480791094     -0.60596801790909     -2.10515474981639
  H   2.29712063137902     -1.21267257625999     -1.04674131948856
