15
Coordinates from ORCA-job run
  C   -0.39898979469126      0.35554198557940     -0.03332314852185
  C   1.09672520156300      0.06626504633979     -0.11174104380644
  Br  -0.98355833943963      1.13288592685365     -1.73062122481591
  H   1.62903889972144      0.99820648813465     -0.32257431348081
  H   1.40620589929532     -0.26880696468913      0.88313788707226
  C   -1.23811944394663     -0.85430895435577      0.29801837113830
  H   -2.29662919261143     -0.60395635565937      0.30364156437959
  H   -1.02940010091951     -1.63232211320720     -0.43316166221626
  H   -0.95415899400241     -1.21840424133271      1.29073554502112
  N   -0.65794863940962      1.43452928264129      1.01317653961792
  O   -1.82245513551009      1.61472024692841      1.34777072306974
  O   0.31526253246865      2.04387917609087      1.45095157270854
  N   1.33862310994172     -1.01004205838158     -1.06445824173284
  H   1.34917947569044     -0.63876177527437     -2.00613975732907
  H   2.24622452185002     -1.41942568966796     -0.88641281110429
