15
Coordinates from ORCA-job run
  C   -0.42831848520583      0.16592218804763     -0.11486025131125
  C   0.87806469290701     -0.50610093982634     -0.56036582630465
  Br  -0.95975982661791      1.48261084208374     -1.44201902518029
  H   0.66399051133514     -0.97711213572686     -1.52390870427063
  H   1.09205459845653     -1.30265566876708      0.15527116895955
  C   -1.55629098811067     -0.82201404835063      0.11348600143522
  H   -2.46770423226767     -0.30515206420110      0.41709690228812
  H   -1.26031911312420     -1.52613026398635      0.89623303122390
  H   -1.75281869249747     -1.37269204058128     -0.80744943094105
  N   -0.20909894549428      0.87886252107428      1.21836755256079
  O   0.61058763845589      0.34105209769948      1.96250011180917
  O   -0.89199770138954      1.85415309031171      1.49468787765625
  N   2.05354679311474      0.31925348783466     -0.68901144867172
  H   1.89500007760809      1.08607771945544     -1.32904936754159
  H   2.33306367283017      0.68692521493270      0.21002140828817
