15
Coordinates from ORCA-job run
  C   -0.53962440457808      0.33139175288306     -0.23502858602959
  C   0.81736090623317     -0.02317992751681     -0.83298139980309
  Br  -1.55482331336582      1.36048085162509     -1.54508504303834
  H   1.26866034652202      0.87669151838436     -1.25784118434614
  H   0.62432771746406     -0.72076751654361     -1.65193793386036
  C   -1.33790259221726     -0.86279599606835      0.22584477987536
  H   -1.52482528998763     -1.51471116114806     -0.62929439262650
  H   -0.75118524230307     -1.40194404963047      0.97060766708678
  H   -2.28830381304674     -0.55676640160958      0.65684046454252
  N   -0.30978614722990      1.28004019081831      0.93844162000109
  O   0.70351362994122      1.97389510272747      0.90276196994735
  O   -1.15772228534112      1.30298022385377      1.82193119816429
  N   1.62397695670505     -0.66651080008647      0.19525715969318
  H   2.22257244473391      0.01454300669290      0.64216260111931
  H   2.20276108647021     -1.39334679438165     -0.20067892072582
