15
Coordinates from ORCA-job run
  C   -0.40467870227043      0.33504084713214     -0.00624175072926
  C   1.10590291394335      0.23798072000420     -0.29919041136204
  Br  -1.34624223451087      0.93791692812963     -1.60501920140622
  H   1.44404101918513      1.21374387520037     -0.64902952020248
  H   1.59476419129794      0.04838080525758      0.66439475322236
  C   -1.02199251682566     -0.95050326068625      0.48578791678781
  H   -0.94709099697751     -1.70597898543958     -0.29622835183702
  H   -2.07198176143573     -0.81225593910410      0.73680103816384
  H   -0.49421521008948     -1.29643287791537      1.37763117378716
  N   -0.56771529047471      1.43729013234290      1.03306800842710
  O   -0.06925817922897      2.52451463342265      0.76366893368655
  O   -1.13826127729564      1.14865346785459      2.08202798781390
  N   1.52066621004267     -0.77684684049970     -1.23616647536886
  H   1.09332519246484     -0.63452844589698     -2.14180018366896
  H   1.30273664217507     -1.70797505980213     -0.90970391731386
