15
Coordinates from ORCA-job run
  C   -0.47044118347890      0.14473711410987     -0.10820299225077
  C   0.86013144860024     -0.45687843776511     -0.59749135055661
  Br  -1.11687646398727      1.43607544474694     -1.40231854161574
  H   1.11710742786135     -1.25762666795119      0.10085129586040
  H   0.66173220831790     -0.91160753337579     -1.57179617584569
  C   -1.53660344962486     -0.90102219459318      0.14976741178041
  H   -1.17335189988731     -1.61265227573229      0.89256899862408
  H   -2.45677820083157     -0.43952910295058      0.51187684723345
  H   -1.75572235865495     -1.42812002278405     -0.77990561999865
  N   -0.15701883623128      0.84937116289191      1.20846792838118
  O   0.24295111304645      0.08351713979300      2.08465882893811
  O   -0.26497838712243      2.06198918594682      1.31484943011504
  N   1.98764565720367      0.43509549778755     -0.70588095464592
  H   1.77556276300883      1.22843639806256     -1.29646487261186
  H   2.28564016178012      0.76921429181361      0.20101976659266
