15
Coordinates from ORCA-job run
  C   -0.55453553019477      0.27885013791119     -0.19340049684393
  C   0.74080377819018      0.12582271316432     -1.00091659863874
  Br  -1.88211392879283      1.16703383643411     -1.31333651593534
  H   1.01403448306877      1.09776049308527     -1.40961726183944
  H   0.51066880853837     -0.53202824652696     -1.84368051922777
  C   -1.11947336648117     -1.01982453944452      0.33230587991089
  H   -2.06145683572270     -0.86043718355720      0.85167987672497
  H   -1.28160025944226     -1.69952742895709     -0.50605137454296
  H   -0.41749823920554     -1.47223573633989      1.03618381080113
  N   -0.29581178684322      1.23297360732910      0.96899971852493
  O   -0.91908762766706      1.04312186547387      2.00844469028601
  O   0.51604044650196      2.13401633948640      0.77812658842259
  N   1.87193741967690     -0.40340923399442     -0.27358744207559
  H   2.17742109128529      0.22759559579241      0.45379136434179
  H   1.70067154708805     -1.32071221985660      0.11205828009149
