17

C	0.0	0.0	0.0
C	-0.505228	0.048237	-1.47166
Cl	1.789693	0.0	0.0
H	-1.600592	-0.075515	-1.396008
N	-0.483797	1.130833	0.736883
H	-0.259769	1.999357	0.262787
H	-1.502132	1.035523	0.793844
C	-0.448335	-1.273454	0.699646
H	-0.134996	-1.193355	1.741412
H	-1.536044	-1.344881	0.647629
H	0.003652	-2.156084	0.250951
N	0.019895	-1.073672	-2.321619
O	-0.497977	-2.172993	-2.145513
O	0.931407	-0.829629	-3.110481
C	-0.179783	1.319262	-2.10535
N	0.017479	2.369361	-2.593612
Br	-3.746927	0.0	0.0
