19

C	-0.257836	-0.034415	-1.504918
C	0.0	0.0	0.0
Br	-2.247157	-0.211552	-1.860496
H	1.101705	0.0	0.0
C	0.168838	1.259024	-2.17605
H	0.015714	1.190687	-3.257611
H	1.237065	1.384947	-1.965629
H	-0.375123	2.111847	-1.775735
N	0.37817	-1.211581	-2.039771
H	0.456094	-1.126796	-3.046812
H	1.323242	-1.240502	-1.653326
C	-0.476988	-1.244407	0.737452
H	-1.569096	-1.248897	0.817853
H	-0.167261	-2.155234	0.224237
H	-0.04873	-1.245766	1.743943
N	-0.458079	1.252671	0.590534
H	-1.383636	1.120531	0.982562
H	0.172658	1.498418	1.344568
Cl	3.437327	0.0	0.0
