19

C	-0.257628	-0.026941	-1.507882
C	0.0	0.0	0.0
Br	-2.204466	-0.352796	-1.906739
H	1.10698	0.0	0.0
C	0.076383	1.313995	-2.142369
H	-0.062409	1.267655	-3.226018
H	1.131072	1.521551	-1.926755
H	-0.54945	2.106995	-1.733615
N	0.481336	-1.138971	-2.054053
H	1.429538	-1.091516	-1.677034
H	0.536338	-1.053341	-3.062606
C	-0.50293	-1.232669	0.725533
H	-0.278322	-2.132269	0.153349
H	-1.585886	-1.170754	0.870656
H	-0.012017	-1.305472	1.700655
N	-0.522047	1.226432	0.613001
H	-0.782127	1.018895	1.570509
H	0.237874	1.897312	0.664745
Cl	3.457452	0.0	0.0
