19

C	-0.352928	0.138533	-1.490152
C	0.0	0.0	0.0
Br	-0.123916	-1.730486	-2.394223
H	1.095206	0.0	0.0
C	-1.789461	0.508964	-1.798018
H	-2.0101	1.466078	-1.326444
H	-2.475227	-0.242403	-1.407189
H	-1.938316	0.582415	-2.878535
N	0.558785	1.058159	-2.037804
H	0.467749	1.159062	-3.039363
H	1.519795	0.831477	-1.78304
C	-0.571508	-1.190305	0.737672
H	-0.145173	-2.123781	0.373203
H	-0.320176	-1.100129	1.799863
H	-1.661906	-1.224767	0.649545
N	-0.495294	1.241734	0.643569
H	-0.130261	1.231748	1.59219
H	-0.018232	2.009412	0.177443
Cl	3.506738	0.0	0.0
