19

C	-0.497643	-0.028406	-1.443525
C	0.0	0.0	0.0
Br	0.19648	1.72491	-2.328415
H	1.09881	0.0	0.0
C	0.141818	-1.119269	-2.275692
H	-0.108647	-0.998043	-3.332146
H	1.22639	-1.084398	-2.154003
H	-0.238157	-2.08766	-1.939176
N	-1.908089	-0.050415	-1.477614
H	-2.249384	0.660075	-0.837132
H	-2.265464	0.112318	-2.41006
C	-0.44641	-1.257375	0.744188
H	-0.045679	-1.217115	1.762254
H	-0.038447	-2.156739	0.281713
H	-1.53539	-1.330551	0.785852
N	-0.585281	1.168368	0.680183
H	-0.404574	1.062251	1.673052
H	-0.057233	1.983893	0.384738
Cl	3.539868	0.0	0.0
