19

C	-0.254869	-0.011265	-1.510889
C	0.0	0.0	0.0
Br	-2.241207	-0.115963	-1.840678
H	1.100604	0.0	0.0
C	0.249016	1.263434	-2.156243
H	-0.251206	2.132544	-1.738849
H	0.101459	1.206716	-3.235263
H	1.318769	1.338104	-1.932475
N	0.339244	-1.138775	-2.196128
H	1.346958	-1.046763	-2.061156
H	0.056864	-2.002211	-1.747384
C	-0.466727	-1.244648	0.74832
H	-0.126336	-1.17099	1.784635
H	-1.558729	-1.324812	0.741532
H	-0.042921	-2.166291	0.342325
N	-0.468178	1.243979	0.603318
H	0.118128	1.450651	1.403814
H	-1.420991	1.122426	0.930609
Cl	3.443667	0.0	0.0
