13
Coordinates from ORCA-job run
  C   1.10079177382771     -0.47611417112817     -0.06013484883851
  C   -0.42432452038766     -0.46599508797760     -0.21803259118545
  Cl  1.63365877796118     -2.02156960811314      0.63651679359339
  H   -0.71785594560175     -1.33470792834985     -0.81007595319305
  H   1.56034819139285     -0.39109829264256     -1.04526436691509
  C   1.52387610716137      0.64193835436419      0.77743721306821
  N   1.81352602426051      1.56009042231516      1.45032118649790
  N   -0.71723329407306      0.73477753412903     -1.15619149656196
  O   -0.24815173903065      0.65512615576929     -2.28783057316766
  O   -1.38171270896714      1.65975558544662     -0.70368740816283
  N   -1.10161970130363     -0.42615064916890      1.00967477035890
  H   -2.09385422008018     -0.57992673029500      0.90251695686956
  H   -0.94844874515957      0.44287441565093      1.50575031763658
