13
Coordinates from ORCA-job run
  C   1.03373960539756     -0.51491076884756     -0.22076356469351
  C   -0.47835297064006     -0.30034347865643     -0.21765164181099
  Cl  1.37682983916716     -2.14052782299973      0.44236140904093
  H   -0.93434291859855     -1.07580300944746     -0.85322377262164
  H   1.40105983254496     -0.51136072143000     -1.24554761468517
  C   1.72475590101006      0.51039186528007      0.55196701791721
  N   2.30536148318081      1.32671991499016      1.16400102885532
  N   -0.78539225519305      0.99126788117340     -0.95427136687335
  O   -1.83496264700126      1.54899065924700     -0.66064906968340
  O   -0.00193194681313      1.33412111527882     -1.83435285010515
  N   -0.98549361198912     -0.17947339926815      1.11308109656879
  H   -1.96900265968691      0.05521917162626      1.09671229179930
  H   -0.85126765137847     -1.04429140694638      1.62033703629165
