13
Coordinates from ORCA-job run
  C   1.00730667145094      0.32554265188823      0.32634444754426
  C   -0.25981947681582     -0.12822617247997     -0.39811846219111
  Cl  1.72977286377377      1.72834913774276     -0.49834871703034
  H   -0.04584105576349     -0.37294606962349     -1.43855911069557
  H   0.73739918487829      0.65103810462676      1.33423727653878
  C   1.96150004633561     -0.77402316094711      0.39170315610300
  N   2.74526702693765     -1.64669318486516      0.44104609673747
  N   -1.19054626376825      1.07825795281320     -0.45600926732119
  O   -1.57958267016987      1.44889002462359     -1.55813113284313
  O   -1.51153962088196      1.55139534105982      0.63252354542319
  N   -0.83559476094870     -1.22757444329449      0.28842578971409
  H   -1.55696693057698     -1.68317119847643     -0.25392583193358
  H   -1.20235501445119     -0.95083898306773      1.19081220995412
