13
Coordinates from ORCA-job run
  C   1.01906678833616     -0.46303944688785     -0.17078281668922
  C   -0.52044197876495     -0.36144969837284     -0.30068427036343
  Cl  1.43302300632628     -2.07619571878289      0.46456353626909
  H   -0.84626877966745     -1.15930684734938     -0.96954522979289
  H   1.47599888878601     -0.37869501987041     -1.15850657336084
  C   1.52714549837558      0.57703101574844      0.71417113427867
  N   1.88656436993659      1.42863556670713      1.43923659812526
  N   -0.75072453971522      0.92760679110549     -1.06470482506223
  O   -0.44897770410639      0.89594463490080     -2.25532019644028
  O   -1.15561707688159      1.89761151168527     -0.43661288389935
  N   -1.29752100764953     -0.35763693569880      0.88202192346596
  H   -1.32466528209011     -1.27201942525643      1.30969423469826
  H   -0.99658218288539      0.34351357207146      1.54646936877100
