13
Coordinates from ORCA-job run
  C   0.91362094631690     -0.30758294749543      0.45561067913050
  C   -0.42068937139277     -0.27764021730241     -0.32961833928402
  Cl  0.75683560556207      0.48999190169043      2.04140725836699
  H   -0.23932415537611     -0.75884749464869     -1.29288904741937
  H   1.12536964903035     -1.36039211724954      0.66117449899614
  C   2.03487070951105      0.25390882235677     -0.28908252654254
  N   2.95872871102267      0.66411365357005     -0.88753917372202
  N   -0.73352786550266      1.16322302268154     -0.65800314447855
  O   -0.16590480813626      1.62761085910300     -1.64334878445673
  O   -1.49079273576047      1.75479266584312      0.10151366736512
  N   -1.54849171401444     -0.86178071080523      0.30476427695196
  H   -1.68393069009447     -0.51669752275048      1.24503137093037
  H   -1.50576428116585     -1.87069991499314      0.29097926416216
