13
Coordinates from ORCA-job run
  C   0.92969394636856      0.17036182311975      0.48149862987506
  C   -0.28582007637476      0.10990124987438     -0.45708850751553
  Cl  1.88880927671191      1.64012951113189      0.18524329457760
  H   0.03126031848568      0.21967032461935     -1.49408761496772
  H   0.57015695236387      0.21792842178951      1.51240401921047
  C   1.73721620838696     -1.02664363056015      0.28349635088207
  N   2.34881150449134     -2.01175710595478      0.09584960844754
  N   -1.13361983420880      1.31767793735586     -0.15022482396600
  O   -1.52036767703932      1.40268851794443      1.01309211468928
  O   -1.39081705810241      2.08676345707299     -1.06694894695534
  N   -1.12139705871659     -1.03580227956522     -0.29935863151876
  H   -1.30603079862046     -1.24710169260547      0.67266698850572
  H   -0.74889570374600     -1.84481653422256     -0.77554248126437
