13
Coordinates from ORCA-job run
  C   1.01376690337442     -0.49393038523580     -0.10500906292118
  C   -0.51531491948719     -0.36166757955676     -0.30939596636194
  Cl  1.35727426557509     -2.08844496266285      0.61393140804807
  H   -0.83156351237518     -1.17868531833324     -0.95947673850774
  H   1.51697692787398     -0.46168330778334     -1.07311929959572
  C   1.50734656687478      0.57041832209663      0.75906664729606
  N   1.85473777481265      1.44358080987358      1.46401023718140
  N   -0.67873746830033      0.89935370442559     -1.13493649171816
  O   -1.08647126275826      1.90396496107744     -0.56599359800095
  O   -0.32498737622261      0.81110596703314     -2.30820572620979
  N   -1.34421589086377     -0.29013837528473      0.83549166795058
  H   -1.41248624780133     -1.18486340446953      1.29881141925128
  H   -1.05532576070225      0.43098956881987      1.48382550358810
