13
Coordinates from ORCA-job run
  C   1.00390689618803     -0.34607459417173      0.39795582531443
  C   -0.37419067979747     -0.33115830211219     -0.27187710240971
  Cl  0.95626132023014      0.51629169541997      1.96073012878972
  H   -0.27069952669393     -0.74950159964478     -1.27597454023021
  H   1.21328396492959     -1.39286304001770      0.62797854657799
  C   2.07474677313669      0.17903663803821     -0.44072426637260
  N   2.97428014100930      0.53847576714508     -1.10445263268896
  N   -0.77282207493462      1.13370522960863     -0.51904583714305
  O   -0.13445831820778      1.72514728631989     -1.38329954597997
  O   -1.68588598506701      1.58983764556899      0.16014166213118
  N   -1.30707959797095     -1.06895634004302      0.48901842621178
  H   -1.49996037224621     -0.61248228887810      1.37170838185023
  H   -2.17838254057578     -1.18245809723325     -0.01115904605083
