13
Coordinates from ORCA-job run
  C   1.07349502761846      0.19418935504559      0.30090517694111
  C   -0.28628138453549      0.01378326622336     -0.36430316637246
  Cl  2.13839383404164      1.16125118954073     -0.74598091124375
  H   -0.15858318618753     -0.26811428135456     -1.41607476456448
  H   0.93261085231066      0.74232994096173      1.23322458789745
  C   1.66765319258851     -1.11172513173661      0.55917360541726
  N   2.09715613008547     -2.18727837811462      0.75500814454119
  N   -0.99545976646812      1.34878739902199     -0.41480129670622
  O   -1.87035491637614      1.42932584576992     -1.27323623796702
  O   -0.70747177327801      2.20172668449824      0.41511339824442
  N   -1.13223159506503     -0.83393095854487      0.43604050605073
  H   -2.03420597528158     -0.93311731468898     -0.01650546954708
  H   -0.72472043945284     -1.75722761662191      0.52743642730885
