13
Coordinates from ORCA-job run
  C   0.98351884743612      0.19179072561971      0.34770654766810
  C   -0.31122794825823     -0.01837463585160     -0.45300364358077
  Cl  2.08218241525551      1.30635421684874     -0.50017367010732
  H   -0.08024782129394     -0.33038594942798     -1.47140237521377
  H   0.72799732630644      0.65169213335990      1.30565289716974
  C   1.61954696131864     -1.10171250192145      0.56329908062166
  N   2.08743743669049     -2.16769461633570      0.71975332678618
  N   -0.97385702529980      1.33067548520796     -0.57062763579566
  O   -1.23908647991774      1.87722270956958      0.49738978555757
  O   -1.21825511522289      1.75468824414153     -1.69254624631748
  N   -1.26096907339069     -0.89842771544994      0.14539321942772
  H   -1.37656075352134     -0.72700070382241      1.13569054931676
  H   -1.04047877010258     -1.86882739193834     -0.02613183553273
