13
Coordinates from ORCA-job run
  C   0.99486289160680      0.16351204593114      0.45878976476635
  C   -0.24434316992631      0.03350738811730     -0.42637134964535
  Cl  1.75370392823548      1.75936169410804      0.24105265966221
  H   0.00927176726771      0.18836783743977     -1.47514738808489
  H   0.68685294932443      0.09586268593011      1.50534974592336
  C   1.94242057490467     -0.89815822024058      0.14476698011667
  N   2.72106238375440     -1.74043076659507     -0.10545169628469
  N   -1.16827841332817      1.19127775060592     -0.06435177611011
  O   -1.51338777178693      1.95083258850106     -0.96288604817127
  O   -1.52949807824943      1.23239117461681      1.11022251920068
  N   -0.85016947678908     -1.23195319518837     -0.21799490911944
  H   -1.25241644944968     -1.30284897989455      0.70871556637004
  H   -1.55008113556388     -1.44172200333158     -0.91669406862355
