13
Coordinates from ORCA-job run
  C   1.03253303934322     -0.54418693131124     -0.15042807118492
  C   -0.47514417091666     -0.30872645455749     -0.21466066656189
  Cl  1.32572739615845     -2.13065868806411      0.62193792727670
  H   -0.92070252766212     -1.11365501089080     -0.82021087602137
  H   1.43652096531965     -0.60790303932079     -1.15928674271415
  C   1.71088882332009      0.51820318431700      0.58251560966368
  N   2.28086403629082      1.37846114052664      1.14214926495320
  N   -0.73281365422287      0.94219078544796     -1.03622814164997
  O   0.07904492293257      1.20942371811439     -1.91672552413020
  O   -1.77181040721625      1.54572502307914     -0.80178522727361
  N   -1.02676298958145     -0.10287789271707      1.08771835368374
  H   -2.00160951770013      0.15772232159824      1.02095565189326
  H   -0.93773591606532     -0.94371815622187      1.64304844206552
