13
Coordinates from ORCA-job run
  C   1.04589628468254     -0.49804815717938     -0.20671499281770
  C   -0.46780339083745     -0.29861865760070     -0.24211744937286
  Cl  1.38620232760146     -2.14492661683954      0.40318586294169
  H   -0.89586539410331     -1.05191272051860     -0.92208869659232
  H   1.44522172882894     -0.45017902818355     -1.21834951183050
  C   1.70057257693477      0.50425320814708      0.62568868110846
  N   2.25202597988035      1.31949336383822      1.26544199060654
  N   -0.76470287387805      1.01904527584407     -0.93620997388071
  O   0.03675077681421      1.39728709443814     -1.78504315263587
  O   -1.82195769197312      1.56333525409705     -0.64482501505803
  N   -1.01670374650463     -0.23608474707214      1.07610316139819
  H   -0.89792706249540     -1.12313119362333      1.54769186999279
  H   -1.99970951495030     -0.00151307534732      1.03823722614031
