13
Coordinates from ORCA-job run
  C   0.92549485882421     -0.33433059203060      0.41209190604815
  C   -0.43784403646275     -0.26279568118034     -0.31841993159503
  Cl  0.84538791016961      0.42548863725337      2.02199377158704
  H   -0.30270356249006     -0.72455839209448     -1.29866064949214
  H   1.12705258808901     -1.39536444130444      0.58292291365201
  C   2.02580265241205      0.22739385342612     -0.36315836981117
  N   2.93087145711317      0.63859317802738     -0.98889927814448
  N   -0.73719238497654      1.19008507620597     -0.60213498948149
  O   -1.45263112588065      1.77736462273477      0.20023895616043
  O   -0.20251113880439      1.66656003079151     -1.60013499793322
  N   -1.55056014873286     -0.84184970656611      0.34634876842134
  H   -1.52737075172449     -1.85081063447472      0.30838150669905
  H   -1.64379631753630     -0.51577595078842      1.29843039388953
