13
Coordinates from ORCA-job run
  C   0.95339735709000      0.28194803245078      0.36889548231836
  C   -0.30103594312574     -0.03832930819310     -0.45876305100495
  Cl  1.94477515004881      1.52402925364631     -0.43299022094737
  H   -0.02453655597372     -0.29827062202150     -1.48046829426797
  H   0.63870281552049      0.68849551398137      1.33331617488752
  C   1.71526245223540     -0.94530672839646      0.56322276135177
  N   2.28779746902304     -1.96166416806857      0.70046816341350
  N   -1.09710234641160      1.23792591940570     -0.55489787418726
  O   -1.43128888936975      1.72768068477723      0.52147388792124
  O   -1.36896998776546      1.66256402707358     -1.67019861074737
  N   -1.16426233216740     -1.02648870004032      0.10137449703975
  H   -0.83849929673204     -1.96409968944765     -0.08499817539855
  H   -1.31423989237204     -0.89048421516736      1.09256525962131
