13
Coordinates from ORCA-job run
  C   1.02677692526888     -0.49953831986450     -0.06599483468705
  C   -0.47585272668636     -0.29812336546967     -0.34290483357637
  Cl  1.24593039929046     -2.17378278294082      0.52406983456451
  H   -0.83007181638548     -1.12196177555805     -0.96424444339652
  H   1.60823737628751     -0.40229381277399     -0.98259254465226
  C   1.51414607022655      0.43762617087274      0.93817438961963
  N   1.85058370184557      1.16768088513013      1.79440878926390
  N   -0.62963833057432      0.93248750298341     -1.23142871345778
  O   -1.69589295257366      1.03735213415133     -1.81892908522707
  O   0.31331434864344      1.72237982077917     -1.27846813861118
  N   -1.32574727149208     -0.14672407397727      0.78111436778936
  H   -1.70186128499662     -1.02342445170857      1.10542822715291
  H   -0.89992443885388      0.36732206837608      1.54136698521792
