13
Coordinates from ORCA-job run
  C   1.01621079362086      0.32719909030887      0.29639664362174
  C   -0.26651931678239     -0.14491973004959     -0.38762488884733
  Cl  1.74720909992350      1.67461393973520     -0.60900453222769
  H   -0.06938289353321     -0.44704199520203     -1.41624913602670
  H   0.76459895698897      0.70814647804119      1.28951365999927
  C   1.95541097015128     -0.78170069847174      0.40657594437620
  N   2.72627282396069     -1.66311202885735      0.49060059574450
  N   -1.18092053198653      1.07029637093516     -0.49765638470799
  O   -1.48041440161197      1.60517455432880      0.56804199829440
  O   -1.57890924640111      1.38798876363431     -1.61305079761064
  N   -0.84891903429331     -1.19826428392197      0.36273720918139
  H   -1.19839909867383     -0.86903016410148      1.25443373786906
  H   -1.58523812136293     -1.66935029637938     -0.14571404966621
