13
Coordinates from ORCA-job run
  C   1.01449184766200     -0.34683112496908      0.36953539212812
  C   -0.37642463602436     -0.32784228050231     -0.27293343165063
  Cl  0.98969586589121      0.47865513164518      1.95267158338485
  H   -0.29005592483382     -0.72101463310964     -1.28875141877446
  H   1.23658651206827     -1.39690023739053      0.57111300354725
  C   2.06505493853397      0.20660704117608     -0.47653332863263
  N   2.94959598723611      0.59080659963667     -1.14656674603034
  N   -0.79216900403272      1.13899792647362     -0.47671411013658
  O   -0.17300498979494      1.75793734361644     -1.33567896434961
  O   -1.69915393127182      1.56919682672286      0.22711792949274
  N   -1.28829820139861     -1.09179584749339      0.48804841741355
  H   -2.16814518135886     -1.20059265093376      0.00214417443818
  H   -1.46817328267645     -0.65722409487213      1.38454749916955
