13
Coordinates from ORCA-job run
  C   1.08790998724519      0.18013989380906      0.10360811976120
  C   -0.34035381207311     -0.17128276451353     -0.31228118466812
  Cl  1.89307762355477      1.13048190396215     -1.16871293206361
  H   -0.34642224802057     -0.72193750313072     -1.25298378037424
  H   1.04837199644782      0.80969239872983      0.99630241966314
  C   1.83767252009500     -1.03824164054378      0.38124466684968
  N   2.45812055380120     -2.01146193894180      0.59622941265594
  N   -1.04743065772833      1.14494777684686     -0.61669755742926
  O   -1.09781320349521      1.94621094253123      0.31453293624951
  O   -1.54436015717385      1.28371698911709     -1.72897830217637
  N   -0.97403071399241     -0.90267983861395      0.72446162819996
  H   -1.13373200279003     -0.32609098272922      1.54143978088867
  H   -1.84200988587046     -1.32349523652322      0.42183479244352
