13
Coordinates from ORCA-job run
  C   1.02048209175272      0.17044996335040      0.39323333649770
  C   -0.26311327380562     -0.00223904855311     -0.41818464419683
  Cl  1.82917000722054      1.69744939744676     -0.03558255017542
  H   -0.05386752431533      0.02839719766271     -1.48752430986262
  H   0.75946027131886      0.23351820140351      1.45280694417326
  C   1.91065434189111     -0.96039355440122      0.16362635154913
  N   2.64387081754179     -1.85941932516966     -0.01634922204127
  N   -1.12473440924307      1.22595344115517     -0.14531258640530
  O   -1.42647122158076      1.40968211086267      1.03245043904471
  O   -1.48309769399430      1.89882245253579     -1.10570305442653
  N   -0.90521042464981     -1.21122784037311     -0.04725159156790
  H   -1.26160043328085     -1.16716498081359      0.89955227177628
  H   -1.64754254885529     -1.46282801510632     -0.68576138436521
