13
Coordinates from ORCA-job run
  C   1.02966418208184     -0.43793511343990     -0.17147447940821
  C   -0.50751892759811     -0.35165873140839     -0.33097723280527
  Cl  1.45411704939448     -2.07688819845266      0.38670041569656
  H   -0.80591141899892     -1.11647068062310     -1.04937215620221
  H   1.50665456862780     -0.29495458965608     -1.14273053875821
  C   1.50333078415128      0.55967415680577      0.77897549209503
  N   1.83759335735757      1.37481013978857      1.55608580813072
  N   -0.74156015991932      0.97367979011390     -1.03017894172678
  O   -1.17509255182606      1.90226478744632     -0.36032219646604
  O   -0.41464741912538      1.01000558661840     -2.21393075278773
  N   -1.31107957741513     -0.42334733187963      0.83143555683695
  H   -1.34065666523642     -1.36101880016307      1.20434809427574
  H   -1.03389322149363      0.24083898484988      1.54244093111943
