13
Coordinates from ORCA-job run
  C   1.03984285637412      0.21688524396634      0.31457952829202
  C   -0.27389538191671     -0.11445118452791     -0.39279672352642
  Cl  1.92428115910933      1.48278722235136     -0.57177124956592
  H   -0.09282509570751     -0.43134776058697     -1.41991516101205
  H   0.81319210464171      0.61913310205816      1.30531098950179
  C   1.85517671649236     -0.98500258093448      0.43488694215181
  N   2.52846994882752     -1.94225860979225      0.52796677530328
  N   -1.05300418917347      1.19115297579521     -0.51020692451203
  O   -1.31196832706308      1.75009282698765      0.55386344970778
  O   -1.39753022616014      1.55351125751329     -1.62972883258102
  N   -0.97662967300136     -1.10327893881545      0.34191622222616
  H   -1.74762657529207     -1.49489457585969     -0.18175804706123
  H   -1.30648331713069     -0.74232897815527      1.22865303107582
