13
Coordinates from ORCA-job run
  C   0.96393574904589      0.31951259926931      0.30396779289947
  C   -0.32492916272580     -0.06760643291255     -0.43797459006697
  Cl  1.88234927271275      1.53983457121334     -0.60983372224956
  H   -0.09723252188757     -0.37326338698416     -1.45903840360860
  H   0.69056378791620      0.76736411673687      1.26264999747531
  C   1.76363824461964     -0.88040763259610      0.51613117658298
  N   2.37710517804242     -1.87199392192531      0.65729085874627
  N   -1.15397726649866      1.18592919165482     -0.55349136970112
  O   -1.49265929780431      1.54939854104192     -1.67202432726999
  O   -1.44349965253642      1.72111838352578      0.51409187846046
  N   -1.13412821748882     -1.04362625500322      0.21618206228431
  H   -1.23238571136744     -0.86248525175205      1.20663936170681
  H   -0.79878040202787     -1.98277452226864      0.05640928474061
