13
Coordinates from ORCA-job run
  C   1.09139866326010      0.28338231835449      0.09866527345069
  C   -0.34606990806381     -0.02068416440054     -0.30817569945462
  Cl  1.87697038974492      1.28307925971059     -1.14580030411806
  H   -0.38418227229210     -0.32930032070296     -1.35949292619244
  H   1.07466626106157      0.85575352009475      1.02688186517319
  C   1.82193170389329     -0.96472483791296      0.28132626606700
  N   2.36108163634750     -1.99769716103638      0.42959507198238
  N   -1.15664688534203      1.25560152172221     -0.26003326414431
  O   -0.78978485604602      2.16103965700234      0.47783777881047
  O   -2.17693037164950      1.23684710706270     -0.94360134365757
  N   -0.96722939699519     -0.89955739314506      0.64919469897837
  H   -1.92556629928178     -1.07782546790832      0.36987550330268
  H   -0.48063866463692     -1.78791403884086      0.68272707980223
