13
Coordinates from ORCA-job run
  C   1.01805549259115     -0.34933400829659      0.35695355728702
  C   -0.37335665592045     -0.32127624447385     -0.28467647275638
  Cl  0.98589350826537      0.41740381149323      1.96915777437606
  H   -0.28231419109276     -0.67557205339175     -1.31427226264717
  H   1.25042383566780     -1.40386751453179      0.51985590952688
  C   2.06249874544608      0.24545224403319     -0.46844679675854
  N   2.94219137060768      0.66379446171212     -1.12423197072644
  N   -0.80389694262346      1.14762946594764     -0.43405673013682
  O   -0.19337173766424      1.80314992213686     -1.27182397361030
  O   -1.71106124442017      1.54375043647272      0.28920436125121
  N   -1.27669542874164     -1.12230826006431      0.44750956659123
  H   -2.15440114824632     -1.22579758558039     -0.04359751574365
  H   -1.46296560386904     -0.72202467545709      1.35842455334692
