13
Coordinates from ORCA-job run
  C   0.95714904761445      0.16886511240248      0.42408013024681
  C   -0.30380140546226      0.08632009830535     -0.45058566913569
  Cl  1.95271850961967      1.57380371323602     -0.02560781097542
  H   -0.03466956354640      0.10495968580006     -1.50655759428140
  H   0.64899181147932      0.30658119778204      1.46354410127564
  C   1.71093020680732     -1.07038192631466      0.28152782783123
  N   2.27708503187656     -2.09016070031318      0.14331585819499
  N   -1.09034240059373      1.34784460868289     -0.19957138633966
  O   -1.36054778293766      2.05650199177675     -1.16023742055448
  O   -1.41827696350380      1.53513003738742      0.96978989066056
  N   -1.17148540891167     -1.00970852729720     -0.16627177445126
  H   -0.85702331134490     -1.86475967429087     -0.60194290182390
  H   -1.31072777109689     -1.14499561715710      0.82651674935257
