13
Coordinates from ORCA-job run
  C   1.04549220350448     -0.52853212520603     -0.12218231025788
  C   -0.46182184072448     -0.31032020756582     -0.23957731160589
  Cl  1.32975126366966     -2.12786374624426      0.62615461444727
  H   -0.87213891802391     -1.10460795624029     -0.88278028984303
  H   1.48911313291829     -0.56481111548871     -1.11561206051564
  C   1.68077320372532      0.52597215016237      0.65869859223867
  N   2.21648147510424      1.38324427544330      1.25540822386427
  N   -0.70214497004539      0.95876728670775     -1.03751131068014
  O   0.13250416418541      1.24708118322015     -1.88963324856722
  O   -1.74828644340067      1.55571184092326     -0.81791239212924
  N   -1.06647234352385     -0.14736265090770      1.04562582011116
  H   -1.00721322250126     -1.00949081585869      1.57180785661258
  H   -2.03603770488784      0.12221188105466      0.94651381632509
