13
Coordinates from ORCA-job run
  C   1.14568119822264     -0.35122891971381      0.07887559117094
  C   -0.33077295241760     -0.48773474691663     -0.31171995905371
  Cl  1.74635508397282     -1.88485287832669      0.74623877586811
  H   -0.43170762247113     -1.33069207923718     -0.99771627130984
  H   1.73136357624866     -0.13764694236204     -0.81565669719702
  C   1.30915235022792      0.73128260568014      1.04416606622310
  N   1.38893771056868      1.61490048208937      1.81397019066499
  N   -0.62098576924382      0.74915769385142     -1.20214401497139
  O   -1.44791033197340      1.55807863556822     -0.79754975371747
  O   0.01473384255206      0.81393705232399     -2.25022583169843
  N   -1.18005847525918     -0.62096148261977      0.79692953502081
  H   -2.12145551799422     -0.86825082813341      0.52783941005467
  H   -1.20333309243343      0.21601140779637      1.36599295894525
