13
Coordinates from ORCA-job run
  C   0.92532836704523     -0.34899131137710      0.40031282319808
  C   -0.43526897821293     -0.24973865787914     -0.33180834898238
  Cl  0.83502951682401      0.33540115024078      2.04333981896752
  H   -0.29423935736977     -0.66451240423249     -1.33202645811168
  H   1.13113555020841     -1.41581310705275      0.52318391753913
  C   2.02633356468940      0.25293109659791     -0.34307034208416
  N   2.93133284560888      0.69791859217613     -0.94550848322431
  N   -0.74006634516498      1.21383383751982     -0.54899332159842
  O   -1.46158824285507      1.76009218866975      0.27655643194470
  O   -0.20285723393595      1.73861903498598     -1.52103349733960
  N   -1.54767829685249     -0.86407449498068      0.30058205986763
  H   -1.52320379334920     -1.86964654204902      0.21078911394709
  H   -1.64425759663556     -0.58701938261917      1.26767628587641
