13
Coordinates from ORCA-job run
  C   1.00425670482287     -0.29344661618744      0.43810762835296
  C   -0.35422387810862     -0.35599729115058     -0.26804569141855
  Cl  0.88222396672436      0.62625222886435      1.96365879306830
  H   -0.20786596114380     -0.81041980773902     -1.25094052392906
  H   1.24543264410739     -1.32202258114518      0.71471033351871
  C   2.07834331941726      0.23882577672543     -0.39204296008946
  N   2.98257065897991      0.60807827408116     -1.04394625714592
  N   -0.79754138524805      1.08195661031950     -0.58619695959725
  O   -1.74352752131445      1.53218595993739      0.05066786188105
  O   -0.15829790381232      1.66023757382407     -1.45875323490411
  N   -1.28143999433403     -1.09574978650020      0.49798844249223
  H   -1.51528790304988     -0.61013808857624      1.35481341908490
  H   -2.13364274704062     -1.26176225245323     -0.02002085131381
