13
Coordinates from ORCA-job run
  C   1.00944669362858     -0.33908745451817      0.38896356246400
  C   -0.36222797805259     -0.32634944067753     -0.29383589779416
  Cl  0.92257133738982      0.43720555802379      1.99469859200238
  H   -0.23808556958575     -0.68547100764417     -1.31831520391109
  H   1.24571420361171     -1.39051784487943      0.56559785047278
  C   2.07344396692225      0.25905437217095     -0.40845030278440
  N   2.96980531108160      0.67806197131831     -1.04083011398170
  N   -0.80024868063352      1.13847101432931     -0.46505495248013
  O   -1.73484728631800      1.53014353396131      0.22497489470763
  O   -0.16739665223551      1.79535936880404     -1.28495052297310
  N   -1.28078804740222     -1.13021538195139      0.41587020489721
  H   -1.49415736768264     -0.72798426090657      1.31997133348403
  H   -2.14422993072373     -1.23967042803047     -0.09863944410343
