13
Coordinates from ORCA-job run
  C   1.12445246933324      0.10344030884534     -0.06966104310522
  C   -0.37742319097791     -0.07893929009003     -0.25721227390659
  Cl  1.90467773357717      0.37630351970191     -1.64558373549776
  H   -0.57361248099770     -0.76736129296478     -1.08759042116864
  H   1.29245137214602      0.98929385996428      0.54390150163205
  C   1.68375228715086     -1.07928936204158      0.57312466767043
  N   2.08189035959133     -2.04872289125400      1.10349208525113
  N   -0.98573150627001      1.23236664201287     -0.70267615570623
  O   -0.41290018809864      2.27626153485136     -0.41785667342340
  O   -2.06722679049489      1.12389723453689     -1.27456990077907
  N   -1.01216872622697     -0.38203244572380      0.99963659873721
  H   -2.00895791173147     -0.49711670550248      0.85377994488918
  H   -0.65020342700103     -1.24810111233599      1.38121540540692
