13
Coordinates from ORCA-job run
  C   1.12220769224789     -0.42076570354830     -0.07946638152335
  C   -0.39786459705259     -0.45805595128508     -0.27672126128604
  Cl  1.70757657247955     -2.00697790394491      0.46683440163505
  H   -0.63922261830230     -1.27164426733617     -0.96308385183876
  H   1.59963021952667     -0.21325738251244     -1.03746587446915
  C   1.47585332175855      0.61990904071497      0.88101606775783
  N   1.70901158699616      1.47370769593846      1.65327793199515
  N   -0.72324498119107      0.82094975330658     -1.09272799923507
  O   -1.43971001587251      1.66370077223969     -0.56520454531575
  O   -0.22469609947492      0.88121550981795     -2.21279121403289
  N   -1.10363901020202     -0.57559257420212      0.93011840063849
  H   -2.08550172445144     -0.75774972728956      0.78011110433447
  H   -1.00140034646197      0.24356073810093      1.51610322134003
