13
Coordinates from ORCA-job run
  C   1.01683342273789     -0.34358168829296      0.36586456393709
  C   -0.37576938613160     -0.32925099496615     -0.27292048936882
  Cl  0.99213741772561      0.47601486944916      1.95219932086909
  H   -0.28980884189426     -0.71898224391416     -1.29009865462426
  H   1.24485129257022     -1.39328585431445      0.56278763330323
  C   2.06255480802797      0.21867463192040     -0.48055373372907
  N   2.94377365547944      0.60946084851543     -1.15090807646457
  N   -0.79876982207098      1.13640907264769     -0.47217107125197
  O   -1.70549694680056      1.56093802393603      0.23539846674554
  O   -0.18501588249321      1.75982324852262     -1.33167960652251
  N   -1.28216384361213     -1.09919235920545      0.48825653048961
  H   -2.16366220228056     -1.20847676937493      0.00539422594259
  H   -1.45946367125782     -0.66955078492323      1.38743089067404
