13
Coordinates from ORCA-job run
  C   1.01047052527803     -0.31471487921539      0.40814556813451
  C   -0.35905190602273     -0.34190659429967     -0.27850040828285
  Cl  0.91418370187895      0.53536810715049      1.97525229490289
  H   -0.22980424654088     -0.74960840775575     -1.28399827203179
  H   1.25177142840656     -1.35557281735334      0.63409975938534
  C   2.07333875861787      0.25166841953772     -0.41381843803425
  N   2.96911507227239      0.64778334488883     -1.06160839392212
  N   -0.80501577924150      1.11011656382165     -0.52134315697273
  O   -1.74281103258761      1.52920388887864      0.14775868458665
  O   -0.17636287037704      1.72911328128578     -1.37327740782405
  N   -1.27541062561259     -1.11628799087539      0.46661545649887
  H   -2.13587417449195     -1.25610083924143     -0.04561854627734
  H   -1.49554885157951     -0.67006207682213      1.34829285983686
