13
Coordinates from ORCA-job run
  C   0.93527763981550     -0.36777653432817      0.35954451098321
  C   -0.45576294833311     -0.24265832331249     -0.30887494355964
  Cl  0.93753737491492      0.32645097088216      2.00087140777691
  H   -0.37122336786311     -0.66886206468556     -1.31063649373244
  H   1.12368697054138     -1.43824143670918      0.47882001400309
  C   2.01239725362313      0.20680179791320     -0.43850535077886
  N   2.89747448744670      0.62943829062545     -1.08488495611380
  N   -0.73699240296976      1.22549280832378     -0.52496529513396
  O   -1.40034251189645      1.79627995093337      0.33216133032967
  O   -0.24081031520934      1.72842821702861     -1.52979897829098
  N   -1.55106032189212     -0.82561076171233      0.38055758062903
  H   -1.55424408523667     -1.83203457734307      0.29909176628497
  H   -1.59493777294110     -0.53870833761576      1.34861940760279
