13
Coordinates from ORCA-job run
  C   1.03951582181348     -0.43461655804321     -0.11153319774398
  C   -0.48563543385225     -0.34975251919544     -0.36401819550593
  Cl  1.43301910298730     -2.07746853964311      0.45721895145436
  H   -0.73840755324863     -1.11054128881049     -1.10377455736149
  H   1.57536517627012     -0.28140577331185     -1.05013908522765
  C   1.44996107656172      0.55575910565829      0.87534518310273
  N   1.73020137627588      1.36481021496899      1.67967432718744
  N   -0.67820017907792      0.97930550942937     -1.06828758509773
  O   -1.14218140149403      1.90641278698580     -0.41659535787351
  O   -0.29005222845916      1.02057298775171     -2.23319851778814
  N   -1.35765457311548     -0.42914253747107      0.74717304918712
  H   -1.12080109317371      0.22563868198148      1.48100622437876
  H   -1.41513009148732     -1.37057207030048      1.10712876128802
