17
Coordinates from ORCA-job run
  C   0.59152144515037     -0.02861769075752      0.35759665231137
  C   -0.82667589250749     -0.62883392144335      0.25724606373580
  Cl  1.14940929462923     -0.33417735424119      2.04369202387527
  H   -0.73958482773715     -1.69568472668199      0.48678606231257
  C   0.58710082777308      1.47131442929827      0.12032903981417
  H   -0.07917632409255      1.98339829114883      0.81751495807577
  H   1.59354401253786      1.87141072000250      0.25441397005159
  H   0.27342886182169      1.68303027094390     -0.90569955394711
  C   1.53327133448815     -0.75131197691178     -0.58995294706764
  H   1.19843190742088     -0.60784248004017     -1.61745922842001
  H   1.55353515808991     -1.82161082557154     -0.37231907914129
  H   2.54611734194130     -0.36016456976263     -0.47707107051837
  N   -1.33271721414495     -0.49464397836834     -1.10582707387688
  H   -2.07581282636069     -1.16483310709444     -1.26209938585447
  H   -1.72836390730000      0.42831867114051     -1.24125478498240
  C   -1.73326658219314     -0.02992741932313      1.25708744034901
  N   -2.51076260951649      0.47917566766203      1.97601691328262
