17
Coordinates from ORCA-job run
  C   0.51481778044546     -0.05834634710174     -0.35317733490053
  C   -0.90109155302883     -0.56147903208148      0.00430139994950
  Cl  0.79968633634511     -0.57939766428397     -2.06391752239622
  H   -0.88516472888732     -1.65711214975447     -0.10908674787660
  C   1.56168907408414     -0.74206154237433      0.50979545931919
  H   1.45056148468075     -0.43080606263937      1.55160221959255
  H   2.56116972122836     -0.46499639557112      0.17035869986465
  H   1.47057363066815     -1.82926987610196      0.45343323373452
  C   0.61479711883727      1.45380127595099     -0.28948538331555
  H   -0.13377835472451      1.91954251813735     -0.92770367663282
  H   0.44998595049978      1.78682359096271      0.73920449720111
  H   1.60999081599187      1.77338355262516     -0.60400499418326
  N   -1.92294958075341      0.09793676786569     -0.80094937875714
  H   -1.81238551647772     -0.19199637203426     -1.76564302410325
  H   -2.84302745615397     -0.19102474320870     -0.49077678982349
  C   -1.16322449227087     -0.27392331175323      1.42080285589275
  N   -1.37265023048427     -0.05107420863728      2.55424648643458
