17
Coordinates from ORCA-job run
  C   0.35607517494005      0.19287588456577     -0.30714211901525
  C   -0.95154245228067     -0.27436542320450      0.38521635073048
  Cl  0.03321274271435      0.29459672827449     -2.07744112260240
  H   -0.71641236325259     -0.32826749517532      1.45675582549525
  C   1.46270989073168     -0.82611424034034     -0.08942928065299
  H   1.19999915908290     -1.79898830437407     -0.50607396503309
  H   1.66098891176747     -0.93677748139363      0.98158063671558
  H   2.37996463406506     -0.49185996316134     -0.57665979029370
  C   0.76921124732050      1.57141033460815      0.18105895321419
  H   0.93217985093751      1.54653482093212      1.26349874847224
  H   0.00544420248838      2.31739283980676     -0.04100666129741
  H   1.69971192267686      1.87728806671325     -0.30066979515948
  N   -1.50018601326895     -1.55976695967112      0.00002976139868
  H   -0.88485260494540     -2.30984921171242      0.28464774698024
  H   -1.62767542952283     -1.60029293425879     -1.00413905433450
  C   -1.99758475150805      0.74944639549881      0.23541586004799
  N   -2.82224412194627      1.57573694289218      0.11435790533418
