17
Coordinates from ORCA-job run
  C   0.67700708890252      0.24861050581825     -0.16870114576758
  C   -0.79636024112054      0.31666413817195      0.25971205448764
  F   0.90718526756342      1.56229562736077     -0.65729946077931
  H   -0.92413841141000      0.94656645901830      1.13711171479276
  C   1.60346261885954      0.06882266770469      1.01390974042378
  H   1.42944069732023      0.84857904915843      1.75565674855153
  H   1.46973854794357     -0.90827143950649      1.47284412906526
  H   2.63103929153195      0.16585326313086      0.65602219944163
  N   0.87812202733912     -0.75145151516033     -1.13424042876604
  H   0.33494542753965     -0.58814853242998     -1.97116115847199
  H   1.85763663073802     -0.86476815305273     -1.35540816648433
  N   -1.31473823468859     -1.04757198554561      0.61265876928383
  O   -2.00911984228180     -1.63249470766038     -0.20631244290663
  O   -0.96455834023496     -1.45429541323624      1.71460750193029
  N   -1.69362906002817      0.89117135920341     -0.79354537236373
  O   -1.46729394329727      0.62102103146196     -1.96753707418027
  O   -2.61873952467668      1.57841764556313     -0.36931760825684
