17
Coordinates from ORCA-job run
  C   0.62595798837189      0.11880900672455     -0.43835842878970
  C   -0.89768598556521      0.03798702766029     -0.28359857458486
  F   0.77544760070637      1.25831480164537     -1.26710864576025
  H   -1.35775482290838     -0.08541432447790     -1.26089017531062
  C   1.45786968350552      0.35799218920278      0.79805278088411
  H   2.49900861073979      0.44720446433967      0.47798084507726
  H   1.36055752120270     -0.46613684034894      1.50070603354424
  H   1.16620648562197      1.28281873322931      1.28735167908889
  N   1.00960051466899     -1.07576134025821     -1.08795984606363
  H   0.60498212379486     -1.16112291236816     -2.01198331271868
  H   2.01473907189727     -1.16869356503785     -1.14372598734707
  N   -1.50801561082939      1.28248623993455      0.28649535244934
  O   -1.16342199077532      1.63179017720043      1.40982407894849
  O   -2.31860420091014      1.84964510526174     -0.44263016162454
  N   -1.31888994477952     -1.14307759248156      0.53369396083690
  O   -0.98810083127724     -1.17155775129401      1.71321265564511
  O   -1.96089621346415     -1.99728341893205     -0.07206225427498
