17
Coordinates from ORCA-job run
  C   0.67035893560216      0.15937567692913     -0.12589677558668
  C   -0.81368030473168     -0.20841347386618      0.00876742285627
  F   0.81644953624866      1.45617031397545      0.38987614766803
  H   -0.96259972303023     -1.27830596427010     -0.11798812862716
  C   1.54056108766655     -0.75337824363241      0.71416760432607
  H   2.57741828630270     -0.43028692115168      0.59708664465728
  H   1.27763512162629     -0.68309069725450      1.76715758429984
  H   1.44852551353935     -1.78862504081157      0.38466860965512
  N   1.02318603932238      0.06357044969641     -1.49416107910933
  H   2.02786758609300      0.04206655058891     -1.60569926741785
  H   0.63650853325141      0.83455212027272     -2.02283695007657
  N   -1.72459332581637      0.46316673942836     -0.97423307759878
  O   -1.36817490142409      1.51696882638871     -1.48997809913922
  O   -2.79651477540852     -0.10963210108445     -1.14672317804020
  N   -1.33593284501267      0.15527894393097      1.37101827318253
  O   -1.91757520768431      1.22446032501960      1.49156585771712
  O   -1.09943955654464     -0.66487750415941      2.25220841123352
