17
Coordinates from ORCA-job run
  C   0.60995846715795      0.06147893512382     -0.47062087259780
  C   -0.90384097441081      0.12790972008787     -0.23444264531696
  F   0.82564228567921      1.19150400411634     -1.29872898335647
  H   -1.42499030109291      0.05920256627433     -1.18611578045081
  C   1.52628239013052      0.20436127253740      0.72014189395297
  H   1.34859784440349      1.14411470350391      1.23502185891450
  H   2.55200877225973      0.20278052442541      0.34297552437892
  H   1.39181171121376     -0.61841846340066      1.41824468308202
  N   0.84020414365145     -1.15636848705027     -1.14813444879961
  H   1.82683294501944     -1.34809305532912     -1.25646193199180
  H   0.38169442904996     -1.19144207579023     -2.04992387767755
  N   -1.35760789178243      1.42079544034868      0.37272545883308
  O   -2.14210295072723      2.07371430075217     -0.31181697237017
  O   -0.92451165632064      1.72225388380103      1.47914976964432
  N   -1.39458139774033     -1.01362397319883      0.59990525536629
  O   -1.00003002006958     -1.08804193493694      1.75766031776179
  O   -2.15536779642157     -1.79112736126489      0.02942075062727
