17
Coordinates from ORCA-job run
  C   0.73094837657995      0.20409358789503     -0.43685843481570
  C   -0.82015373254913      0.19279571419298     -0.40545624674628
  F   1.02179235331946      1.27531507008833     -1.27344022136653
  H   -1.19761416591641      0.37124936626363     -1.41320110348146
  C   1.40179236913007      0.43180463254749      0.89726311754430
  H   1.10194489158886     -0.32186207739392      1.62500571720974
  H   2.47869658231880      0.37955675612294      0.73425709071198
  H   1.15248335271820      1.42061415142390      1.27615473848004
  N   1.23972869496413     -0.97061654523147     -1.06157315777478
  H   1.36578652303240     -1.73820416302355     -0.41864756398447
  H   0.71920822596402     -1.26268478873238     -1.87816064905566
  N   -1.47077830148726      1.22983167578654      0.47493506671149
  O   -2.49627542415848      0.89989745543722      1.05843275933090
  O   -0.95108743902136      2.33789401892081      0.46913247194475
  N   -1.31604687436569     -1.14559862621498      0.02041635115002
  O   -1.94073745574095     -1.78992439748752     -0.81888313845340
  O   -1.01968797637660     -1.51316183059504      1.15262320259505
