17
Coordinates from ORCA-job run
  C   0.67200996524245      0.11200597889635     -0.22560320295981
  C   -0.81825375368621     -0.16483891803203     -0.00431268631062
  F   0.87584800282118      1.48938167746743     -0.08034882922232
  H   -1.01852808660312     -1.23069212999870     -0.09565405178333
  C   1.49163441519026     -0.57787521444662      0.84829879876788
  H   1.23425937189300     -1.63390032610423      0.93004760805563
  H   1.33488183135882     -0.09600100700697      1.81252977657241
  H   2.54954812863572     -0.48848800718436      0.59300359751237
  N   1.02434569387871     -0.36495955791087     -1.51418102107562
  H   0.61479815615973      0.22030959642951     -2.23112102635574
  H   2.03053164879760     -0.36662046860746     -1.62112004951914
  N   -1.76035773354028      0.52801945918701     -0.95395895699466
  O   -1.29988688906919      1.19862439220734     -1.87084377148426
  O   -2.94655130455876      0.33281119802836     -0.71760858844082
  N   -1.24121910327505      0.25037244086362      1.37084492303676
  O   -1.46819628604539      1.44016214510254      1.55054788590969
  O   -1.27486405719949     -0.64731125889094      2.20847959429158
