17
Coordinates from ORCA-job run
  C   0.67079498280105      0.08213400937102     -0.18479919071903
  C   -0.82286690391413     -0.14326078511149      0.08729558430226
  F   0.92506725029498      1.44300054213005      0.04369033199408
  H   -1.04365154630782     -1.20292218005602      0.19376585445775
  C   1.52955471766276     -0.69992896607818      0.78839241722105
  H   1.35560789321850     -1.77131901854971      0.68522511498443
  H   2.57610924687754     -0.48299297155990      0.56300646130581
  H   1.33087955249050     -0.39732073542946      1.81398915636998
  N   0.93885650840661     -0.31606644991574     -1.51721469473785
  H   1.93243195573947     -0.43161143321355     -1.66478340213854
  H   0.57060065807608      0.35611754714470     -2.17747294840520
  N   -1.74558778808052      0.37484204414904     -0.97423998271627
  O   -1.35610563244066      1.27253736964848     -1.71330520360497
  O   -2.85826618142973     -0.14357652110455     -0.97747450470839
  N   -1.24394247432426      0.52935609535050      1.36453800327659
  O   -1.00851157013137     -0.10701212901442      2.38666987844904
  O   -1.75197066893898      1.63902358223921      1.28371712466925
