17
Coordinates from ORCA-job run
  C   0.67924367361915      0.31709156104956     -0.13403189907819
  C   -0.73948463376767     -0.27913281191478      0.01542443534588
  F   0.55553657915541      1.66575181924180      0.15959998299954
  H   -0.71159576958697     -1.36765205555886      0.01552439079530
  C   1.62620256615172     -0.30046430985287      0.87502832375195
  H   1.30718275710892     -0.08068556633514      1.89165861837455
  H   2.60913960184834      0.13891319750875      0.70384140020722
  H   1.68854125014129     -1.38458822522839      0.75660057839902
  N   1.22257526472835      0.19433177777019     -1.44252273052520
  H   1.60930964218264     -0.71764906903329     -1.63145594224312
  H   0.59637851518581      0.50541391074471     -2.16986264089800
  N   -1.71195514322275      0.11150401131337     -1.05816751366791
  O   -1.47584855085542      1.10042992716883     -1.74389755891962
  O   -2.70214203820986     -0.61074217339570     -1.13247371375986
  N   -1.37701043893540      0.13628491841811      1.31216414026422
  O   -1.07575532977989     -0.55063204772648      2.28328766663516
  O   -2.10031794576368      1.12282513583018      1.29728246231905
