17
Coordinates from ORCA-job run
  C   0.67089062851505      0.15010489682128     -0.13959225026801
  C   -0.81461191723859     -0.20067261518529      0.01861644500269
  F   0.83111707597738      1.46457200670134      0.32394110510517
  H   -0.97304428553798     -1.27231247569683     -0.07848344208632
  C   1.53862569048390     -0.73618821813279      0.73080689425998
  H   1.28714983536601     -0.61684007956185      1.78224463527788
  H   1.43129071474730     -1.78375335831765      0.44832167102011
  H   2.57810976546815     -0.43147780036890      0.59019698075554
  N   1.01393733828304     -0.00273333760571     -1.50522455240318
  H   0.62798699260282      0.74851623439977     -2.06197956984092
  H   2.01768727129705     -0.03485139404617     -1.62254768779646
  N   -1.73159553872649      0.45210408881667     -0.97206572794695
  O   -2.81935731857961     -0.10261980135733     -1.09693167948698
  O   -1.36394877454419      1.47470966850342     -1.54007912432701
  N   -1.32037674761925      0.20369124740935      1.37543264799351
  O   -1.87803821401554      1.28787122762909      1.47455920273384
  O   -1.09582251647905     -0.60112029000839      2.27378445200710
