17
Coordinates from ORCA-job run
  C   0.65070439689398      0.21241334592212     -0.14924863157024
  C   -0.78428721383932     -0.29779525892882      0.04253842609198
  F   0.63344441010663      1.58830888591214      0.12427279776696
  H   -0.80549445921609     -1.38306120851842      0.11078309718584
  C   1.59763356759811     -0.42707671389657      0.84586202404378
  H   2.59314390040700     -0.00946138214778      0.67946459748114
  H   1.29945897191194     -0.20317052194763      1.86756300739617
  H   1.63483103683141     -1.50778559407301      0.70631462339455
  N   1.04743935267724     -0.08414161622471     -1.47641757201511
  H   0.58889701016068      0.53028080282852     -2.13652952043139
  H   2.05056254107131     -0.00601347464937     -1.57665594578784
  N   -1.74019500300018      0.07459430871317     -1.05032979750059
  O   -2.73399870680773     -0.64239968778431     -1.12216039706700
  O   -1.49451362535263      1.05437719638990     -1.74555451739174
  N   -1.38029853592190      0.24007598001774      1.31396428362792
  O   -1.07526168001930     -0.37623596481040      2.32995546389333
  O   -2.08306596350116      1.23809090319744      1.23617806088224
