17
Coordinates from ORCA-job run
  C   0.66860701459999      0.16237229423585     -0.13135673061736
  C   -0.81037639749382     -0.22021841198884      0.01707077300567
  F   0.79242830160483      1.48820954453298      0.31099393170018
  H   -0.94210716913726     -1.29789599942771     -0.04758830973461
  C   1.54748362520343     -0.68821091290388      0.76308663354023
  H   1.27428224698683     -0.56694220286602      1.80883373261561
  H   2.57945899254000     -0.35326898699190      0.63681214625032
  H   1.47632372783806     -1.74100641848632      0.48852542771881
  N   1.03066017593686     -0.00490227623213     -1.49048517556917
  H   0.63546111987747      0.72963490951271     -2.06302446497852
  H   2.03632641012851     -0.01581295450981     -1.59509507364794
  N   -1.72562922472504      0.37859171730244     -1.00769568380119
  O   -2.78710451458680     -0.22062038515292     -1.15324728442712
  O   -1.38318538648075      1.40709956930356     -1.58092621101190
  N   -1.34606662632898      0.21415269264881      1.35320076725491
  O   -1.10495655435372     -0.55070227376625      2.28161634053272
  O   -1.94260574160962      1.28052009478943      1.40827918116937
