17
Coordinates from ORCA-job run
  C   0.67833324582390      0.24669946971214     -0.16603187413290
  C   -0.79690795741120      0.31855885973448      0.25606188666000
  F   0.91414011844192      1.55898026693253     -0.65552485014225
  H   -0.92677996919329      0.94887498545642      1.13285591411258
  C   1.59898915026480      0.06650386703285      1.02094140203037
  H   1.46062480453618     -0.90962375791808      1.48065694553831
  H   2.62851850927976      0.16034636272473      0.66791133979990
  H   1.42339835504958      0.84751529628738      1.76097182183210
  N   0.88098054673674     -0.75537103178933     -1.12908921678816
  H   1.86110837751443     -0.87293115542975     -1.34509349291142
  H   0.34209215318811     -0.59220135711648     -1.96874526286286
  N   -1.31968294785795     -1.04466247298696      0.60639391627109
  O   -2.01237948276751     -1.62738455660146     -0.21556492992193
  O   -0.97501041705615     -1.45284595007295      1.70949241369485
  N   -1.68823899601150      0.89506997272425     -0.80116402653965
  O   -2.61270562858440      1.58566177567384     -0.38103812547446
  O   -1.45747986195344      0.62380942563639     -1.97403386116558
