17
Coordinates from ORCA-job run
  C   0.74183050920823      0.25893418608426     -0.20297650338914
  C   -0.74161181546796      0.37942929137560      0.23238192380202
  F   0.96141898722562      1.53648994352615     -0.73173262241151
  H   -0.86246988571798      1.08273827799084      1.05586049041426
  C   1.65020328195122      0.09540781098405      0.99479801894852
  H   1.48897652086666      0.91159709427684      1.70053480428502
  H   1.48298361993422     -0.85706672877641      1.49616075756576
  H   2.67886263042768      0.14165100858734      0.63629633181781
  N   1.04719072157433     -0.68160324989591     -1.21552573013764
  H   1.14935522096652     -1.61053238535121     -0.83416191891908
  H   0.35733847684667     -0.68745012132801     -1.95568481740758
  N   -1.38371808086987     -0.90904042917093      0.66659359555476
  O   -2.59249192332282     -0.84659799447678      0.85856006334065
  O   -0.67123196289670     -1.89481052533446      0.82775894273984
  N   -1.57290409696250      0.90138859372821     -0.89423092938191
  O   -2.02503783521152      2.03231204624066     -0.77598513832559
  O   -1.70769436855181      0.14815318153977     -1.85664726849620
