17
Coordinates from ORCA-job run
  C   0.64062976584862      0.07538402998054     -0.42326519252316
  C   -0.88341115563302      0.16993560880732     -0.28228312969508
  F   0.93962412123881      1.25568191833380     -1.14895149031232
  H   -1.34047547910940      0.18530015371259     -1.26862176167410
  C   1.47736506358735      0.10565008408731      0.83241941743566
  H   1.28448030965808      1.00965698996114      1.40315981882805
  H   1.27924110086122     -0.76190578033196      1.45714194984135
  H   2.52584871021013      0.10588352104739      0.52422040002353
  N   0.88570029171889     -1.09649886575848     -1.17284473213847
  H   1.87205211850331     -1.31072324660404     -1.22882328110437
  H   0.48987184789980     -1.05142211417685     -2.10342005299155
  N   -1.33937491513339      1.43162705319972      0.38648495774001
  O   -2.03402392030777      2.17005361946270     -0.30789478576256
  O   -0.99210976140321      1.62792031544017      1.54552680139505
  N   -1.45920696860695     -1.01264901457264      0.43118179530801
  O   -1.13774381176038     -1.18879747741991      1.60054315509298
  O   -2.20846731757209     -1.71709679516880     -0.24057386946304
