17
Coordinates from ORCA-job run
  C   0.62276695104061      0.08349203709408     -0.45045210596245
  C   -0.90029893492934      0.03677867295365     -0.27629735156792
  F   0.78094080020006      1.17186718419635     -1.34442750462862
  H   -1.37243682087827     -0.13433243718204     -1.24053742764521
  C   1.47176659112256      0.37926294415310      0.76185794774981
  H   1.20094351113414      1.33568193595347      1.19963781865802
  H   2.51066677691133      0.43198402289009      0.42671092753248
  H   1.36851916986522     -0.40140747983284      1.51172242525524
  N   0.98063025227892     -1.15176996726755     -1.03492319845487
  H   1.98345151582946     -1.26503978362147     -1.09390976734593
  H   0.56531313206081     -1.28289180340362     -1.94873214161989
  N   -1.48435800720825      1.32115827312175      0.22822985602101
  O   -2.29456944215267      1.85914058701444     -0.52321354521161
  O   -1.12208199701546      1.72783022243640      1.32643524711373
  N   -1.33102769061897     -1.08928227575306      0.61091625373047
  O   -0.98821255030881     -1.05575084107077      1.78685375665541
  O   -1.99301325733135     -1.96572129168199      0.06112880972035
