17
Coordinates from ORCA-job run
  C   0.62884785956658      0.09918582414289     -0.43883579217475
  C   -0.89593004144599      0.02450273871432     -0.29150538014292
  F   0.78310150184541      1.20020688042286     -1.31806115252904
  H   -1.34859349178234     -0.14265448126179     -1.26573891729019
  C   1.45162882119495      0.39648866096427      0.79102512041174
  H   1.15580955428305      1.34265168112033      1.23492206720897
  H   2.49490127030034      0.47214432018076      0.47438289174467
  H   1.35011086854537     -0.39426453442952      1.53051069108275
  N   1.01825216219184     -1.12295424984591     -1.03010058558205
  H   0.62000808551968     -1.25271063478452     -1.95161998300641
  H   2.02362559008952     -1.21911468218570     -1.07288894567347
  N   -1.51023064298660      1.29296717916433      0.21751610185725
  O   -2.31482154915395      1.82704967106755     -0.54270691529577
  O   -1.17504172599804      1.69207425181781      1.32703364063602
  N   -1.32205380352585     -1.11944220067054      0.57461440975116
  O   -0.99943605087508     -1.09477347660560      1.75647025721106
  O   -1.95917840776888     -2.00035694781153      0.00298249179097
