17
Coordinates from ORCA-job run
  C   0.69184839373009      0.15580582173207     -0.21696193214044
  C   -0.74907223117091      0.42612353269589      0.24043144716517
  F   1.03190889132806      1.37260950636002     -0.86694730643793
  H   -0.77743050006460      1.16644202490671      1.03671520200393
  C   1.64085917342304      0.02200187666250      0.95366899614231
  H   1.42258992196689     -0.87004472090035      1.53672189392236
  H   2.65802894800835     -0.04022779868892      0.56014834278333
  H   1.58004336572879      0.90204461135339      1.59418814825474
  N   0.75489814420212     -0.96607212381877     -1.05921632097629
  H   0.19906866593782     -0.84800664425576     -1.89530419601865
  H   1.70882508896806     -1.20720875962276     -1.28928665499348
  N   -1.38611689899229     -0.82542594339145      0.77196671149303
  O   -2.16104712726397     -1.43209381811601      0.04638596612386
  O   -1.04161941519882     -1.12889714585857      1.90835994121073
  N   -1.62840841661855      0.95985744700782     -0.84893959593419
  O   -2.47000024434727      1.77577634226189     -0.48307177961307
  O   -1.47237575963681      0.53731579167229     -1.98885886298542
