17
Coordinates from ORCA-job run
  C   0.67864693919003      0.13202061431440     -0.26584228419392
  C   -0.69818606031233      0.44697135298350      0.33768955825740
  F   1.03753061859455      1.37345790251427     -0.85597138427455
  H   -0.61173479695468      1.12122510434427      1.18668157346766
  C   1.71476504737422     -0.14410486763768      0.80142912602551
  H   2.68896421630269     -0.22801511281587      0.31433500999911
  H   1.49435503159046     -1.06743911777204      1.33271499916506
  H   1.76169827647833      0.68348233593204      1.50950646193675
  N   0.59831038773159     -0.92409344177617     -1.18826266959320
  H   1.51183546266382     -1.19634533965636     -1.52373871405243
  H   -0.02160674978106     -0.71160503695017     -1.95812489536516
  N   -1.36574360315387     -0.80487399548337      0.82977315190980
  O   -0.94196232664345     -1.21847632763936      1.90288476068752
  O   -2.23939611747787     -1.30536734097043      0.13606616634930
  N   -1.62881830080499      1.11605807405771     -0.62646415245461
  O   -2.37352483997388      1.95754456249049     -0.13098495214604
  O   -1.60413318482358      0.76856063406480     -1.80169175571819
