17
Coordinates from ORCA-job run
  C   0.53032214637137      0.00179116921338     -0.61301685207874
  C   -0.95807132684052      0.08000351799081     -0.23629741070497
  F   0.64549338813372      0.83901309577325     -1.71490515231015
  H   -1.55349252752055      0.01875249249570     -1.14410365831907
  C   1.49071760248710      0.50616822409379      0.44038415003256
  H   1.39090857203313     -0.06412832643505      1.36253220884875
  H   1.31586699397524      1.56264740428545      0.65002843717151
  H   2.50500642790326      0.39658729952153      0.05200298350995
  N   0.74258870414776     -1.33864196491378     -1.10809619326825
  H   1.43996406450315     -1.29452847555211     -1.84146657928446
  H   1.07508531349226     -1.94313665477530     -0.36782285115374
  N   -1.28504399417260      1.37210406910571      0.44763381515671
  O   -1.25252760758456      1.38339315688783      1.67419844902263
  O   -1.49804986312981      2.32180541050534     -0.29681543664410
  N   -1.40586382159607     -1.01849224688509      0.67032833988465
  O   -2.61319297668177     -1.23509630483034      0.66272567246895
  O   -0.56771109552112     -1.58824186648111      1.36269007766775
