17
Coordinates from ORCA-job run
  C   0.67674031706524      0.32225014966155     -0.13426841299199
  C   -0.73892957104630     -0.28183350588276      0.01541305702881
  F   0.55078772982253      1.66478089124446      0.18478298048103
  H   -0.70667713377034     -1.36998386709466     -0.00699424624366
  C   1.63310301067380     -0.31041369962875      0.85661858599864
  H   2.61465322153476      0.13127645249513      0.68317715662065
  H   1.69390478074634     -1.39275083846433      0.72253515383104
  H   1.32352822551713     -0.10471171670612      1.87911763950146
  N   1.21008042233995      0.22402193091321     -1.44851401826231
  H   1.60481914808743     -0.68049420445822     -1.65526872373192
  H   0.57762008721714      0.54324551747363     -2.16667264496805
  N   -1.72199474385265      0.12692907869022     -1.04154743708466
  O   -1.49296970998798      1.12736841279468     -1.71282632818194
  O   -2.71311840945726     -0.59378028244733     -1.11790099374726
  N   -1.36625126448842      0.10486848893568      1.32555271868339
  O   -1.05607839446234     -0.60201140662170      2.27939406534704
  O   -2.09121771593902      1.09023859909530      1.33740144771973
