17
Coordinates from ORCA-job run
  C   0.65010361125399      0.04479331837007     -0.57974704693262
  C   -0.86738852830798      0.10331166629140     -0.29149445480544
  F   0.78542480733006      1.00368781913229     -1.58289970197511
  H   -1.42177395064071      0.04429771840917     -1.22766859289824
  C   1.53692436552248      0.44547467579298      0.57402196178023
  H   2.56922598503132      0.35447701147070      0.23539272000733
  H   1.34978451467605      1.48259477808038      0.85015487506920
  H   1.37519243334511     -0.18879437616994      1.44364406713048
  N   1.05138423509470     -1.20292052191770     -1.13533153477947
  H   0.42368710471895     -1.53186453006887     -1.85809756186292
  H   1.17223257180968     -1.90808100427742     -0.42298333630232
  N   -1.26565660605338      1.39004553907240      0.36678804180627
  O   -1.19475697569457      1.42569625034306      1.59164185190920
  O   -1.58094563126909      2.30350528470514     -0.38577942586822
  N   -1.38554093774059     -0.99225666277023      0.59044727101892
  O   -2.60619272047718     -1.12034967303910      0.57836176841861
  O   -0.59270427859883     -1.65261729342434      1.25454909828411
