17
Coordinates from ORCA-job run
  C   0.70412003967860      0.09631646577384     -0.50562312781962
  C   -0.83511242779847      0.02832456519998     -0.38585871430111
  F   0.86880342627616      1.05923502215268     -1.50084667003259
  H   -1.27656206139839     -0.08243179153778     -1.37589450194145
  C   1.42272108022960      0.57502286930318      0.73238219100782
  H   1.12169032548466      1.59448333955294      0.97104622323031
  H   1.21886422018782     -0.06581573221271      1.58819685884743
  H   2.49005532852714      0.56879384380732      0.51020529603692
  N   1.26629438865204     -1.11564306191562     -0.99780756317498
  H   1.36469143871489     -1.80526200142229     -0.26687830385883
  H   0.74942874374408     -1.49893885201855     -1.77929004316374
  N   -1.40935920241684      1.28073221218346      0.20560573649746
  O   -1.47436393238363      1.33003579255918      1.43036741973575
  O   -1.71814709141317      2.15889398382599     -0.59038801145711
  N   -1.35462899200928     -1.10183824342575      0.45043329376014
  O   -2.55232840637538     -1.33007776060111      0.30884839227290
  O   -0.58716687769984     -1.69183065122475      1.20450152436070
