17
Coordinates from ORCA-job run
  C   0.62733345851409      0.03304732573118     -0.45006762702301
  C   -0.89728006362715      0.04072295054902     -0.28513783633536
  F   0.82097882474277      1.05028049200615     -1.41811589194224
  H   -1.36827260618428     -0.18794292346258     -1.23795840086642
  C   1.47765645732066      0.39145718553902      0.74425343151394
  H   1.22672653457862      1.38093951941738      1.11536191934756
  H   1.35396775416381     -0.33424081518410      1.54454894214377
  H   2.51871039933012      0.39818636189828      0.41175420935976
  N   0.95409776736854     -1.25006920121521     -0.94226097772732
  H   0.54027752743390     -1.43488650775425     -1.84743975271947
  H   1.95371965375496     -1.39450499113807     -0.98581598676587
  N   -1.44835738883816      1.37472480697900      0.11844352226921
  O   -1.08273304855943      1.85090623691346      1.18714612498117
  O   -2.23610775274068      1.87855516150808     -0.67902053562895
  N   -1.36462522479073     -1.00398629112502      0.67953526971932
  O   -1.02372828823233     -0.89473978726010      1.85144485596468
  O   -2.05236400423471     -1.89744952340223      0.19232873370923
