17
Coordinates from ORCA-job run
  C   0.76934639080476      0.40585385626467     -0.07716629518890
  C   -0.76988241153053      0.50560068079785      0.02568365865849
  F   1.17617143375188      1.53524090172490      0.63144106962024
  H   -1.09276795131869      1.51182267547255     -0.23963800797468
  C   1.37557848975226     -0.80733186555507      0.58547202144092
  H   0.98243613712498     -1.73186636468266      0.16664097130818
  H   1.17681450222790     -0.78861729465347      1.65655137839447
  H   2.45337788612717     -0.75802183975102      0.42909272932095
  N   1.23752908985817      0.55797487864651     -1.41307336206726
  H   0.78483734500972      1.31892512235454     -1.90370631023699
  H   1.15550455589539     -0.30065479024390     -1.93792812457558
  N   -1.25679363890937      0.24904787776935      1.42043493632115
  O   -1.48480390814447     -0.91978599858364      1.71771761903119
  O   -1.33549295314756      1.22963783627986      2.15011312604282
  N   -1.52376142537012     -0.44040966020267     -0.85896660739181
  O   -0.94016583661951     -1.40865370654161     -1.33601969414181
  O   -2.70792770551198     -0.15676230909620     -1.01464910856138
