17
Coordinates from ORCA-job run
  C   0.67174217094903      0.13801682036235     -0.14321564983354
  C   -0.81785694887533     -0.18827849559807      0.03132408882428
  F   0.85812268004710      1.44956318614786      0.31903540980571
  H   -0.99419383310622     -1.25843994995960     -0.04995095790911
  C   1.53496628153810     -0.76288824194464      0.71668068804783
  H   2.57669409902146     -0.46815878779574      0.57147535433488
  H   1.41440724608018     -1.80721647389837      0.42749467967773
  H   1.29082051582306     -0.64782904418025      1.77027194713847
  N   0.99741558737140     -0.01883439496883     -1.51270365759332
  H   1.99928875750606     -0.06785137982281     -1.64025989762335
  H   0.61976668105211      0.74109588812425     -2.06354031420671
  N   -1.73038077001826      0.46503157659042     -0.96244302763905
  O   -2.81797683987477     -0.08865145360682     -1.09432678497395
  O   -1.35929075463050      1.48939932792695     -1.52515263788124
  N   -1.30688444688215      0.24205061654897      1.38622529977924
  O   -1.07525398490528     -0.54829384504652      2.29553856520960
  O   -1.86038644109600      1.32928465112084      1.47354689484254
