17
Coordinates from ORCA-job run
  C   0.71801876916695      0.14837997409620     -0.47135600820629
  C   -0.82369698905347      0.16655044430542     -0.37058223641045
  F   0.96446285710637      1.28900558309099     -1.23471451063684
  H   -1.25516918971413      0.28454639047169     -1.36430792328439
  C   1.45029715038810      0.29557069043258      0.84032715706192
  H   1.19506943802331     -0.50294824994964      1.53454026163178
  H   1.21301985814071      1.25467252004866      1.29895107711845
  H   2.51740993394264      0.26690927702874      0.61885535821084
  N   1.20173604244668     -0.96585606693286     -1.21431212232423
  H   1.23689498906752     -1.80299555346813     -0.65092579345337
  H   0.67333601806012     -1.13059292670575     -2.06190364920559
  N   -1.32154014826874      1.31383750853723      0.45540060861688
  O   -1.57990383635160      2.34460945637432     -0.15371272742778
  O   -1.38356845545370      1.12989626380200      1.66749075131194
  N   -1.43577726084454     -1.06690197917438      0.22330627892296
  O   -0.71886864568533     -1.86884323722008      0.81374623898448
  O   -2.64972053097090     -1.15584009473698      0.06719723908969
