17
Coordinates from ORCA-job run
  C   0.69109076366962      0.14387784631443     -0.22447314581504
  C   -0.74263190173836      0.43768593929637      0.24205649962005
  F   1.03931880895312      1.34486622287315     -0.89766202229376
  H   -0.75641462357069      1.18842894621741      1.02888378126325
  C   1.65025538618157      0.01785022822258      0.93883717987602
  H   2.66280638699676     -0.05914025064999      0.53608838867630
  H   1.60412550633040      0.90731309901065      1.56753702876471
  H   1.42947386805800     -0.86385106661137      1.53641289182916
  N   0.73215400196855     -0.99259417498688     -1.04857842998857
  H   0.16666187665960     -0.88262445372325     -1.87932390615318
  H   1.68049390396636     -1.24739077531107     -1.28680827071828
  N   -1.38976514158115     -0.79921657547782      0.79417545063597
  O   -2.18276457274317     -1.40267331725156      0.08552745680547
  O   -1.03379668766311     -1.09587210390758      1.92891761005941
  N   -1.62243584535054      0.96962064807961     -0.84818007318870
  O   -1.48718093982128      0.52189282283284     -1.98120829899469
  O   -2.44139079031568      1.81182696507247     -0.49020214037811
