17
Coordinates from ORCA-job run
  C   0.67195259474685      0.33403672352301     -0.25543331633457
  C   -0.75975180779484      0.45363472922955      0.28954908621921
  F   1.03529529593329      1.64174296377807     -0.56088470383672
  H   -0.82489721938547      1.27345471734787      1.00168710550466
  C   1.63583392003734     -0.12924738118769      0.82436095697812
  H   1.48034852517011     -1.17954669961310      1.06727451606741
  H   1.53874538016846      0.47655650625383      1.72885460205605
  H   2.65046427302860     -0.00241779827906      0.44079407761170
  N   0.66679861221182     -0.38727334984249     -1.48778495083518
  H   0.28126460585589     -1.31409718757274     -1.35639380561746
  H   1.61045541239311     -0.46185566084791     -1.84794943256005
  N   -1.24780557874098     -0.77676241243739      0.97827358492502
  O   -2.01905434249268     -0.59079123431607      1.91622399294833
  O   -0.87736168899484     -1.86590172717015      0.54652132612389
  N   -1.72522535604276      0.76268910307447     -0.82391063146801
  O   -2.34466832820816     -0.17281470895965     -1.31215915529512
  O   -1.77139429788574      1.94059341701945     -1.14802325248726
