17
Coordinates from ORCA-job run
  C   0.69678809855423      0.14152349685523     -0.20897101070249
  C   -0.74882627482273      0.44099025748900      0.21494814136686
  F   1.06223826084874      1.33325123467524     -0.88985844998198
  H   -0.78268954712249      1.20424298658052      0.98904268346662
  C   1.62449469925222      0.03268229001195      0.98117683077090
  H   1.55892169061364      0.92897185282930      1.59829872162601
  H   2.64772605327278     -0.04592053673789      0.60672420486364
  H   1.39030326612930     -0.84287356159963      1.58272075110158
  N   0.76084240450210     -1.00661180010342     -1.01562767888985
  H   0.21866371828601     -0.90757817714943     -1.86316871332654
  H   1.71584578476402     -1.26229903809341     -1.22490392952883
  N   -1.40861987727316     -0.78764880085352      0.77097471016017
  O   -1.08179834276066     -1.06455622912037      1.91934579436368
  O   -2.18227487517286     -1.40396171604809      0.05220396399439
  N   -1.60186496339989      0.95308239667524     -0.90505895644662
  O   -2.43498668790018      1.79456129477290     -0.57980887210962
  O   -1.43476340777108      0.49114404981637     -2.02803819072790
