17
Coordinates from ORCA-job run
  C   0.71925093230590      0.27792984356983     -0.05056556770439
  C   -0.78863955912506      0.50298273631021      0.11530734289671
  F   1.25520880477170      1.18778576608898      0.89528465511117
  H   -1.02969988733772      1.53871914865751     -0.11079511408552
  C   1.27955222953833     -1.08408123649164      0.27984411718752
  H   2.36510098759167     -1.02467939081744      0.16827563842062
  H   0.88369414057082     -1.84318816102793     -0.39055868560039
  H   1.05193663504081     -1.35785162593725      1.30602076086378
  N   1.01853619959692      0.64344054411418     -1.38150038275076
  H   1.97567327475283      0.42972197272898     -1.62661415759005
  H   0.82403418569193      1.61879564363312     -1.56985315101666
  N   -1.27535477876861      0.27961451517488      1.51465972363983
  O   -1.14251776139612     -0.83799136967221      2.00050059847954
  O   -1.77630569356062      1.26158030076197      2.05801101638279
  N   -1.59040264663571     -0.33391412351921     -0.83161274866959
  O   -1.54079814150536     -1.55155212781529     -0.70353536959033
  O   -2.22826892153173      0.29268756424131     -1.67386867597428
