17
Coordinates from ORCA-job run
  C   0.78067850164917      0.38843604268430     -0.02548588662789
  C   -0.75639591765728      0.52018454270010      0.07029558355284
  F   1.20644737001101      1.42129581702080      0.80888279958286
  H   -1.04721965523987      1.55704180770624     -0.09584101797889
  C   1.34697743290246     -0.90615784811024      0.50515464076101
  H   0.93968774962034     -1.76782354046490     -0.02053438040097
  H   2.42800913948283     -0.86584521301174      0.36985715449337
  H   1.13103932647010     -1.00329408158434      1.56853661955296
  N   1.27176215082285      0.67476636501108     -1.33079059153390
  H   1.17526178736695     -0.11803615183260     -1.94847730967416
  H   0.84519115403292      1.49686028532123     -1.73931104453295
  N   -1.26978039197166      0.13894218584145      1.42674468616759
  O   -1.34734860961479      1.04541625254956      2.24667689348044
  O   -1.51974969631779     -1.04952350933867      1.60485585173669
  N   -1.52455139056958     -0.31041550098249     -0.91259373480689
  O   -2.70351311061990      0.00843677656649     -1.03536872186613
  O   -0.95649584036775     -1.22928423007627     -1.49460154190598
