17
Coordinates from ORCA-job run
  C   0.73530566104844      0.22420944271188     -0.26274636615385
  C   -0.69197177974154      0.41274005320464      0.31355890962257
  F   0.98472177794211      1.50811464499520     -0.76194636173360
  H   -0.69395615305760      1.08746693417550      1.16914280967491
  C   1.73600515807044     -0.04314613981516      0.83899794573614
  H   1.68858980312903      0.74892462349557      1.58767606106518
  H   2.72945839938098     -0.04070903770191      0.38971924530147
  H   1.55642281797098     -1.00574286557760      1.31624380698111
  N   0.88826130598326     -0.68858225405117     -1.33325054594363
  H   0.13419325036018     -0.62347151848157     -2.00474865143709
  H   0.96811274421012     -1.63724453345676     -0.99803454318138
  N   -1.36973664377595     -0.85280460655175      0.76129660576371
  O   -0.71067732647745     -1.88644783315958      0.81196745591582
  O   -2.54740620771126     -0.72565885708248      1.07584723910261
  N   -1.58957514959276      1.02641386705260     -0.71068896856767
  O   -1.95978639236100      2.17565856151025     -0.51133688531156
  O   -1.85796126537796      0.32127951873234     -1.68169775683476
