11
Coordinates from ORCA-job run
  C   1.17444189435948      0.05367639174045      0.37200004905613
  C   -0.16896013523237      0.20564611889335     -0.32976986842316
  Cl  1.99520942308774      1.62629199247770      0.39472660558947
  H   -0.01587341559690      0.57195818523965     -1.34996194951058
  H   1.79414258885049     -0.65311331289748     -0.17188196785844
  H   1.03254359679662     -0.28161670353490      1.39873230252966
  C   -1.07758884469291      1.09737429118338      0.38053410944217
  N   -1.77251855148644      1.83374664408677      0.97477161588466
  N   -0.83277826185325     -1.15858321562507     -0.49752283306320
  O   -0.07428342816274     -2.11172680868677     -0.63338444720218
  O   -2.05433486606974     -1.18265358287708     -0.53824361644453
