11
Coordinates from ORCA-job run
  C   1.18871812354254      0.10405944963023      0.31465725381411
  C   -0.19389210501787      0.20023641021699     -0.31717560873135
  Cl  1.93424157109189      1.71400741815090      0.31759266112177
  H   -0.10977193014276      0.58547376771590     -1.33839348565227
  H   1.81297550699521     -0.56623057404445     -0.26897248197709
  H   1.11500953908064     -0.24951062246932      1.34246761263667
  C   -1.10613805651710      1.04031830185110      0.44930949836504
  N   -1.80445430963378      1.73645042828500      1.08622575799802
  N   -0.80318252141957     -1.19039939160218     -0.47144695119773
  O   -0.01028854868009     -2.11061062001652     -0.63502797275947
  O   -2.02321726929910     -1.26479456771766     -0.47823628361770
