11
Coordinates from ORCA-job run
  C   1.12436031831416      0.10106708019988      0.44071764547782
  C   -0.18618769406740      0.27159771348486     -0.32099477226108
  Cl  1.82571015704033      1.69237744503421      0.77512997802702
  H   -0.02804769044217      0.82753555886468     -1.24587036651940
  H   0.94477914115773     -0.41281114080436      1.38328689538583
  H   1.82545046210125     -0.46428322192973     -0.17396971633741
  C   -1.22395551027055      0.90273958414520      0.48572834354685
  N   -2.05211454480019      1.42301097585622      1.13493067390035
  N   -0.64791412947910     -1.11017263640787     -0.73075310407498
  O   -0.97228852851796     -1.86415712625706      0.17941138038948
  O   -0.60979198103610     -1.36690423218602     -1.92861695753448
