11
Coordinates from ORCA-job run
  C   1.18747089542005      0.09473043527092      0.32395220996003
  C   -0.19174889752527      0.20346485770767     -0.31442842853125
  Cl  1.94615698948588      1.69825925795216      0.33918112458980
  H   -0.09753516529475      0.58931967856148     -1.33448520804790
  H   1.10533970815825     -0.26329138831198      1.34975113008333
  H   1.80893552965710     -0.57728632113856     -0.26070372213673
  C   -1.10195148520234      1.05058259699697      0.44610339567836
  N   -1.82287773788649      1.75526815198768      1.04748139198756
  N   -0.80246764590344     -1.18569979744112     -0.47405756311179
  O   -0.01303802178841     -2.08643913552503     -0.73421336272376
  O   -2.01828416912058     -1.27890833606021     -0.38858096774766
