16

C	-0.500869	-0.098707	-1.438385
C	0.0	0.0	0.0
Cl	-0.225119	1.44412	-2.312244
H	1.090762	0.0	0.0
H	-1.586367	-0.236533	-1.429181
C	0.223593	-1.217705	-2.164038
H	1.301528	-1.047336	-2.105798
H	-0.004169	-2.177793	-1.693822
H	-0.08663	-1.261992	-3.209893
N	-0.431544	-1.102427	0.816346
H	-1.277766	-1.542258	0.483382
H	0.318349	-1.770689	0.914309
N	-0.571949	1.246875	0.616199
O	-1.804286	1.292993	0.655313
O	0.182966	2.110248	1.043407
Cl	3.378727	0.0	0.0
