16

C	-0.554694	-0.055265	-1.409051
C	0.0	0.0	0.0
Cl	0.147533	1.255773	-2.407579
H	1.096988	0.0	0.0
H	-1.631718	0.115677	-1.382724
C	-0.210402	-1.387035	-2.05457
H	-0.515613	-1.387079	-3.102178
H	0.868076	-1.552779	-2.004635
H	-0.73635	-2.194227	-1.541876
N	-0.509791	-1.142197	0.776903
H	0.107701	-1.91762	0.548839
H	-0.287226	-0.924556	1.74564
N	-0.482234	1.212845	0.743555
O	-1.258385	1.993564	0.195504
O	-0.081556	1.324045	1.901211
Cl	3.341659	0.0	0.0
