16

C	-0.548226	-0.088039	-1.409769
C	0.0	0.0	0.0
Cl	0.137782	1.219396	-2.426234
H	1.096971	0.0	0.0
H	-1.627553	0.066883	-1.390814
C	-0.175288	-1.423979	-2.028199
H	0.905012	-1.570693	-1.960968
H	-0.695661	-2.231806	-1.509521
H	-0.467172	-1.44828	-3.079596
N	-0.512531	-1.123003	0.802863
H	0.085105	-1.91343	0.576402
H	-0.270994	-0.894387	1.764222
N	-0.487489	1.227558	0.713719
O	-1.295029	1.972023	0.16128
O	-0.063276	1.381933	1.858075
Cl	3.343566	0.0	0.0
