16

C	-0.547382	0.022711	-1.423335
C	0.0	0.0	0.0
Cl	-0.044324	-1.504343	-2.230823
H	1.100597	0.0	0.0
H	-0.04255	0.816285	-1.970061
C	-2.056252	0.152404	-1.496099
H	-2.392897	0.091204	-2.532695
H	-2.524216	-0.641671	-0.915209
H	-2.361974	1.120219	-1.092441
N	-0.579203	-1.076175	0.784938
H	-0.141918	-1.928785	0.450082
H	-0.26278	-0.947869	1.739761
N	-0.359919	1.30251	0.65853
O	-0.340129	2.315641	-0.040713
O	-0.590853	1.293431	1.866255
Cl	3.326452	0.0	0.0
