15
Coordinates from ORCA-job run
  C   -0.64471909518614      0.12992399037216     -0.30467766154424
  C   0.87344225327610      0.30795086253043     -0.06930151735642
  F   -0.81715406282692     -0.63584863532627     -1.43814001280911
  H   1.03746239332136      1.02686804825613      0.73645173759035
  C   -1.35225344652264     -0.54523547556167      0.85399561392870
  H   -0.99951949198923     -1.57314676364164      0.94555008762965
  H   -1.17160449135341     -0.01684073341548      1.79089061442661
  H   -2.42282097783017     -0.56111493151117      0.64824779539564
  C   -1.19719702813940      1.47232906600018     -0.55680101751280
  N   -1.63903420539886      2.54823227988529     -0.72085022201997
  C   1.55631391929855      0.72124892980130     -1.28718032977311
  N   2.10530227370545      1.08903592860658     -2.25763059001140
  N   1.43966386637619     -1.00253425709211      0.42636083376195
  O   1.67924046476226     -1.86084912259243     -0.41257229756915
  O   1.55187762850685     -1.09901918631130      1.64465696586329
