15
Coordinates from ORCA-job run
  C   -0.65156117761296      0.37135262275021     -0.36050143885892
  C   0.88516238819181      0.21480602484087     -0.40459224163390
  F   -0.99414264545993      0.52604246263364     -1.70077916639481
  H   1.30435559725224      1.08108777152615     -0.92509258698938
  C   -1.41352103723696     -0.81307800696344      0.19010727609527
  H   -1.14646677194911     -1.70776527744571     -0.37476587876025
  H   -2.48039787539039     -0.62431814632775      0.06291158082569
  H   -1.19759771233022     -0.95930094212831      1.24646882134515
  C   -0.99197397716765      1.62592207161018      0.32851739913385
  N   -1.27962541358310      2.64078646558140      0.84479240502063
  C   1.27081143265121     -1.00641785906157     -1.10086535671022
  N   1.55274137674433     -1.99995272843096     -1.65995187982889
  N   1.54744874840805      0.21376780122311      0.96269841546302
  O   0.82412912638839      0.21728056657075      1.95160535423707
  O   2.76963794109429      0.21978717362144      0.94044729705567
