15
Coordinates from ORCA-job run
  C   -0.66449286332093      0.35510903322946     -0.35191850932064
  C   0.87455309479512      0.23381533630295     -0.41605926116343
  F   -1.02767964499979      0.49777619240642     -1.68840926573202
  H   1.26660624483820      1.10878387923162     -0.94324426069115
  C   -1.39188228508820     -0.84468666976275      0.21181463471387
  H   -2.46418624774743     -0.68207410281537      0.09495610013869
  H   -1.16150633974511     -0.98004142195177      1.26654997822904
  H   -1.10934859978911     -1.73575604715669     -0.35109245380648
  C   -1.02488922373391      1.60393405559351      0.33723662680985
  N   -1.32991917040247      2.61404361491036      0.85287457339514
  C   1.27912322436597     -0.97858629188597     -1.11700565956878
  N   1.57649116212170     -1.96550005963095     -1.67985828848478
  N   1.55516944289051      0.24949819517663      0.94175709016625
  O   2.77661804171710      0.27691980992881      0.90297743686429
  O   0.84534316409834      0.24476447642373      1.94042125845012
