15
Coordinates from ORCA-job run
  C   -0.61038495862467      0.34084910133515     -0.12419249939426
  C   0.85886491030586     -0.07940924998763     -0.31398706735038
  F   -0.77402984123623      1.49102751218403     -0.87775564695432
  H   1.02458153680535     -0.26982881672417     -1.37663858915597
  C   -1.55228016413739     -0.72873652478012     -0.64277472189409
  H   -1.46219537478347     -1.64625952464073     -0.05946314342853
  H   -2.57612368781814     -0.36048190679383     -0.56739967188055
  H   -1.32618059416123     -0.93398092898424     -1.69111021401533
  C   -0.90814385109693      0.65941816329640      1.28086650638030
  N   -1.22500261217763      0.88173226242041      2.38973175855359
  C   1.19300547239876     -1.24008670478158      0.49583186876303
  N   1.43366807072779     -2.19944650183529      1.12939418567326
  N   1.76622973158862      1.08063584490567      0.03775371176634
  O   1.88985916972562      1.33465774681333      1.22932644280597
  O   2.26813219248371      1.67090952757259     -0.91058291986906
