15
Coordinates from ORCA-job run
  C   -0.64674462172360      0.04391039849559     -0.32421926536715
  C   0.85492742019911      0.34604771667945     -0.11005230247990
  F   -0.75829341357194     -0.89167986429441     -1.33064720723749
  H   0.96452948900905      1.18705059192460      0.57821372750791
  C   -1.32938248694067     -0.49136762556427      0.91935812039331
  H   -2.39464637775151     -0.60038487873552      0.71430405234912
  H   -0.91957794472403     -1.47172711104772      1.16474060732167
  H   -1.19129977204960      0.18059098235974      1.76731126770109
  C   -1.27325587911627      1.29775753188667     -0.77838824612088
  N   -1.77527698685153      2.30807264233699     -1.10533396565251
  C   1.52989998172538      0.61094647713913     -1.37284038999262
  N   2.06865730736276      0.86052453226612     -2.38570798113827
  N   1.48955418472456     -0.83829193075668      0.58136923142564
  O   1.79055295761493     -1.79742864985080     -0.11685102187112
  O   1.59035614209335     -0.74302081283890      1.80074337316121
