15
Coordinates from ORCA-job run
  C   -0.66551064856919     -0.02761313463882     -0.28566786025842
  C   0.82324200903815      0.38104656813730     -0.19851271203696
  F   -0.77382150964672     -1.06900421212604     -1.18249034476906
  H   0.92003863838594      1.29360147321133      0.39372322603044
  C   -1.24142774206117     -0.46673989903775      1.04647526773508
  H   -1.09990198138466      0.29895071106283      1.81035255977241
  H   -0.75632759368111     -1.38971842121816      1.36624228563361
  H   -2.30731672347691     -0.65848116234000      0.92040100867963
  C   -1.39583838322039      1.13314162331413     -0.82419805287252
  N   -1.97941473133474      2.07274638913236     -1.21946996678460
  C   1.40731130728656      0.55074297017247     -1.52155752263535
  N   1.87122507139799      0.72191084763457     -2.58643301436185
  N   1.57046697411238     -0.68653482602067      0.56735570068058
  O   1.73362953516851     -0.45901394901493      1.76222249039063
  O   1.89264577798538     -1.69403497826862     -0.04844306520361
