15
Coordinates from ORCA-job run
  C   -0.65329830082782      0.27810119216759      0.00145218459992
  C   0.79794996163260      0.03511589712879     -0.45228383866012
  F   -1.05361649919907      1.44633797570599     -0.62532406350362
  H   0.80266277661867     -0.07171942334980     -1.53925442064629
  C   -1.55781189307012     -0.85597919296385     -0.44105672703968
  H   -2.58613531866524     -0.60782572043397     -0.17550810728970
  H   -1.49014782567966     -0.97231146415989     -1.52462623590317
  H   -1.28150041745443     -1.79099303096995      0.04845548469943
  C   -0.74266834168739      0.47731208100431      1.45632036219956
  N   -0.89170485755133      0.59747741364775      2.61510200791421
  C   1.37607923250735     -1.12811895294293      0.20154042772794
  N   1.81301321823547     -2.09171995654933      0.71170204897005
  N   1.63179285650745      1.26504815305676     -0.16076222376687
  O   1.92691363712575      1.45880003140403      1.01179892518818
  O   1.90847177150776      1.96247499725448     -1.12855582448985
