15
Coordinates from ORCA-job run
  C   -0.64702031219953      0.02380534478636     -0.32582027470698
  C   0.84118566514725      0.37973426461300     -0.10153376291409
  F   -0.71907536500973     -0.89991497836288     -1.34666553037846
  H   0.91712214576122      1.21276361725357      0.60077294970469
  C   -1.31278561395793     -0.55592551950658      0.90689299821403
  H   -1.20189753713942      0.10748061910946      1.76548543694502
  H   -2.37271142639316     -0.70108289711003      0.69716899208613
  H   -0.86719476096068     -1.52384011178549      1.13916047587057
  C   -1.31952617827636      1.25962173488533     -0.76295889190435
  N   -1.85839229627054      2.25548612957276     -1.07520776538593
  C   1.50881442510135      0.69123317895863     -1.35769810794650
  N   2.04002004967433      0.97637381949619     -2.36512918249124
  N   1.51963764506543     -0.79031520177897      0.57232270327079
  O   1.61120810501955     -0.71217642073163      1.79368787387102
  O   1.86261545443824     -1.72424357939974     -0.14047791423469
