15
Coordinates from ORCA-job run
  C   -0.65417199993471      0.27626146016336     -0.00584500651144
  C   0.79717615087712      0.02385389008261     -0.45446215435609
  F   -1.05869008063885      1.42406214437345     -0.66664866988121
  H   0.80026857556932     -0.11474505327024     -1.53782034943427
  C   -1.55599251045130     -0.87317475248534     -0.41278874026587
  H   -1.48958930406539     -1.02178726527880     -1.49249940410838
  H   -1.27630256911214     -1.79230465370864      0.10413098129052
  H   -2.58469332664908     -0.62010051711856     -0.15336666580608
  C   -0.74170585045229      0.51842657984660      1.44259925333396
  N   -0.88888230639468      0.67178186003937      2.59770880291468
  C   1.37955432650801     -1.11782124236046      0.23260554572607
  N   1.81985047105535     -2.06466077980466      0.77050095381406
  N   1.62794266030960      1.26420953636145     -0.20084705127167
  O   1.89978466121189      1.93432114039990     -1.18909978851407
  O   1.92545110216712      1.49267765275995      0.96483229306979
