15
Coordinates from ORCA-job run
  C   -0.61955146288984      0.03906780894121     -0.37223997499248
  C   0.82033335516193      0.43503933654983      0.02903010093664
  F   -0.55163731910839     -0.72657299919040     -1.51685480523534
  H   0.78743218236469      1.15648994511192      0.84840275682739
  C   -1.34183784124659     -0.75051127457986      0.70178990867421
  H   -2.36975125321271     -0.91929012654760      0.37985628967744
  H   -1.34381100301134     -0.21619701855209      1.65272991265683
  H   -0.85390271752195     -1.71722384031628      0.83164662645679
  C   -1.33396658171325      1.28858851807455     -0.68732629210697
  N   -1.91027198958363      2.28760869528408     -0.90967286817187
  C   1.56295717336274      0.96349215740405     -1.10664356162329
  N   2.15184650065727      1.41677976430763     -2.01565447405925
  N   1.51781752783321     -0.78606024979409      0.58347961339531
  O   1.50985411806992     -0.88541692853424      1.80669503248103
  O   1.97348931083794     -1.58479378815870     -0.22423826491645
