15
Coordinates from ORCA-job run
  C   -0.64162300499233      0.12602876122000     -0.31414590927314
  C   0.88776436921404      0.24796539045341     -0.11865854128596
  F   -0.87533650265467     -0.76784905748473     -1.33710261713015
  H   1.10465370701851      1.05829641858461      0.58089473093384
  C   -1.36393902784719     -0.35387922339400      0.92950368405825
  H   -1.06308690205444     -1.37833798833988      1.15218013777141
  H   -1.14168890705366      0.28271529259583      1.78696662004658
  H   -2.43710403755738     -0.33978565249474      0.73729410743404
  C   -1.12523890439628      1.45334226351294     -0.73246450475030
  N   -1.51271419120973      2.52112149795544     -1.03131535498416
  C   1.57208186358893      0.45395969317898     -1.38735337825118
  N   2.12360654888323      0.65436978135810     -2.40428875453293
  N   1.38910736716477     -1.01370660252039      0.54481629481643
  O   1.55108283240717     -1.99392118751005     -0.17026650190173
  O   1.53143478948903     -0.94731938711551      1.76193998704902
