15
Coordinates from ORCA-job run
  C   -0.67906595438516      0.34022728460486     -0.33884591517653
  C   0.86472531105908      0.31126582170965     -0.47127674103746
  F   -1.13073456415646      0.51679334757646     -1.63791071406212
  H   1.18910729850139      1.24070257902992     -0.94360843226233
  C   -1.28718875740564     -0.92524908451307      0.22429265734880
  H   -0.97202011116680     -1.09142341680239      1.25396592881582
  H   -2.37324901554045     -0.82832054962671      0.19255978662831
  H   -0.98680178489819     -1.77748403632784     -0.38685526297984
  C   -1.07106676692037      1.52121791297916      0.44710953660003
  N   -1.40603546735651      2.44848989940607      1.08557170498248
  C   1.29880746596773     -0.84328646345975     -1.24404222446368
  N   1.63602571472573     -1.76826203787754     -1.88390810137211
  N   1.49719080010076      0.28624404942106      0.90080851256377
  O   1.86227616363561      1.37201864745367      1.33774635904225
  O   1.55802966783928     -0.80093395357355      1.46439290537263
