15
Coordinates from ORCA-job run
  C   -0.62344107879463      0.08917389123487     -0.35839298561519
  C   0.84387778311416      0.38654196164108      0.02930031401971
  F   -0.62023140011263     -0.62560552325390     -1.53724260460318
  H   0.86668153581746      1.06988917783513      0.88094519855862
  C   -1.36826077330301     -0.70740463914701      0.69514200410594
  H   -0.93155202030257     -1.70369437584894      0.77397573056359
  H   -1.32415346926197     -0.21550368931453      1.66778737251510
  H   -2.40956509685699     -0.80638592300037      0.38719396025656
  C   -1.27214099981729      1.38990037264533     -0.59952566435544
  N   -1.79407994390807      2.43101749287234     -0.75222004494128
  C   1.59290687189080      0.92634871590055     -1.09662639856041
  N   2.19012276227745      1.39290400151242     -1.99335163996217
  N   1.48238924673485     -0.89509708908717      0.51283113783494
  O   1.49049675158422     -1.05115719734472      1.73010041127613
  O   1.87794983093821     -1.67892717664508     -0.33991679109291
