15
Coordinates from ORCA-job run
  C   -0.61098965379340      0.04044355088576     -0.38796865569359
  C   0.82052582557124      0.43229275829487      0.04705149323221
  F   -0.51925687248284     -0.71951690716086     -1.53454739738846
  H   0.76993206551209      1.15217329722819      0.86688232608575
  C   -1.35748626841676     -0.75291711519955      0.66698503088650
  H   -2.37817287210701     -0.91926906974361      0.32160373106232
  H   -0.87378180071996     -1.72062809097713      0.80463107377924
  H   -1.37978249564555     -0.22189991756542      1.61954568541736
  C   -1.31711325191704      1.29274572115537     -0.71057280363137
  N   -1.88659699695921      2.29549917895710     -0.93378272284704
  C   1.58963031420299      0.96452914350180     -1.06897539677385
  N   2.20147048018103      1.43030804460658     -1.95611581531746
  N   1.50240874829740     -0.79082525411165      0.61409357062779
  O   1.97587282928647     -1.58773318946613     -0.18522934078444
  O   1.46533994899055     -0.89420215040531      1.83639922134503
