15
Coordinates from ORCA-job run
  C   -0.65380566325126      0.26629550680434      0.07707743954047
  C   0.75983001779573      0.08887778784335     -0.50709832032461
  F   -1.11214530665160      1.47943786285711     -0.40906133538739
  H   0.67978506256750      0.08236423741592     -1.59630874396936
  C   -1.57986792894018     -0.83797237849065     -0.39538274008250
  H   -1.59369908157801     -0.85797732198200     -1.48705294378298
  H   -1.25984003647614     -1.80817214057096     -0.01241648743529
  H   -2.58701941215919     -0.62878775775670     -0.03261703306435
  C   -0.63166688670033      0.33238562192729      1.54657067405103
  N   -0.69093917946531      0.34368242025131      2.71952626914233
  C   1.39835749398621     -1.11945762496025     -0.01053499010604
  N   1.88361751493871     -2.11845875296906      0.37192581446052
  N   1.60252573619030      1.30044284497519     -0.16832015353461
  O   1.98690533011911      1.39086006426177      0.99083334186190
  O   1.79696233962447      2.08747963039335     -1.08614079136911
