15
Coordinates from ORCA-job run
  C   -0.61897619136145      0.18463156045981     -0.32771378361973
  C   0.86897435606005      0.32072336757343      0.07153045112542
  F   -0.67601121503408     -0.33750874891144     -1.60244848240374
  H   0.94678959556221      0.86266611826295      1.01662102024339
  C   -1.40689047174726     -0.71435913544538      0.60488937897156
  H   -1.32173358575574     -0.38237162960109      1.64039489971327
  H   -2.45483886040369     -0.69608415356472      0.30453811445384
  H   -1.03825261970018     -1.73739671013972      0.52208682075569
  C   -1.17968189454604      1.54695511131262     -0.35333380903446
  N   -1.63123680390405      2.63116216616261     -0.33671737713814
  C   1.64243294422289      0.97570379399445     -0.97398896724038
  N   2.26081315088922      1.53470798604774     -1.80073317189098
  N   1.42219543936425     -1.05949552324928      0.34155287173904
  O   1.43154001487000     -1.40031316113709      1.52050702633467
  O   1.75487614148388     -1.72802104176488     -0.62818499200945
