15
Coordinates from ORCA-job run
  C   -0.67356043713074     -0.00223686795369     -0.26790862488300
  C   0.84837340312731      0.27266962237781     -0.26135246799365
  F   -0.90244614820807     -1.13727643951013     -1.01607748661473
  H   1.04371654476498      1.24208180867827      0.20227589796775
  C   -1.24707060067472     -0.20712424856397      1.12070698887794
  H   -2.32968514627982     -0.30997062836536      1.04097987922421
  H   -1.01094644980796      0.63366679196634      1.77433251475537
  H   -0.84039179636088     -1.12379484508504      1.54966172202386
  C   -1.31040845846905      1.14149268474085     -0.94408063247038
  N   -1.81735232257754      2.07211653488801     -1.45065017090058
  C   1.40605415835484      0.21203170263662     -1.60512429897417
  N   1.85215192134189      0.19945023515154     -2.69107385702593
  N   1.51748884207747     -0.75088598804517      0.62670516639040
  O   1.73590730410722     -0.38507312699749      1.77776088955924
  O   1.72816918573505     -1.85614723591861      0.14484448006366
