15
Coordinates from ORCA-job run
  C   -0.65000922372845      0.03895599722551     -0.32056116134412
  C   0.86155711702055      0.31633856151132     -0.14477643774891
  F   -0.79827993211425     -0.95919364952560     -1.25961783234285
  H   1.00155662445683      1.20101613421415      0.48026302054235
  C   -1.32973151703693     -0.39320743327019      0.96406964443947
  H   -1.16488578180891      0.33117530334266      1.76259478041170
  H   -0.94090780252772     -1.36461661945712      1.27147258809920
  H   -2.39973228614052     -0.48902140220255      0.77815703892786
  C   -1.25041616476881      1.27571308483749     -0.85021864996303
  N   -1.73000129395235      2.27656052090092     -1.23508165030965
  C   1.52678442175581      0.46905533463918     -1.43067285788116
  N   2.05886529380417      0.62289677026246     -2.46589455867442
  N   1.47454305297894     -0.83149423831447      0.62439693619999
  O   1.59697239964087     -0.64933684060900      1.83175648950922
  O   1.74068509242077     -1.84684152355474     -0.00488734986565
