15
Coordinates from ORCA-job run
  C   -0.65390827515470      0.26356981126577      0.07764744311522
  C   0.76366279830679      0.09826849704062     -0.50127194377144
  F   -1.11113569432349      1.48543302206655     -0.38675930843924
  H   0.69125494735212      0.10842931945131     -1.59104877173085
  C   -1.57590189206185     -0.83218324073477     -0.42174046410262
  H   -2.58475034646519     -0.63418664068116     -0.05757387670605
  H   -1.25438522851020     -1.80981249507586     -0.05954875923527
  H   -1.58646739248520     -0.82776268520690     -1.51357524267299
  C   -0.63946138407902      0.30103047335518      1.54831268829377
  N   -0.70446996455973      0.29071632409262      2.72094843139258
  C   1.39924495862111     -1.11725063659368     -0.01833447112184
  N   1.87778651436417     -2.12253782248035      0.35587795829537
  N   1.60132293010729      1.30589083621999     -0.13767060123098
  O   1.79620097399997      2.11025392745583     -1.04030088315883
  O   1.97900705488793      1.37814130982486      1.02503780107315
