15
Coordinates from ORCA-job run
  C   -0.69241153663469      0.31326677245985     -0.33749067668152
  C   0.85136718084164      0.34398391215889     -0.47323320329163
  F   -1.15361971851646      0.47222502241015     -1.63512769364361
  H   1.13837461987577      1.28495371370947     -0.94686838017803
  C   -1.24986303380634     -0.97484392598123      0.22708225337225
  H   -0.91759705773253     -1.81466066951905     -0.38470721894547
  H   -0.92642938097039     -1.12884419889524      1.25603402685487
  H   -2.33887163892551     -0.91983977174616      0.19732860839095
  C   -1.12769449498218      1.47825925135531      0.44966107445856
  N   -1.49638555450050      2.39217950744129      1.08894499803898
  C   1.32794302151887     -0.79328973844260     -1.24650844147672
  N   1.69852144848656     -1.70431469024932     -1.88788634555848
  N   1.48700597367143      0.34463756161309      0.89731171927828
  O   1.59021927280886     -0.73890032897069      1.46173917132768
  O   1.81044089886552      1.44418758265622      1.33272010805369
