15
Coordinates from ORCA-job run
  C   -0.68736775246447      0.31671555851421     -0.34509271828900
  C   0.85484182066141      0.30381680792362     -0.49399607154416
  F   -1.15610598890884      0.43438015760165     -1.64470075822471
  H   1.16075952860889      1.21738219800310     -1.00780434996206
  C   -1.27137262602503     -0.93312153885167      0.27580473075829
  H   -0.94296307293846     -1.05282066919034      1.30775653964332
  H   -0.96525117119484     -1.80520003855199     -0.30361010079768
  H   -2.35895035535567     -0.85232920160144      0.25223703486623
  C   -1.08780503823666      1.52224307300107      0.39828697547754
  N   -1.43027809287826      2.46569923486906      1.00835456921723
  C   1.29761811337757     -0.87528680129876     -1.22373950066224
  N   1.64063740921212     -1.82132639799250     -1.82882295374482
  N   1.50299052001903      0.34440320632697      0.87037265805096
  O   1.58565276148359     -0.71761455463984      1.47760041844288
  O   1.85859394463966      1.45205896588686      1.25735352676823
