15
Coordinates from ORCA-job run
  C   -0.69863717038274      0.31468296201256     -0.31933524255759
  C   0.84302014132187      0.31578742059595     -0.48025291129665
  F   -1.17858779052928      0.28371969970400     -1.62297029392939
  H   1.16391192773650      1.27754830754779     -0.89382679189855
  C   -1.22133835412594     -0.89716442006513      0.42173607049563
  H   -0.92337154866137     -0.87378906963806      1.47009328516577
  H   -2.31064197484149     -0.89329121953797      0.36660826732255
  H   -0.84825040087786     -1.80622590049598     -0.05394972656096
  C   -1.16863230777062      1.57328679004248      0.27769825189177
  N   -1.60158081206718      2.57556892768383      0.71034544741631
  C   1.25961132223389     -0.77077501402762     -1.35601573494145
  N   1.56320314916912     -1.64465161989668     -2.07915834587331
  N   1.53797387438546      0.19484074404306      0.86505702779512
  O   2.53543428323739     -0.50977089398212      0.92480299419790
  O   1.04888566117225      0.86023328601391      1.77016770277283
