15
Coordinates from ORCA-job run
  C   -0.69326449280741      0.31699796019009     -0.33122169895704
  C   0.84739303247189      0.31812058717195     -0.49787357718822
  F   -1.17761197717717      0.45292858110107     -1.62333672455241
  H   1.14117900170679      1.24310673499229     -0.99811670580765
  C   -1.26129560251673     -0.94739986745611      0.27467220098893
  H   -2.34961371967135     -0.87397880835468      0.26428542579974
  H   -0.95572114427801     -1.80700405765047     -0.32335418240365
  H   -0.92064738495289     -1.08270061746255      1.30065713118637
  C   -1.09334579428631      1.50771201102629      0.43581990114944
  N   -1.43415263177402      2.44142485907241      1.06163729609131
  C   1.28972963117395     -0.84441516553650     -1.25376469138840
  N   1.63197941272442     -1.77629059562679     -1.88079066724323
  N   1.50986911799842      0.33898379135517      0.86020031896248
  O   1.60506616772523     -0.73289943195697      1.44776701156906
  O   1.86043638366316      1.44241401913481      1.26341896179328
