15
Coordinates from ORCA-job run
  C   -0.65407448069417      0.27162987089814      0.04791658138151
  C   0.79606238453749      0.10859914354379     -0.44393402174724
  F   -1.05950049200631      1.52354975236398     -0.38344067488434
  H   0.79563322446317      0.17731060900210     -1.53395552542245
  C   -1.55736769163788     -0.78020894815726     -0.56673575320614
  H   -2.58529069102522     -0.58111638380906     -0.26128219280012
  H   -1.27631484589529     -1.78050497452862     -0.23412910000489
  H   -1.49400075194258     -0.72156350921026     -1.65522694883772
  C   -0.73847660064067      0.23644611929641      1.51619074930303
  N   -0.88340312614395      0.17204518350805      2.67993309267560
  C   1.38049315162173     -1.14157018047803      0.01436511443224
  N   1.82374836800588     -2.17115584579770      0.36521808439060
  N   1.62791203372377      1.27915752321047      0.03720011695718
  O   1.92699533599863      1.28424608252921      1.22465822773721
  O   1.89858418163541      2.12313555762869     -0.80777774997448
