15
Coordinates from ORCA-job run
  C   -0.63081934154448      0.29196688927891     -0.14452914587662
  C   0.80821659727171     -0.19963179691650     -0.38642945001274
  F   -0.92928730182886      1.12297837347601     -1.21138160299879
  H   0.82876335847920     -0.74136355775808     -1.33459705598656
  C   -1.60651831177218     -0.86911847083593     -0.13316508794548
  H   -1.52347750511428     -1.42209677668809     -1.07100008838171
  H   -1.41096864203241     -1.53640128862908      0.70749235091676
  H   -2.61939343164514     -0.47460026267107     -0.04379305839540
  C   -0.73813888512210      1.07336224880493      1.09728006170845
  N   -0.90413121242101      1.66521410749838      2.09807606377324
  C   1.28435383415362     -1.02515445808945      0.71201503112362
  N   1.63771960328646     -1.71885567326843      1.59158013059895
  N   1.72406428531396      0.99090699289986     -0.57834548721618
  O   2.00604909684594      1.63000204653281      0.42742496513258
  O   2.07356785612956      1.21379162636573     -1.73062762644014
