15
Coordinates from ORCA-job run
  C   -0.68052071165164      0.32133945687530     -0.35319991011522
  C   0.86380245520690      0.29737624334183     -0.48219985095055
  F   -1.13099828694877      0.44139432210395     -1.65903654599061
  H   1.18238751596440      1.20893197448206     -0.99185004983451
  C   -1.28162851975601     -0.92397062784324      0.26016303440674
  H   -2.36817320230846     -0.83421700561318      0.22461898749966
  H   -0.96552680780457     -1.04818843374725      1.29542542248397
  H   -0.97633723536304     -1.79760897338409     -0.31744863451419
  C   -1.08131695747752      1.53120212474525      0.38277738260630
  N   -1.42338140875996      2.48180459942741      0.98198672997646
  C   1.30658052318744     -0.88504169353569     -1.20629388415890
  N   1.65033701731412     -1.83289796939879     -1.80811053395949
  N   1.49374510891079      0.33281831762520      0.89065575235523
  O   1.85080192782367      1.43790428411042      1.28366590391703
  O   1.55922858166264     -0.72984661918916      1.49884619627808
