15
Coordinates from ORCA-job run
  C   -0.71194565339770      0.28403621594366     -0.32227458583603
  C   0.82306920643802      0.33093587692459     -0.52837850726785
  F   -1.23190432379082      0.36421770274905     -1.60513380457738
  H   1.07307499624071      1.25001450643518     -1.06215953498990
  C   -1.22196489308908     -0.97905371552871      0.33559505037211
  H   -2.31213057772786     -0.94350376809536      0.34776685025886
  H   -0.85470975529376     -1.06927303569423      1.35733962756501
  H   -0.89935301907111     -1.84655260240763     -0.24165706891865
  C   -1.13273618283144      1.48412175001960      0.41865568893644
  N   -1.48814508093213      2.42645405129627      1.02316136781178
  C   1.28520918934559     -0.83816845597678     -1.26221440044204
  N   1.64221105415715     -1.77756956262317     -1.86957787016141
  N   1.51952061648609      0.41265752332586      0.81048373558860
  O   1.66380924229591     -0.63779640401296      1.42590853016219
  O   1.84699518117041      1.53747991764463      1.17148492149829
