15

C	0.0	0.0	0.0
C	-0.147387	0.068931	-1.55095
Cl	1.858126	0.0	0.0
H	0.382546	-0.77432	-1.989999
H	0.275398	1.007689	-1.901142
N	-0.541896	1.073312	0.736604
H	-0.267942	1.955526	0.319137
H	-1.581061	0.883331	0.569815
N	-0.4495	-1.254378	0.51004
H	-1.14794	-1.026454	1.207423
H	-0.993902	-1.706216	-0.214308
N	-1.516804	0.000558	-2.139079
O	-2.050792	1.060382	-2.451631
O	-1.9503	-1.121547	-2.392587
F	-2.749264	0.0	0.0
