15

C	0.0	0.0	0.0
C	-0.155499	0.024591	-1.550741
Cl	1.858123	0.0	0.0
H	0.225976	-0.910606	-1.956055
H	0.408168	0.867478	-1.946811
N	-0.446394	1.219681	0.590798
H	-1.150225	0.949301	1.268183
H	-0.980328	1.724552	-0.106928
N	-0.538834	-1.116546	0.673476
H	-1.58021	-0.919347	0.515729
H	-0.264404	-1.971177	0.203488
N	-1.521566	0.19085	-2.128426
O	-2.082714	-0.811245	-2.557113
O	-1.918225	1.346927	-2.265214
F	-2.743233	0.0	0.0
