15

C	0.0	0.0	0.0
C	-0.474294	0.195171	-1.441076
Cl	1.819037	0.0	0.0
H	-0.127134	-0.639434	-2.041851
H	-1.56814	0.25222	-1.353311
N	-0.454019	1.096615	0.811082
H	-0.209905	0.886585	1.774563
H	-1.48127	1.002763	0.712761
N	-0.477912	-1.322592	0.350505
H	-0.202592	-1.500633	1.312601
H	-1.504038	-1.150462	0.335792
N	0.037497	1.421576	-2.095724
O	-0.43921	2.505041	-1.768041
O	0.900778	1.276701	-2.967612
F	-2.816438	0.0	0.0
