15

C	0.0	0.0	0.0
C	-0.484717	-0.062048	-1.458019
Cl	1.784154	0.0	0.0
H	-1.578671	-0.109551	-1.355688
H	-0.130844	0.813996	-1.998504
N	-0.487756	1.214339	0.615005
H	-0.218196	2.019617	0.056951
H	-1.514193	1.073004	0.538635
N	-0.482861	-1.156827	0.693605
H	-1.507524	-1.0597	0.573035
H	-0.280174	-0.994781	1.676139
N	-0.000926	-1.232482	-2.227346
O	0.943366	-1.052956	-3.005522
O	-0.571166	-2.309479	-2.066721
F	-2.839517	0.0	0.0
