15

C	0.0	0.0	0.0
C	-0.14856	-0.016375	-1.563412
Cl	1.857078	0.0	0.0
H	0.212036	0.927184	-1.972052
H	0.432995	-0.843536	-1.967811
N	-0.515369	1.157792	0.633918
H	-0.285088	1.97275	0.076246
H	-1.546335	0.980679	0.56349
N	-0.505694	-1.155998	0.647031
H	-1.534738	-0.977451	0.599748
H	-0.306428	-1.967175	0.072757
N	-1.509571	-0.215101	-2.139118
O	-2.088528	0.771413	-2.583242
O	-1.892238	-1.377418	-2.247488
F	-2.767839	0.0	0.0
