15

C	0.0	0.0	0.0
C	-0.172045	0.020984	-1.548578
Cl	1.857103	0.0	0.0
H	0.412652	0.834597	-1.972538
H	0.166455	-0.928716	-1.95344
N	-0.481421	1.149772	0.679301
H	-0.563302	1.919039	-0.006102
H	-1.478294	0.905881	0.882118
N	-0.434649	-1.178368	0.655287
H	-1.465097	-1.094659	0.541465
H	-0.094073	-1.986322	0.149065
N	-1.537556	0.22568	-2.114425
O	-1.900036	1.393329	-2.244019
O	-2.121722	-0.757254	-2.557414
F	-2.716817	0.0	0.0
