16

C	0.0	0.0	0.0
C	-0.575163	0.025685	-1.414995
Br	1.969098	0.0	0.0
H	-0.293685	-0.882304	-1.958041
H	-1.678223	0.02036	-1.204774
C	-0.47246	1.22676	0.766439
H	-0.11278	1.193085	1.798817
H	-0.116802	2.148547	0.297205
H	-1.569022	1.159747	0.730009
C	-0.482779	-1.270553	0.682447
H	-1.579098	-1.192436	0.653204
H	-0.134931	-2.160814	0.14843
H	-0.119611	-1.313659	1.713108
C	-0.183284	1.187811	-2.1974
N	0.148232	2.119696	-2.832077
F	-2.980752	0.0	0.0
