16

C	0.0	0.0	0.0
C	-0.582728	0.049689	-1.411313
Br	1.969073	0.0	0.0
H	-0.313707	-0.84833	-1.975586
H	-1.685347	0.045907	-1.18162
C	-0.477866	1.207914	0.790915
H	-1.573585	1.130257	0.755787
H	-0.114203	1.159685	1.821052
H	-0.133832	2.142155	0.34004
C	-0.487218	-1.281907	0.657719
H	-0.127287	-1.347871	1.687895
H	-1.582945	-1.194185	0.626061
H	-0.14412	-2.164015	0.108744
C	-0.204619	1.227722	-2.177472
N	0.101148	2.179178	-2.796114
F	-2.987424	0.0	0.0
