16

C	0.0	0.0	0.0
C	-0.584284	-0.106246	-1.406766
Br	1.969107	0.0	0.0
H	-1.687112	-0.083651	-1.175616
H	-0.315117	-1.06139	-1.868695
C	-0.476883	1.288279	0.652884
H	-0.11306	1.353113	1.681717
H	-1.572647	1.208016	0.626587
H	-0.132289	2.166793	0.101528
C	-0.486662	-1.201135	0.796036
H	-0.126165	-1.152298	1.826907
H	-1.582433	-1.117707	0.755819
H	-0.143605	-2.138291	0.347826
C	-0.206732	0.979876	-2.298285
N	0.088133	1.854037	-3.026801
F	-2.987758	0.0	0.0
