13
Coordinates from ORCA-job run
  C   1.12479967539021      0.09370690818632      0.01556606626542
  C   -0.38754920555437      0.04148865338929      0.30073774917905
  Br  1.52318464879809     -0.14401885832320     -1.87782064945519
  H   -0.48967703338879      0.22209275438080      1.37912583813504
  H   1.60792163863601     -0.74216207962320      0.52775932434725
  C   1.71118720639388      1.34449991184006      0.47827553566752
  N   2.16444804583357      2.35058045072355      0.88188860204409
  C   -1.00659160517164     -1.31675973867525     -0.03506635528388
  H   -0.96231793324620     -1.51123912842170     -1.10633460338000
  H   -0.47422572900784     -2.11185859847653      0.49255591586986
  H   -2.05172042749721     -1.33443314265824      0.27741570487526
  C   -1.08484107087860      1.12808101490833     -0.38987240482599
  N   -1.67361821030710      1.98002185274975     -0.94323072343843
