13
Coordinates from ORCA-job run
  C   1.10314054884034      0.33469164447412      0.40656958538049
  C   -0.39022932726299     -0.01418677544498      0.57964429724348
  Br  2.22492482454384     -1.17108962418645      0.94088097054048
  H   -0.51767931012104     -0.36057793370466      1.61120704923932
  H   1.37599182824284      1.15032714689546      1.07919185905870
  C   1.41251916117482      0.71429171575673     -0.96544278690571
  N   1.63711684919443      1.02189855952925     -2.07705746606389
  C   -0.88690710765797     -1.08388266747819     -0.39377453005489
  H   -0.77887236898258     -0.74609721528117     -1.42603969698768
  H   -1.94158934574942     -1.29150508462110     -0.20746070118494
  H   -0.32230883451291     -2.00697608539417     -0.25995247740597
  C   -1.15564353333126      1.22718545485415      0.42428996172655
  N   -1.76046338437809      2.22492086460101      0.28894393541407
