13
Coordinates from ORCA-job run
  C   1.08573294649139      0.34128782885065      0.44806193223846
  C   -0.40747625413776     -0.03048086001495      0.56660366275207
  Br  2.21041254644490     -1.15873630523438      0.99263347673400
  H   -0.56269396778220     -0.40011832554750      1.58620935831102
  H   1.32574397114518      1.14849361849845      1.14297452559006
  C   1.43319342657387      0.74849246184080     -0.90675830018782
  N   1.68230750208567      1.07624085609417     -2.00733898036677
  C   -0.85882732833087     -1.08571993007072     -0.44393203139660
  H   -0.72916006458556     -0.72257056048976     -1.46495805345213
  H   -1.91434008561686     -1.31555958784699     -0.29125318099458
  H   -0.28156409741889     -2.00161018908634     -0.31543842554065
  C   -1.18443333602384      1.20400948296633      0.41368202982141
  N   -1.79889525884503      2.19627151004025      0.28151398649155
