13
Coordinates from ORCA-job run
  C   1.01893003546513      0.52066730039932      0.17901402715647
  C   -0.34565270268061     -0.13651224527617      0.46007050317058
  Br  1.91011275921766      1.02923625739829      1.83640170403273
  H   -0.17542790433077     -0.99326365233286      1.12113183297926
  H   0.87920467624197      1.44680270452724     -0.38417509005069
  C   1.88291311137983     -0.38068119052556     -0.57154044198925
  N   2.55025714532500     -1.12719076843020     -1.18649481699717
  C   -1.01798719139694     -0.60239610585515     -0.83738678999687
  H   -0.40724233206521     -1.35766422716720     -1.33397163091980
  H   -1.99311203138737     -1.03709717020914     -0.61298845423245
  H   -1.16800307244782      0.23820456211618     -1.51848301899685
  C   -1.20695363189503      0.81693309584520      1.16275006801755
  N   -1.92703886142584      1.58296143951006      1.68567210782648
