13
Coordinates from ORCA-job run
  C   1.01516343140620      0.53009313583017      0.17225105094724
  C   -0.33857748508106     -0.14555940876038      0.46176271038624
  Br  1.91860990808889      1.03378544713086      1.82461321389006
  H   -0.15047708659355     -1.00913691534833      1.10891225599382
  H   0.85908788512227      1.45942333590850     -0.38133241342202
  C   1.88137374392003     -0.35549468479016     -0.59464769804183
  N   2.55076898536147     -1.08984414861719     -1.22169304079892
  C   -1.02146427250297     -0.60184551265528     -0.83363083431855
  H   -0.40983979316183     -1.34560998046404     -1.34619254513232
  H   -1.18629316301172      0.24578954454345     -1.50243237053631
  H   -1.99021891826158     -1.04777964041089     -0.60378728969191
  C   -1.20185488775385      0.78834484465546      1.18770266942222
  N   -1.92527834753229      1.53783398297784      1.72947429130227
