13
Coordinates from ORCA-job run
  C   0.96731695569605      0.63698381813827     -0.01591844602568
  C   -0.28442139755729     -0.09044876329920      0.51034352355416
  Br  1.94635724959383      1.49351881253033      1.43580051883937
  H   0.04007855796465     -0.80707468830342      1.27268811228330
  H   0.67484223993027      1.44015518368461     -0.69694660096618
  C   1.85238116540125     -0.29071081235388     -0.70762912687284
  N   2.53878825420191     -1.06325548359979     -1.26680649031847
  C   -1.01831373634234     -0.82466341378157     -0.61876585973686
  H   -1.91680604026328     -1.30290014089122     -0.22610939883463
  H   -0.37797231662370     -1.59316377980928     -1.05395089111023
  H   -1.31872175619484     -0.12582236115742     -1.40259528566667
  C   -1.17708321049319      0.87962911457813      1.14799396502653
  N   -1.92744596531332      1.64775251426445      1.62289597982819
