13
Coordinates from ORCA-job run
  C   1.12250433945438      0.10269853860893      0.04748294399885
  C   -0.40333192127005      0.11717965950410      0.25624615265263
  Br  1.61832406793395     -0.61914118197222     -1.69397911805847
  H   -0.56125158032676      0.57891864543819      1.23997379395532
  H   1.57192383881150     -0.56692335553014      0.78516567520282
  C   1.69259761527959      1.43494277220754      0.19876214575685
  N   2.12885553490326      2.51472371655404      0.35461197686873
  C   -1.01245163954963     -1.28617895836757      0.26408467832187
  H   -0.51888422226296     -1.90409493440840      1.01816842302137
  H   -0.90589899740528     -1.76295204774269     -0.70997988967175
  H   -2.07447448667008     -1.22745646208614      0.50699441906203
  C   -1.05420196322389      0.97426087668719     -0.73643576648657
  N   -1.60171058567402      1.64302273110718     -1.53109543462367
