13
Coordinates from ORCA-job run
  C   1.00697721840168      0.57071080866789      0.04564671424544
  C   -0.30632809315793     -0.09651816274206      0.49601242083362
  Br  1.98971148444879      1.28934895525825      1.56811057901194
  H   -0.05439776595725     -0.87065198651170      1.22901962859932
  H   0.79121208627523      1.42328390864194     -0.60314090198088
  C   1.85288590317898     -0.38014754729944     -0.66339375258587
  N   2.50520618318492     -1.16970286205092     -1.23940858907089
  C   -1.04925693954778     -0.72207824348542     -0.69117323915585
  H   -1.98845904535310     -1.16020387959529     -0.35037039451271
  H   -0.44576180481404     -1.50721041843779     -1.14873797136500
  H   -1.27946236835875      0.03468614938032     -1.44438676641094
  C   -1.15454017961205      0.89771635821384      1.15667002390577
  N   -1.86878667868869      1.69076691996039      1.64615224848604
