13
Coordinates from ORCA-job run
  C   1.11756257915036      0.01624514747539     -0.15134669720604
  C   -0.33579254697925      0.04464970336143      0.35701124706777
  Br  1.21338751138469     -0.09917345027002     -2.09473396298666
  H   -0.26359548475327      0.14887897402024      1.44784289363949
  H   1.60343579123160     -0.88788518624481      0.22416982566856
  C   1.86309599243559      1.18354866269463      0.30055786475312
  N   2.45254917453484      2.11794560116073      0.70068579975091
  C   -1.10154070524591     -1.23936604793623      0.03230788772205
  H   -0.56276089266693     -2.10539382438253      0.42427907766268
  H   -2.08893370534205     -1.20850835168970      0.49524018081858
  H   -1.22705991644949     -1.35747052978307     -1.04359592036549
  C   -1.03869707704368      1.22634028726742     -0.14634523598744
  N   -1.62965072025650      2.15918901432651     -0.54507296053751
