13
Coordinates from ORCA-job run
  C   1.09582407223641      0.37138641909300      0.39638030653785
  C   -0.38794084138177     -0.01127733312515      0.58148947206720
  Br  2.25635059874971     -1.09317642037788      0.96208416082007
  H   -0.50363035788110     -0.34125074485078      1.61978108680655
  H   1.34991068901375      1.20899735673644      1.04895665800175
  C   1.39213106164967      0.72541714892806     -0.98520381393410
  N   1.60038115400635      1.00803821252509     -2.10663367290195
  C   -0.86051361764139     -1.11131461044686     -0.36996932223816
  H   -1.90894090202406     -1.34208839419601     -0.17581314747984
  H   -0.27206908495498     -2.01711263698022     -0.22132223029722
  H   -0.76448484489823     -0.79019785553694     -1.40861328073552
  C   -1.18436325471388      1.20760430099875      0.40593435541802
  N   -1.81465467216049      2.18697455723250      0.25392942793535
