13
Coordinates from ORCA-job run
  C   1.00350688441164      0.57403811110229      0.06357717702855
  C   -0.30605024297908     -0.11419603336315      0.49270276538991
  Br  1.98434563430360      1.24668262112332      1.60806282580636
  H   -0.05020938589328     -0.91008558309070      1.20059555855932
  H   0.78248042064188      1.44655935669787     -0.55618903422933
  C   1.85398908167119     -0.34832417102693     -0.67698252489225
  N   2.51122066326096     -1.11419086847643     -1.27868263283301
  C   -1.04592471356769     -0.70544382605024     -0.71383599934507
  H   -1.98391220525845     -1.15692551117282     -0.38748954292563
  H   -0.43939353788056     -1.47425525783093     -1.19456003745019
  H   -1.27801418372404      0.07310126701658     -1.44393189509841
  C   -1.15883771649856      0.85446120384298      1.18496085196684
  N   -1.87420069848762      1.62757869122815      1.70377248802291
