13
Coordinates from ORCA-job run
  C   1.11757020397395      0.13264786550635      0.07392099168085
  C   -0.41251953837851      0.10632088300507      0.24591676293236
  Br  1.67409137667013     -0.57297360045695     -1.65583595789402
  H   -0.60643547173231      0.56208739478753      1.22599155804964
  H   1.56656977597641     -0.52636418968462      0.82134670897113
  C   1.64912653859620      1.47879085208800      0.24149973940397
  N   2.05469966405427      2.56824205203197      0.41248283608489
  C   -0.98388660894315     -1.31292024077287      0.23776092734415
  H   -0.48715581062788     -1.92077192613802      0.99773435337980
  H   -0.84792748600702     -1.78262672577749     -0.73591987948954
  H   -2.05097211136421     -1.28347805440545      0.46253227031923
  C   -1.06246985335297      0.94728624805802     -0.76116877657534
  N   -1.60969067886491      1.60375944175844     -1.56626153420710
