13
Coordinates from ORCA-job run
  C   1.12040708053071      0.11541822718354      0.07245597508826
  C   -0.40798404706354      0.08778632705770      0.26027747622392
  Br  1.65068788260078     -0.44999622824556     -1.71620768073306
  H   -0.58570182549148      0.46058819375480      1.27783262963928
  H   1.57224126059654     -0.60602833314864      0.75790801032446
  C   1.66460659797398      1.43984220636779      0.34126308782277
  N   2.07766083390439      2.51147562647783      0.58957496225462
  C   -0.99384630434521     -1.32023651939553      0.13928482843153
  H   -0.50113194956104     -1.99234405600053      0.84588663489902
  H   -2.06002180674867     -1.29895168973578      0.36942074821026
  H   -0.86546045855554     -1.71065642319991     -0.86981108627392
  C   -1.06077111619622      1.01751977105306     -0.66347474235839
  N   -1.61068614764472      1.74558289783122     -1.40241084352876
