15

C	-0.236438	-0.131344	-1.484981
C	0.0	0.0	0.0
Cl	-0.41468	1.660848	-2.116906
H	1.088114	0.0	0.0
H	-0.432819	0.88032	0.456311
N	0.761219	-0.846548	-2.083042
H	1.672462	-0.671243	-1.623874
H	0.760259	-0.820332	-3.09152
N	-1.614217	-0.680468	-1.874341
O	-1.71511	-1.170092	-2.993853
O	-2.516129	-0.569394	-1.055923
N	-0.43324	-1.163005	0.776196
O	-0.413901	-2.272761	0.244598
O	-0.725309	-0.95552	1.956867
H	2.660618	0.0	0.0
