15

C	-0.372039	0.186725	-1.456043
C	0.0	0.0	0.0
Cl	-2.038256	0.829357	-1.632502
H	1.091031	0.0	0.0
H	-0.309645	0.887873	0.54971
N	0.550234	1.078527	-2.100277
H	0.359572	2.017963	-1.771055
H	1.485367	0.8181	-1.753627
N	-0.279989	-1.137543	-2.240937
O	0.868176	-1.497791	-2.453209
O	-1.300741	-1.711389	-2.589119
N	-0.543675	-1.146667	0.703726
O	-0.515464	-2.245499	0.13941
O	-0.91326	-0.97201	1.87227
H	2.609979	0.0	0.0
