15

C	-0.503301	0.014515	-1.418164
C	0.0	0.0	0.0
Cl	-0.178748	1.638734	-2.10955
H	1.090315	0.0	0.0
H	-0.315126	0.882487	0.548041
N	0.038309	-0.959823	-2.25603
H	-0.409527	-0.945302	-3.163343
H	-0.059131	-1.861685	-1.803666
N	-2.094679	-0.034201	-1.419572
O	-2.620971	-0.56723	-2.39234
O	-2.69164	0.469434	-0.477296
N	-0.438402	-1.15021	0.737491
O	-0.813499	-2.171426	0.116319
O	-0.296324	-1.113058	1.967934
H	2.481469	0.0	0.0
