15

C	-0.664509	-0.008822	-1.347349
C	0.0	0.0	0.0
Cl	-0.009279	-1.503269	-2.213455
H	1.087945	0.0	0.0
H	-0.280578	-0.911445	0.530933
N	-2.066887	0.01474	-1.27424
H	-2.489039	-0.00872	-2.193031
H	-2.400667	-0.741074	-0.692889
N	-0.23914	1.12683	-2.282112
O	0.875447	1.594495	-2.14245
O	-1.054924	1.422649	-3.154956
N	-0.455031	1.116773	0.811084
O	-0.606915	2.217642	0.262604
O	-0.539988	0.924352	2.032323
H	2.57456	0.0	0.0
