15

C	-0.272375	0.205123	-1.481717
C	0.0	0.0	0.0
Cl	-1.884682	1.034701	-1.789452
H	1.091076	0.0	0.0
H	-0.406162	0.832158	0.566406
N	0.771942	0.95963	-1.977507
H	0.832062	0.956569	-2.983588
H	1.665268	0.696002	-1.518312
N	-0.464675	-1.169304	-2.235661
O	0.432657	-1.47664	-3.013101
O	-1.474545	-1.816307	-2.003861
N	-0.478254	-1.238526	0.598882
O	0.025867	-2.287524	0.191996
O	-1.277323	-1.160536	1.539545
H	2.650237	0.0	0.0
