15

C	-0.582263	-0.015239	-1.390725
C	0.0	0.0	0.0
Cl	0.345379	-1.001447	-2.547424
H	1.085217	0.0	0.0
H	-0.359376	0.872973	0.541909
N	-1.933908	-0.432178	-1.423746
H	-2.328426	-0.282287	-2.343816
H	-2.470194	0.057455	-0.717378
N	-0.454518	1.437337	-1.964858
O	-1.139391	1.672664	-2.958145
O	0.284622	2.234843	-1.402158
N	-0.448024	-1.172767	0.742473
O	-1.079856	-0.980597	1.795789
O	-0.106016	-2.281561	0.324925
H	2.608103	0.0	0.0
