17

C	-0.387952	-0.016353	-1.477139
C	0.0	0.0	0.0
Cl	-2.205885	-0.23404	-1.650134
H	1.092178	0.0	0.0
C	-0.06073	1.194425	-2.23192
N	0.175669	2.064841	-2.986152
C	0.314637	-1.191565	-2.142022
H	-0.042837	-2.127383	-1.713488
H	0.131081	-1.191205	-3.217569
H	1.385056	-1.082085	-1.926146
N	-0.363428	-1.151512	0.735928
H	0.420805	-1.788524	0.780761
H	-1.220249	-1.598602	0.447621
N	-0.503351	1.243738	0.653778
O	-0.112899	2.304114	0.157397
O	-1.230581	1.161243	1.643067
H	2.612208	0.0	0.0
