17

C	-0.521609	-0.091979	-1.44996
C	0.0	0.0	0.0
Cl	0.067651	1.27831	-2.454938
H	1.090317	0.0	0.0
C	0.01682	-1.324184	-2.036438
N	0.320874	-2.307853	-2.603109
C	-2.042531	-0.126216	-1.552904
H	-2.457652	0.80399	-1.16451
H	-2.412241	-0.965683	-0.963352
H	-2.350361	-0.251163	-2.594263
N	-0.448501	-1.158693	0.716702
H	0.325664	-1.462836	1.300224
H	-1.256774	-0.937057	1.285944
N	-0.509568	1.263109	0.604533
O	0.15127	2.286416	0.426122
O	-1.579251	1.220031	1.245845
H	2.650271	0.0	0.0
