17

C	-0.493082	0.035248	-1.459517
C	0.0	0.0	0.0
Cl	0.063508	-1.500487	-2.229266
H	1.090378	0.0	0.0
C	-1.959707	0.013062	-1.489442
N	-3.135278	0.049038	-1.486624
C	0.065755	1.177712	-2.301122
H	-0.35808	2.13004	-1.989826
H	-0.16828	0.997809	-3.352173
H	1.14731	1.200456	-2.150857
N	-0.472024	-1.147609	0.697638
H	-1.278235	-0.912332	1.261682
H	0.27555	-1.460949	1.30757
N	-0.375322	1.272249	0.690665
O	-1.060657	1.20989	1.722344
O	0.098314	2.322721	0.247189
H	2.607398	0.0	0.0
