17

C	-0.424742	0.040459	-1.490901
C	0.0	0.0	0.0
Cl	0.077052	-1.540319	-2.215921
H	1.090272	0.0	0.0
C	-1.883035	0.100918	-1.626684
N	-3.053212	0.165523	-1.715374
C	0.274291	1.143779	-2.272679
H	-0.092612	2.119599	-1.959175
H	1.34139	1.074986	-2.044063
H	0.095436	1.010762	-3.341398
N	-0.449111	-1.09704	0.778117
H	-1.368781	-1.437358	0.534309
H	0.242873	-1.831755	0.720717
N	-0.487261	1.277264	0.617073
O	-1.485666	1.234901	1.339903
O	0.143984	2.304636	0.358573
H	2.701678	0.0	0.0
