9
Coordinates from ORCA-job run
  C   0.79853781186836     -0.25622381216585      0.20178013018094
  C   -0.49079000013453      0.15381358464826      0.24748479623402
  H   1.49361365953002     -0.03407630079159      1.00607777341034
  H   -1.15576366980121     -0.07947440029334     -0.58004873986302
  C   1.29301798184985     -0.97956109092444     -0.91798655834533
  N   1.70850249704411     -1.58275951321876     -1.83874769900483
  N   -1.05076858706500      0.92684251644950      1.23172678366560
  H   -0.54884809486212      0.98758236678181      2.10324150564773
  H   -2.04850159842947      0.86385664951440      1.33847200807454
