9
Coordinates from ORCA-job run
  C   0.66551059486179      0.05549457903593     -0.20874503406953
  C   -0.36766641333221     -0.15647653290349      0.63990275991042
  H   1.09103522099994      1.04475718136256     -0.34896510272698
  H   -0.76231405146794     -1.16193422699743      0.76129592923427
  C   1.24391424135605     -1.02156187513987     -0.93469668584717
  N   1.72479873347893     -1.90663301058660     -1.54271296196181
  N   -0.94420381690659      0.78683729081686      1.45086328503214
  H   -0.76367351646056      1.75210029875780      1.22541149965947
  H   -1.88740099252941      0.60641629565425      1.74864631076919
