9
Coordinates from ORCA-job run
  C   0.75127848165259     -0.37086541707301      0.19978172674974
  C   -0.49496207396696      0.15223824737639      0.27583109696892
  H   1.39967338638278     -0.41993342154382      1.06965021982289
  H   -1.11967009067939      0.17755770518701     -0.61336198010917
  C   1.25087820873440     -0.88819323418923     -1.02667638884843
  N   1.67468953113893     -1.31409113016900     -2.03824705607515
  N   -1.10590513470519      0.60076407423747      1.41884121597798
  H   -1.84888240914272      1.26727222785861      1.29760492243071
  H   -0.50809989941445      0.79425094831559      2.20657624308251
