9
Coordinates from ORCA-job run
  C   0.44630710685981     -0.95900113129728      0.15349797280601
  C   -0.64869824429454     -0.33870410922887      0.66057931475414
  H   0.55111185472823     -2.03298603023663      0.22342583096011
  H   -1.41635309805189     -0.93523918489156      1.14495393015359
  C   1.46878934867729     -0.19949952327228     -0.47794183427215
  N   2.28261294438799      0.48633844788162     -0.98175771863064
  N   -0.93573520561881      0.99345411837139      0.55582002764630
  H   -1.56581717910078      1.38274762258503      1.23496799813664
  H   -0.18121752758730      1.60388979008859      0.27945447844600
