9
Coordinates from ORCA-job run
  C   0.44247473758348     -0.95237004626738      0.10810773021908
  C   -0.54389245961646     -0.33798369198247      0.80837348502380
  H   0.60551087679835     -2.01683937766673      0.20646159343326
  H   -1.16474177828837     -0.92913956423756      1.47528139167890
  C   1.27381568861447     -0.19948683123364     -0.76545708748309
  N   1.93245807798358      0.48052533104784     -1.46579125979978
  N   -0.90212243250271      0.97663150225935      0.70308623538690
  H   -0.25111047609289      1.59398165178898      0.24130528544421
  H   -1.39139223447946      1.38368102629163      1.48063262609672
