9
Coordinates from ORCA-job run
  C   0.50888126965266     -0.93148369393371      0.18155104417668
  C   -0.45172377857261     -0.30832269705002      0.90952765948427
  H   0.72677476136542     -1.97865141244862      0.34071502259416
  H   -1.00489280772908     -0.87776041036049      1.65073683165337
  C   1.24129958557610     -0.21064384507246     -0.80076285173430
  N   1.80655187344468      0.43908424987172     -1.60391988513553
  N   -0.75567059215702      1.02318139403027      0.86238530040247
  H   -1.67053834469907      1.29778074948362      1.17446150771455
  H   -0.40068196688110      1.54681566547970      0.07630537084432
