9
Coordinates from ORCA-job run
  C   0.75565067718198      0.01668622117948     -0.06732594863041
  C   -0.49764540768639     -0.07735756307442      0.43573022343959
  H   1.42169540277566      0.82599735238380      0.21706530117597
  H   -1.14035033508586     -0.89540369529770      0.12122599358897
  C   1.23794215410133     -0.93672931861487     -1.00536270811418
  N   1.64910104579227     -1.72305004237391     -1.77807349772125
  N   -1.09281871094886      0.82905474954674      1.27489030533675
  H   -0.48379713511004      1.47407088333778      1.75255812166256
  H   -1.84977769102011      0.48673141291311      1.84129220926200
