9
Coordinates from ORCA-job run
  C   0.47620610389622     -0.94262000303257      0.14565305751128
  C   -0.45873685448739     -0.31372803024868      0.90124376112651
  H   0.65876162037927     -2.00164132036404      0.26602516726729
  H   -1.02685054575125     -0.89044376799633      1.62538656182942
  C   1.22858704211547     -0.21266565575966     -0.81467996520839
  N   1.81285797123081      0.44519699154732     -1.59736427852410
  N   -0.71808900646808      1.02811061170351      0.90326695041010
  H   -1.62243944168793      1.32088621802911      1.22906694101044
  H   -0.35029688922713      1.56690495612134      0.13340180457745
