9
Coordinates from ORCA-job run
  C   0.51767889163703     -0.91845612552862      0.19832437897722
  C   -0.49492802890750     -0.31762597011808      0.87112046228220
  H   0.77795152367719     -1.94793020734624      0.40308140744786
  H   -1.03005745296271     -0.87862875854214      1.63168962026173
  C   1.24766229064011     -0.20702572386615     -0.79225420333068
  N   1.83385081876603      0.38585387866680     -1.62344022872770
  N   -0.97724298640801      0.93978638097723      0.63887698018608
  H   -0.40908678551729      1.55208539066966      0.07282651328328
  H   -1.46682827092485      1.39194113508753      1.39077506962001
