9
Coordinates from ORCA-job run
  C   0.37994498152487     -0.95500998754635      0.04998263379646
  C   -0.64236184834749     -0.32891241924967      0.68395300366075
  H   0.39569677563194     -2.03305256595975     -0.03404010390497
  H   -1.45503257460086     -0.92348430397673      1.09089425530490
  C   1.45093226473826     -0.20467990086611     -0.50700667254933
  N   2.34193905704881      0.42522684923921     -0.94894947947718
  N   -0.72921210367988      1.01151176411636      0.93571555664112
  H   -1.64585736265447      1.39339818537029      1.08875751928673
  H   -0.09604918966118      1.61500237887277      0.43269328724152
