9
Coordinates from ORCA-job run
  C   0.57279972875314     -0.90099553373756      0.25888118820136
  C   -0.24176832530857     -0.17404126405835      1.06440664958270
  H   0.95511540588415     -1.85873794472269      0.58446821055430
  H   -0.51119095088793     -0.57132721986930      2.03869003216296
  C   0.93575273033393     -0.40753720605641     -1.02411070739314
  N   1.19160673739369      0.05011699365962     -2.07851900665812
  N   -0.71468985335568      1.08123767775049      0.80392811253306
  H   -0.64163023073714      1.41152542946409     -0.14676593875907
  H   -1.54599524207559      1.36975906757011      1.28902145977595
