9
Coordinates from ORCA-job run
  C   0.71129436086524     -0.43584219112451      0.17041439962401
  C   -0.48070015558656      0.19288646641251      0.29922163890147
  H   1.40612266178968     -0.51165368864359      1.00164091468513
  H   -1.15385688495447      0.24195448696592     -0.55272103791475
  C   1.08775695566758     -1.03636123297650     -1.06219782697950
  N   1.40960504341309     -1.53134679758524     -2.07991485378979
  N   -0.98124347699281      0.73032815375302      1.45704270946899
  H   -1.67410958498177      1.45170158097827      1.35453249185677
  H   -0.32386891921999      0.89733322222011      2.20198156414768
