9
Coordinates from ORCA-job run
  C   0.28911883497570     -0.94956133137668     -0.08907233318154
  C   -0.60781379477240     -0.33985823861388      0.72624449066090
  H   0.27318032091660     -2.02302989610710     -0.21866488870790
  H   -1.33887089376404     -0.94536704308777      1.25406915190320
  C   1.26046167350534     -0.17860164827526     -0.78401446263729
  N   2.04304938652233      0.51537913390688     -1.32490731024277
  N   -0.74355243181896      1.00849672975423      0.90137782011701
  H   -1.18838016747051      1.32133702661056      1.74616543556295
  H   0.01380707190594      1.59220526718901      0.57880209652544
