9
Coordinates from ORCA-job run
  C   0.44788715430744     -0.95408896080377      0.12868736475182
  C   -0.54145349713407     -0.33001132733222      0.81636968343793
  H   0.61752353358772     -2.01502346648301      0.25092538266259
  H   -1.15784712333479     -0.90987905384646      1.49708814666943
  C   1.27458600327922     -0.21547564404363     -0.76141086339597
  N   1.92873035939005      0.45301691407797     -1.47686423745194
  N   -0.90752410929822      0.97962970650946      0.68218650670955
  H   -1.40009070895422      1.40151887300706      1.44965878926527
  H   -0.26181161184312      1.59031295891458      0.20435922735132
