9
Coordinates from ORCA-job run
  C   0.77960276538235     -0.30301047978918      0.19236279989383
  C   -0.51053117716914      0.09373332840179      0.29542688901754
  H   1.48604615463783     -0.15111978333962      1.00323779237320
  H   -1.19282068894949     -0.08305531034994     -0.53190550132811
  C   1.25114158309668     -0.95276996020641     -0.98104429080253
  N   1.65336052142937     -1.48472798568585     -1.95045341729168
  N   -1.09007571250261      0.64831652103861      1.40805753076312
  H   -0.46593627812605      1.02411445816132      2.10423124742387
  H   -1.90978716779894      1.20951921176927      1.25108694995073
