9
Coordinates from ORCA-job run
  C   0.49169464123486     -0.02801566344141     -0.37579656363150
  C   -0.29367205871534     -0.11325713242976      0.72348113527253
  H   0.44936506510680      0.83216748937834     -1.03757302153914
  H   -0.23239706251486     -0.99324088527848      1.35840491064135
  C   1.39033963557917     -1.07685392066989     -0.71313084942419
  N   2.14265634388126     -1.93574911974959     -0.99745143640830
  N   -1.25243130717592      0.79513906082707      1.09358499626195
  H   -1.19756528538396      1.70873999374946      0.67198060387452
  H   -1.49898997201200      0.81107017761426      2.06850022495278
