9
Coordinates from ORCA-job run
  C   0.44397160788913     -0.96231695338318      0.16647121109794
  C   -0.64706091566893     -0.33191653958829      0.66966094063964
  H   0.54724030824855     -2.03526320135274      0.25293032547991
  H   -1.41322237658627     -0.91933423377899      1.16722941149322
  C   1.46447643127697     -0.21484327546103     -0.48237906865165
  N   2.27714484973955      0.46129468202882     -1.00119111164191
  N   -0.93219233316340      0.99880787540485      0.54522860470291
  H   -1.56037344127129      1.39934865125939      1.21940062705673
  H   -0.17898413046433      1.60422299487119      0.25464905982321
