9
Coordinates from ORCA-job run
  C   0.48722236204672     -0.94197916104580      0.17221812376725
  C   -0.46996364170249     -0.30825772493141      0.89548465107870
  H   0.67712566978188     -1.99675735041845      0.31624792442004
  H   -1.04934585916856     -0.87661596324176      1.61728420862601
  C   1.25464557461684     -0.22127373457146     -0.78306024488498
  N   1.85020564329335      0.42970514085451     -1.56300887404901
  N   -0.74066524965819      1.03068952416697      0.86671674079698
  H   -1.65139238612999      1.32429695283551      1.17325484213125
  H   -0.35983211307957      1.56019231635188      0.09686262811377
