9
Coordinates from ORCA-job run
  C   0.39066703585458     -0.97501421422701      0.11303555876231
  C   -0.50654271099251     -0.29581447122985      0.87075954329627
  H   0.52853422241092     -2.03923714191372      0.24630020795307
  H   -1.07933203265208     -0.83507504670149      1.61960128264030
  C   1.15938823656649     -0.29168253125506     -0.86853658200797
  N   1.76927097716536      0.33251229147905     -1.65915507928666
  N   -0.83256429085980      1.02510637761868      0.73626738757419
  H   -0.20272677318718      1.59661042238126      0.19303924354643
  H   -1.22669466430579      1.48259431384814      1.53968843752207
