17

C	0.0	0.0	0.0
C	-0.528762	-0.36644	-1.392288
F	1.38956	0.0	0.0
H	-1.625541	-0.26472	-1.313361
C	-0.47361	1.361637	0.464921
H	-0.053551	1.571472	1.451336
H	-1.564669	1.35718	0.509275
H	-0.12283	2.118773	-0.240549
C	-0.381289	-1.04725	0.970887
N	-0.54922	-1.881232	1.77934
C	-0.158993	-1.7889	-1.81814
H	0.922481	-1.939964	-1.775259
H	-0.500261	-1.974683	-2.837556
H	-0.649934	-2.504864	-1.157182
C	-0.01974	0.60423	-2.360828
N	0.400385	1.355543	-3.160389
Cl	-3.65126	0.0	0.0
