17

C	0.0	0.0	0.0
C	-0.533836	0.057165	-1.436607
F	1.388329	0.0	0.0
H	-1.630209	0.130489	-1.326389
C	-0.474134	1.164762	0.844072
H	-0.124377	2.095143	0.391585
H	-1.565208	1.149019	0.88562
H	-0.054013	1.076503	1.848182
C	-0.382511	-1.288537	0.616766
N	-0.543476	-2.335331	1.123515
C	-0.168023	-1.177894	-2.263331
H	-0.505324	-1.051374	-3.293613
H	-0.66523	-2.054977	-1.84637
H	0.912221	-1.340407	-2.263785
C	-0.029627	1.269372	-2.082203
N	0.38706	2.221806	-2.629335
Cl	-3.633292	0.0	0.0
