19

C	0.0	0.0	0.0
C	-0.485857	0.044581	-1.454503
F	1.405489	0.0	0.0
H	-1.570404	-0.098885	-1.434168
C	-0.421088	1.241177	0.766384
H	0.03301	2.143705	0.352544
H	-0.077338	1.13198	1.79956
H	-1.51039	1.316717	0.755828
N	-0.428625	-1.240249	0.578626
H	-1.436921	-1.314887	0.439095
H	-0.271196	-1.201289	1.580039
N	0.074583	-1.14436	-2.174878
O	-0.631916	-2.146034	-2.258486
O	1.208872	-1.043271	-2.646025
C	-0.098354	1.306973	-2.197918
H	-0.705445	2.137196	-1.835382
H	0.959876	1.529501	-2.061737
H	-0.294544	1.189042	-3.265574
Br	-3.833623	0.0	0.0
