19

C	0.0	0.0	0.0
C	-0.203413	0.020068	-1.552161
F	1.390686	0.0	0.0
H	0.39497	-0.834725	-1.855963
C	-0.451717	1.158738	0.858063
H	-0.008855	2.094377	0.524351
H	-1.542384	1.225016	0.851584
H	-0.11218	0.952019	1.879812
N	-0.465081	-1.290038	0.442345
H	-0.075322	-1.448449	1.370546
H	-1.482539	-1.213709	0.541984
N	0.531223	1.17614	-2.181269
O	0.496472	2.288102	-1.663518
O	1.094176	0.932427	-3.248681
C	-1.552195	-0.055267	-2.23584
H	-2.231747	0.732324	-1.927706
H	-2.04399	-0.999188	-2.013647
H	-1.366159	0.026262	-3.312629
Br	-4.03964	0.0	0.0
