19

C	0.0	0.0	0.0
C	-0.165486	-0.294795	-1.544802
F	1.401602	0.0	0.0
H	0.592354	0.338513	-2.010075
C	-0.466332	1.372346	0.414428
H	-0.129787	1.535595	1.440501
H	-1.555184	1.424189	0.36961
H	-0.038974	2.13133	-0.240205
N	-0.490939	-0.978256	0.905523
H	-0.319158	-1.914731	0.560878
H	-1.503548	-0.848152	0.972774
N	-1.417753	0.176505	-2.235104
O	-1.562253	1.39556	-2.306569
O	-2.138207	-0.656572	-2.774968
C	0.091599	-1.751164	-1.872294
H	1.006516	-2.071374	-1.370064
H	0.217683	-1.890292	-2.946567
H	-0.747367	-2.370648	-1.557239
Br	-3.878117	0.0	0.0
