12

C	0.0	0.0	0.0
C	-0.48192	0.329776	-1.41396
Br	1.949049	0.0	0.0
H	-1.176331	1.158325	-1.407863
H	-0.322786	-0.994937	0.281215
H	0.354638	0.505093	-2.099731
C	-0.448843	0.983287	0.979328
N	-0.562034	1.824319	1.793827
N	-1.227554	-0.806977	-2.02547
O	-2.006214	-0.518067	-2.927372
O	-0.920633	-1.950594	-1.704841
F	-2.331444	0.0	0.0
