12

C	0.0	0.0	0.0
C	-0.481762	0.204412	-1.43511
Br	1.949682	0.0	0.0
H	-1.276904	0.936358	-1.467973
H	-0.331101	-0.959528	0.375352
H	0.339848	0.443307	-2.118914
C	-0.437723	1.074945	0.883728
N	-0.580439	1.970945	1.631444
N	-1.079369	-1.042305	-1.992755
O	-1.805637	-0.89575	-2.970602
O	-0.734136	-2.126238	-1.533541
F	-2.351287	0.0	0.0
