12

C	0.0	0.0	0.0
C	-0.485427	0.23766	-1.426972
Br	1.949845	0.0	0.0
H	-1.305113	0.943478	-1.428919
H	-0.333752	-0.966126	0.356973
H	0.326271	0.522477	-2.104238
C	-0.436977	1.054523	0.910037
N	-0.585654	1.92141	1.690435
N	-1.052727	-1.005615	-2.024514
O	-1.751048	-0.843868	-3.020772
O	-0.718774	-2.096226	-1.574125
F	-2.366729	0.0	0.0
