12

C	0.0	0.0	0.0
C	-0.517568	0.044986	-1.424099
Br	1.948693	0.0	0.0
H	-1.639369	0.136587	-1.194093
H	-0.351824	-0.932194	0.432402
H	-0.25786	-0.866158	-1.960561
C	-0.449644	1.099275	0.853728
N	-0.64016	1.974883	1.615257
N	0.018248	1.159657	-2.22094
O	0.157764	2.254909	-1.678194
O	0.255272	0.938956	-3.412827
F	-2.578805	0.0	0.0
