15

C	0.0	0.0	0.0
C	-0.536376	0.12061	-1.417226
Br	2.039126	0.0	0.0
H	-0.202292	1.088474	-1.810819
H	-1.627767	0.154499	-1.273375
N	-0.502959	1.005655	0.814317
H	-0.221545	0.990248	1.780398
H	-0.537167	1.922736	0.401468
C	-0.277923	-1.320058	0.584253
N	-0.444122	-2.384993	1.051344
C	-0.145933	-1.008853	-2.356245
H	0.932981	-1.059588	-2.510934
H	-0.490452	-1.968519	-1.967014
H	-0.629248	-0.856504	-3.323772
Cl	-3.873299	0.0	0.0
