15

C	0.0	0.0	0.0
C	-0.486776	0.483092	-1.367926
Br	1.969952	0.0	0.0
H	0.002163	-0.121675	-2.136315
H	-1.558845	0.263038	-1.381392
N	-0.524456	0.820334	1.047694
H	-1.54678	0.804215	0.914451
H	-0.326355	0.397279	1.948333
C	-0.301201	-1.441289	0.148535
N	-0.500877	-2.593115	0.278011
C	-0.257708	1.969057	-1.604121
H	0.800145	2.232709	-1.530481
H	-0.610965	2.23459	-2.604436
H	-0.813494	2.560517	-0.878134
Cl	-3.595138	0.0	0.0
