15

C	0.0	0.0	0.0
C	-0.453474	0.46939	-1.387338
Br	1.97049	0.0	0.0
H	-1.520784	0.239885	-1.442272
H	0.072721	-0.135265	-2.13119
N	-0.504927	0.847328	1.033689
H	-1.525686	0.856102	0.900311
H	-0.325005	0.424229	1.938433
C	-0.317865	-1.434538	0.161799
N	-0.515885	-2.585447	0.291595
C	-0.226632	1.95546	-1.628994
H	-0.853197	2.547954	-0.964742
H	0.816833	2.237506	-1.469804
H	-0.49576	2.199472	-2.660696
Cl	-3.52303	0.0	0.0
