15

C	0.0	0.0	0.0
C	-0.450221	-0.297499	-1.436025
Br	1.976019	0.0	0.0
H	-0.020551	0.487423	-2.069863
H	-1.536718	-0.167973	-1.408667
N	-0.496011	1.229396	0.550912
H	-1.51269	1.0896	0.630002
H	-0.351119	1.960315	-0.140393
C	-0.345128	-1.109323	0.902813
N	-0.557921	-2.009731	1.626792
C	-0.108304	-1.680684	-1.968787
H	-0.57447	-2.451305	-1.350688
H	0.96917	-1.859581	-1.998426
H	-0.502606	-1.78883	-2.983224
Cl	-3.558153	0.0	0.0
