15

C	0.0	0.0	0.0
C	-0.53942	0.22735	-1.402342
Br	2.03929	0.0	0.0
H	-1.629436	0.257065	-1.253059
H	-0.198613	1.218127	-1.724882
N	-0.503219	0.939117	0.891539
H	-0.171481	0.887896	1.84011
H	-0.595772	1.873598	0.529586
C	-0.271892	-1.361969	0.482736
N	-0.446265	-2.451694	0.885783
C	-0.162217	-0.835475	-2.420943
H	0.918994	-0.904299	-2.561733
H	-0.622361	-0.594968	-3.382202
H	-0.540481	-1.812286	-2.112468
Cl	-3.855849	0.0	0.0
