15

C	0.0	0.0	0.0
C	-0.455683	-0.132142	-1.462476
Br	1.976256	0.0	0.0
H	0.056123	-0.988388	-1.911883
H	-1.526494	-0.350545	-1.39775
N	-0.504118	1.116766	0.744294
H	-1.523311	0.974762	0.784009
H	-0.330011	1.965206	0.21638
C	-0.329749	-1.241639	0.720954
N	-0.522508	-2.248599	1.294305
C	-0.243588	1.127337	-2.290782
H	-0.50182	0.926661	-3.33311
H	-0.90063	1.930281	-1.949699
H	0.794086	1.472013	-2.260231
Cl	-3.561968	0.0	0.0
