15

C	0.0	0.0	0.0
C	-0.515618	0.301491	-1.400524
Br	2.045133	0.0	0.0
H	-0.024448	-0.380256	-2.098442
H	-1.587554	0.062554	-1.34069
N	-0.520763	0.850284	0.956567
H	-0.327414	0.628326	1.919857
H	-0.497592	1.831966	0.739395
C	-0.265538	-1.399495	0.360823
N	-0.427893	-2.52759	0.645598
C	-0.333982	1.751878	-1.827324
H	-1.013713	2.405794	-1.276052
H	0.697039	2.092479	-1.695294
H	-0.59287	1.85425	-2.88369
Cl	-3.834951	0.0	0.0
