14

C	0.0	0.0	0.0
C	-0.443295	-0.035633	-1.483935
F	1.344606	0.0	0.0
H	-1.525249	0.15757	-1.485353
H	-0.513932	-0.840073	0.479387
N	-0.523145	1.189625	0.654818
O	-1.686626	1.50705	0.149906
O	-0.178829	1.322751	1.860678
C	-0.165161	-1.301799	-2.181914
N	0.057988	-2.328211	-2.713029
N	0.282137	1.015221	-2.281067
O	0.622907	0.701148	-3.427772
O	0.494431	2.101244	-1.75442
H	-2.6826	0.0	0.0
