17

C	0.0	0.0	0.0
C	-0.500865	-0.423267	-1.412314
Br	1.959668	0.0	0.0
H	0.363373	-0.773438	-1.984486
H	-0.24747	1.048913	0.172134
C	-0.519839	-0.830519	1.153015
H	-1.609626	-0.735529	1.173202
H	-0.113423	-0.461617	2.098114
H	-0.264036	-1.881382	1.023353
C	-1.085807	0.801226	-2.122765
H	-1.985986	1.129133	-1.596872
H	-0.359336	1.621441	-2.167637
H	-1.372414	0.542257	-3.147889
N	-1.417278	-1.558109	-1.321254
H	-1.60453	-1.879974	-2.265228
H	-2.312491	-1.232681	-0.948702
Br	-4.271289	0.0	0.0
