17

C	0.0	0.0	0.0
C	-0.412805	0.151442	-1.500827
Br	1.96498	0.0	0.0
H	0.339084	-0.402949	-2.07638
H	-0.28771	0.887134	0.569667
C	-0.529332	-1.250674	0.665278
H	-0.148462	-1.34671	1.684148
H	-0.238969	-2.14293	0.103155
H	-1.621218	-1.18489	0.69969
C	-0.359832	1.620922	-1.903454
H	-1.16919	2.159471	-1.400991
H	-0.516805	1.710166	-2.980252
H	0.593383	2.083152	-1.635991
N	-1.701524	-0.382648	-1.882238
H	-2.477916	0.018235	-1.353397
H	-1.74438	-1.380766	-1.717585
Br	-4.4917	0.0	0.0
