17

C	-0.58209	0.037643	-1.406568
C	0.0	0.0	0.0
F	-0.187845	-1.028374	-2.145298
H	1.093522	0.0	0.0
N	-1.989707	0.10654	-1.373018
H	-2.25009	0.810765	-0.691194
H	-2.362546	0.307243	-2.292273
N	-0.027456	1.24126	-2.223325
O	-0.3912	1.281692	-3.398226
O	0.666978	2.085808	-1.667053
N	-0.417205	-1.247852	0.594574
H	0.247524	-1.516919	1.305238
H	-1.348417	-1.17419	0.979435
N	-0.54084	1.171266	0.732259
H	-0.361968	0.98963	1.713679
H	0.038805	1.967139	0.482727
Cl	3.45153	0.0	0.0
