17

C	-0.560821	-0.006835	-1.417707
C	0.0	0.0	0.0
F	-1.961994	-0.005457	-1.34626
H	1.096433	0.0	0.0
N	-0.051861	1.040821	-2.177138
H	-0.583829	1.17846	-3.025895
H	-0.002339	1.86696	-1.594339
N	-0.288059	-1.282947	-2.20889
O	0.328026	-2.20147	-1.680728
O	-0.732404	-1.289713	-3.354403
N	-0.565676	-1.098856	0.792007
H	-0.150381	-1.005936	1.714466
H	-0.19269	-1.965188	0.4179
N	-0.400625	1.290724	0.550668
H	0.271596	1.560496	1.256907
H	-1.317332	1.187586	0.971837
Cl	3.468032	0.0	0.0
