17

C	-0.489989	0.140443	-1.440046
C	0.0	0.0	0.0
F	-1.87044	0.068759	-1.420291
H	1.096185	0.0	0.0
N	-0.085384	1.310692	-2.117509
H	0.851893	1.166913	-2.474887
H	-0.055109	2.033038	-1.402949
N	-0.055234	-1.066668	-2.273858
O	-0.75207	-2.075247	-2.189038
O	0.959606	-0.957341	-2.950731
N	-0.480816	-1.206801	0.660255
H	0.304494	-1.818792	0.833011
H	-1.153394	-1.700703	0.089518
N	-0.424154	1.23606	0.663547
H	0.262187	1.440817	1.379922
H	-1.303407	1.042986	1.128858
Cl	3.380735	0.0	0.0
