17

C	-0.256635	-0.006061	-1.514427
C	0.0	0.0	0.0
F	0.070366	1.247304	-2.002173
H	1.105235	0.0	0.0
N	0.463561	-1.036132	-2.138289
H	0.485385	-0.898636	-3.141837
H	1.417869	-1.014084	-1.777859
N	-1.742691	-0.152851	-1.851705
O	-2.274152	-1.205488	-1.503661
O	-2.314889	0.769895	-2.420584
N	-0.415191	-1.174897	0.728133
H	0.26695	-1.906798	0.582394
H	-1.312178	-1.501821	0.394385
N	-0.666452	1.161028	0.567562
H	-0.52223	1.094158	1.567689
H	-0.19766	1.998386	0.243118
Cl	3.424645	0.0	0.0
