17

C	-0.534108	0.001192	-1.427319
C	0.0	0.0	0.0
F	-0.09213	-1.09157	-2.116289
H	1.094613	0.0	0.0
N	-1.944465	0.026692	-1.438152
H	-2.231652	0.731931	-0.766064
H	-2.295793	0.217285	-2.367809
N	0.016103	1.18576	-2.254037
O	-0.323777	1.196266	-3.438023
O	0.686599	2.047092	-1.696739
N	-0.424395	-1.213803	0.680768
H	-1.272771	-1.575656	0.264104
H	0.309645	-1.901734	0.583363
N	-0.590865	1.156721	0.68926
H	0.056273	1.931969	0.597271
H	-0.620967	0.890616	1.666261
Cl	3.444979	0.0	0.0
