17

C	-0.571703	0.021984	-1.422568
C	0.0	0.0	0.0
F	-0.058098	-1.031484	-2.09451
H	1.099876	0.0	0.0
N	-1.998087	-0.035254	-1.518043
H	-2.24529	-0.85517	-0.969164
H	-2.369765	0.77302	-1.030875
N	-0.146941	1.27183	-2.190525
O	0.642005	1.153757	-3.111595
O	-0.672275	2.326579	-1.821952
N	-0.48125	-1.264165	0.57042
H	-0.964511	-1.043408	1.432238
H	0.317606	-1.850566	0.778143
N	-0.546901	1.102277	0.79738
H	-0.517624	1.958072	0.255525
H	0.104333	1.238356	1.564618
Cl	3.415323	0.0	0.0
