17

C	-0.313287	0.025149	-1.502839
C	0.0	0.0	0.0
F	-0.21151	1.317136	-1.958333
H	1.105699	0.0	0.0
N	0.492203	-0.813648	-2.307848
H	1.448363	-0.765603	-1.962288
H	0.148704	-1.763528	-2.266462
N	-1.777321	-0.356147	-1.705133
O	-2.598961	0.472601	-1.312345
O	-2.051295	-1.44718	-2.189614
N	-0.52722	-1.267535	0.528247
H	0.221348	-1.95135	0.500032
H	-0.707265	-1.084909	1.50914
N	-0.511921	1.106231	0.773724
H	0.136087	1.87851	0.691068
H	-1.408721	1.399314	0.403883
Cl	3.394954	0.0	0.0
