14
Coordinates from ORCA-job run
  C   -0.85512339212735     -0.13479182094873      0.16213797261569
  C   0.57908177527671     -0.63009242769187     -0.14893131179750
  Br  -2.15007018823287     -1.02719836501269     -0.95895104103881
  H   0.57549415215017     -1.68010056932742      0.16473415262568
  N   -0.99460705967478      1.37632224533928     -0.09416353914843
  O   -0.12827205582131      1.89476544117534     -0.78741489859788
  O   -1.96960655812803      1.91798824687925      0.40018431562505
  C   -1.18209829631098     -0.37206438951858      1.56027751447376
  N   -1.39785632305437     -0.60808908431234      2.69221499445330
  C   1.51332225387790      0.09123221875133      0.74055497048661
  N   2.29090850659760      0.65783571534681      1.41546939894350
  N   0.90076291207442     -0.58697276312178     -1.55186688225707
  H   1.64224620104984     -1.24153590958734     -1.76090795095910
  H   1.17581807232306      0.34370146202874     -1.83333769542478
