16
Coordinates from ORCA-job run
  C   0.91067679874526      0.52952287978271     -0.20278602886955
  C   -0.61457158429646      0.40848760320477     -0.29940739972157
  Br  1.34799157990864      2.31375056168182      0.46884231558810
  H   -0.98234864025372      1.20970446169686     -0.94375879685046
  H   1.31043951747439      0.51693161468187     -1.21775421715044
  C   1.57395768142123     -0.53043490740616      0.65506555015127
  H   1.27423467262823     -0.44484288831146      1.69985453882715
  H   2.65859467708542     -0.42796455172069      0.60438153799531
  H   1.30639412755764     -1.52794323078056      0.29504980412320
  C   -1.36943264800515      0.36094925516322      1.00950488627227
  H   -2.44007926121668      0.27091294102257      0.82008153610089
  H   -1.06650240974345     -0.48822847072048      1.61899062613710
  H   -1.19258735204351      1.28461349865801      1.56153628892708
  N   -0.86044648096777     -0.84732934844520     -1.10618088928252
  O   -0.59336400683293     -0.77578573767176     -2.30435868033919
  O   -1.26195667146113     -1.85234368083554     -0.52406107190863
