16
Coordinates from ORCA-job run
  C   0.80116279399197      0.30827706149638      0.60638767257496
  C   -0.52787303683600      0.26036543850506     -0.15099821381377
  Br  0.67802742052845     -0.54546901979685      2.36178369912728
  H   -0.35478067398260      0.78982648884347     -1.09281795533747
  H   0.98032965719299      1.36319929518646      0.83018494755873
  C   1.97973612174035     -0.27145924277624     -0.15632825370910
  H   2.04304711814904      0.18749965575408     -1.14690925712510
  H   1.88053021613224     -1.34875858837731     -0.28741508684442
  H   2.90591345265119     -0.07381940349695      0.38451776543207
  C   -1.71526869298028      0.84442729746906      0.58340057483709
  H   -2.59608988492999      0.84273965156782     -0.06156766752682
  H   -1.49443620843070      1.87707691710364      0.86399412420698
  H   -1.94032334652238      0.27241353691895      1.48057754970563
  N   -0.81785516358504     -1.14886220721852     -0.58447114225854
  O   -0.31046387803254     -1.51097128796719     -1.64659171405141
  O   -1.51165589508671     -1.84648559321186      0.15025295722388
