16
Coordinates from ORCA-job run
  C   0.81048549161486     -0.52820665979284      0.39539369418403
  C   -0.47148100421901     -0.15565638986841     -0.33142820351060
  Br  1.60522700544202     -2.08524163595566     -0.48606996624263
  H   -0.28123217882720     -0.02118669868397     -1.39773132285790
  H   0.55984917833520     -0.87058988530344      1.40056475189081
  C   1.82056639883317      0.60443361934554      0.42777322452642
  H   1.44117369187399      1.43542955029730      1.02711860082459
  H   2.75416144182098      0.26432784089216      0.87646223427631
  H   2.03818008324329      0.96326763197372     -0.58086993480327
  C   -1.17027114902443      1.05680410947265      0.26884894314559
  H   -1.30215896802520      0.93070709579031      1.34507226117857
  H   -2.15309159674896      1.18145989140105     -0.19092835503781
  H   -0.59441883811522      1.96269507695357      0.07926504351424
  N   -1.43634678248044     -1.30423889936850     -0.25573803720359
  O   -1.68027636160424     -1.74607222913559      0.86455741753374
  O   -1.94036641211880     -1.68793241801789     -1.30729035141850
