11
Coordinates from ORCA-job run
  C   -0.06441489402483     -0.16925054665233      0.00024768155329
  C   -0.94624545223220     -1.16991903027295     -0.05709283925510
  H   -1.99944162534334     -0.95694507981657     -0.19303299543758
  H   -0.62634140433877     -2.19946678806040      0.03003334469294
  N   1.36715870123668     -0.51999128045193      0.18806926107635
  O   2.15515083617341      0.42546177508650      0.23890152426376
  O   1.67930914138508     -1.70259243796757      0.27946201668973
  C   -0.34092496695143      1.29296772736178     -0.10240621811442
  H   0.19684382928479      1.73194755944199     -0.94408601684790
  H   -1.41089950568109      1.45348747788898     -0.23761324539121
  H   -0.01119465950829      1.81430062344249      0.79751748677015
