11
Coordinates from ORCA-job run
  C   -0.04836602995081     -0.16885655890029      0.04432813625565
  C   -0.83225107004515     -1.19237350280219      0.39123211939761
  H   -0.42077301162272     -2.18014089698816      0.54880545936326
  H   -1.89660235816656     -1.03906009061821      0.52037665812500
  N   1.40437330258756     -0.43521052246523     -0.11840245621457
  O   2.09955862473771      0.52823652175503     -0.44351470315890
  O   1.82231768130163     -1.57191579434276      0.07522744456069
  C   -0.45604615839986      1.24394156223984     -0.20639557885330
  H   0.06057035519418      1.92337768408977      0.47319820588005
  H   -0.19943304807901      1.54784811840337     -1.22231515498099
  H   -1.53234828755694      1.34415347962883     -0.06354013037450
