11
Coordinates from ORCA-job run
  C   -0.06104080924930     -0.17057823414903     -0.00371755653249
  C   -0.92568099388853     -1.18534985657619     -0.07408653548310
  H   -0.58521283398652     -2.21114845106486     -0.03322967738337
  H   -1.98590978788554     -0.98740822973699     -0.17309599856622
  N   1.38145505254608     -0.50009982707672      0.13190464159621
  O   1.71744936458987     -1.67902139476384      0.17185225205663
  O   2.15306061292423      0.45791400181489      0.19661878965404
  C   -0.36711204931854      1.28872457074497     -0.04618156393067
  H   -0.02292030828575      1.78459275524338      0.86265683713135
  H   0.13991343704403      1.76712469421801     -0.88549503024993
  H   -1.44300168449004      1.43324997134637     -0.14822615829246
