16
Coordinates from ORCA-job run
  C   -0.78903596849565     -0.01120403660099     -0.23974101741857
  C   0.48746313645346      0.50974089020838     -0.88277913628155
  Cl  -2.16609425525789      0.31691330460978     -1.32493143708493
  H   0.31519177549225      1.54809573145326     -1.17124711227563
  H   0.64023949025474     -0.06401216011763     -1.80159862192361
  N   -1.02577058291770      0.83002324218682      1.01771743801743
  O   -1.11845279159617      0.23646400207991      2.08868162423312
  O   -1.05836982970460      2.04483892881309      0.86591564658987
  C   -0.77648718189577     -1.47982264157909      0.11138618397543
  H   0.01488363559816     -1.70173413406464      0.82593308728617
  H   -1.72734528182476     -1.77918083864540      0.54945881057855
  H   -0.61242648164729     -2.05140981725743     -0.80367272595766
  C   1.71112164891091      0.41125596192014      0.02366856581555
  H   1.57450426318831      0.97718452812643      0.94788278299682
  H   1.95317155344690     -0.62054316400252      0.28286008329728
  H   2.57740686999510      0.83339020286987     -0.48953417184828
