16
Coordinates from ORCA-job run
  C   -0.67833941945355      0.04948719125838     -0.05782684745095
  C   0.64858773092229      0.79211193947254      0.02517241795033
  Cl  -1.41030248072462      0.26535357435705     -1.67202596340249
  H   0.46685024518021      1.82777555070891     -0.26674736722656
  H   0.94014325601507      0.80145356100702      1.08266172656447
  N   -1.62186357881583      0.75229310695897      0.92613496740461
  O   -2.13536820000109      0.06935389034641      1.80772902608680
  O   -1.76349386198495      1.95995860203598      0.78006777205999
  C   -0.60362104884399     -1.42290990281429      0.26381992596599
  H   -1.59841586913865     -1.86436278520474      0.27893501432613
  H   -0.14073408516564     -1.57110648661240      1.24108844357822
  H   -0.00843340904619     -1.92480577057057     -0.49842294878831
  C   1.75810562838522      0.17615984320647     -0.81769777586370
  H   2.04725787393107     -0.81082094259077     -0.45322041742746
  H   2.64368885395683      0.81344051933408     -0.77865380168340
  H   1.45793836478381      0.08661810910694     -1.86301417209366
