18

C	0.0	0.0	0.0
C	-0.365497	-0.117076	-1.527219
F	1.379115	0.0	0.0
H	0.549284	0.206185	-2.030453
N	-0.289589	1.455596	0.441995
O	0.221621	2.320706	-0.271592
O	-0.919389	1.673469	1.462928
N	-0.57686	-0.844705	0.953395
H	-0.414965	-1.796718	0.646546
H	-1.605138	-0.637502	0.819165
N	-1.468774	0.672803	-2.038756
H	-2.249962	0.511719	-1.369001
H	-1.204437	1.649364	-1.982743
C	-0.641472	-1.58156	-1.847224
H	-1.604089	-1.836394	-1.40559
H	0.142724	-2.247577	-1.472609
H	-0.708894	-1.696193	-2.929494
F	-2.898312	0.0	0.0
