18

C	0.0	0.0	0.0
C	-0.292667	-0.001694	-1.540236
F	1.35427	0.0	0.0
H	0.590225	-0.55	-1.887378
N	-0.286814	1.376398	0.707892
O	-1.140367	2.145709	0.287387
O	0.341838	1.538168	1.759091
N	-0.647952	-1.017708	0.679501
H	-0.449448	-0.940002	1.672147
H	-1.691044	-0.769289	0.488502
N	-0.136189	1.357514	-2.074975
H	-0.074039	1.274873	-3.084405
H	-0.989337	1.862454	-1.861878
C	-1.498042	-0.756314	-2.08487
H	-2.422398	-0.295879	-1.73919
H	-1.496166	-1.787676	-1.722755
H	-1.406088	-0.774418	-3.179901
F	-2.92135	0.0	0.0
