18

C	0.0	0.0	0.0
C	-0.389738	-0.157175	-1.517865
F	1.378748	0.0	0.0
H	0.534989	0.092677	-2.048219
N	-0.277847	1.474193	0.400559
O	0.270073	2.31279	-0.318122
O	-0.944117	1.729352	1.391753
N	-0.576925	-0.805851	0.986573
H	-0.431304	-1.771884	0.715625
H	-1.603155	-0.589631	0.852815
N	-1.453837	0.675946	-2.044536
H	-2.243882	0.545793	-1.383931
H	-1.154888	1.642506	-2.003631
C	-0.763946	-1.609995	-1.783219
H	-0.012968	-2.320338	-1.419038
H	-1.724496	-1.792867	-1.297155
H	-0.881961	-1.746963	-2.859481
F	-2.897484	0.0	0.0
