17

C	0.0	0.0	0.0
C	-0.581732	0.217823	-1.387305
Cl	1.80084	0.0	0.0
H	-0.304014	-0.598026	-2.054143
H	-1.678134	0.269251	-1.180639
C	-0.482242	1.050183	0.987411
H	-0.134288	2.047674	0.718271
H	-0.115367	0.8034	1.988617
H	-1.576692	0.98909	0.939062
C	-0.49637	-1.370473	0.438054
H	-0.133859	-2.156021	-0.232315
H	-0.147496	-1.58731	1.451477
H	-1.591598	-1.282671	0.409762
N	-0.108662	1.448501	-2.058653
O	-0.498632	2.536452	-1.628413
O	0.644878	1.319604	-3.029793
F	-2.991116	0.0	0.0
