17

C	0.0	0.0	0.0
C	-0.229159	-0.019808	-1.533274
Cl	1.806698	0.0	0.0
H	0.245971	0.863473	-1.958353
H	0.236827	-0.918782	-1.933633
C	-0.51039	1.268757	0.643696
H	-0.169037	1.318726	1.683165
H	-1.60988	1.163508	0.582881
H	-0.151602	2.154895	0.109508
C	-0.510972	-1.244872	0.689152
H	-0.153568	-2.148165	0.18521
H	-0.168113	-1.261099	1.728436
H	-1.608913	-1.139619	0.624383
N	-1.612591	-0.022356	-2.107455
O	-2.080891	-1.121255	-2.394684
O	-2.097946	1.062228	-2.401553
F	-2.888842	0.0	0.0
