17

C	0.0	0.0	0.0
C	-0.576679	0.04517	-1.406891
Cl	1.800947	0.0	0.0
H	-1.674628	0.108057	-1.213431
H	-0.282849	-0.83689	-1.973948
C	-0.482925	1.168759	0.844916
H	-1.577799	1.11005	0.794163
H	-0.12284	2.122853	0.460491
H	-0.129336	1.042695	1.872377
C	-0.498049	-1.302776	0.61008
H	-1.593754	-1.215207	0.579623
H	-0.138631	-1.393957	1.638559
H	-0.146702	-2.166982	0.038168
N	-0.11543	1.200533	-2.209377
O	-0.542965	2.319691	-1.923304
O	0.672363	0.980079	-3.134916
F	-2.991475	0.0	0.0
