17

C	0.0	0.0	0.0
C	-0.586283	-0.128799	-1.395573
Cl	1.800907	0.0	0.0
H	-1.684215	-0.203395	-1.183295
H	-0.335107	0.738018	-2.00477
C	-0.488319	1.34634	0.521124
H	-0.131985	2.166781	-0.109067
H	-0.126072	1.505167	1.540153
H	-1.58405	1.266901	0.499085
C	-0.476806	-1.099922	0.937404
H	-1.571575	-1.047265	0.890223
H	-0.115512	-2.079271	0.628165
H	-0.118395	-0.888787	1.949219
N	-0.110768	-1.295591	-2.171199
O	0.451913	-1.073279	-3.249117
O	-0.31376	-2.425017	-1.72539
F	-2.986986	0.0	0.0
