13

C	-0.347966	0.047975	-1.491494
C	0.0	0.0	0.0
Br	-0.042469	1.960299	-2.148134
H	1.091464	0.0	0.0
H	-0.316597	-0.981937	0.369399
N	0.457878	-0.907232	-2.140703
H	1.435243	-0.796444	-1.862773
H	0.362549	-0.877392	-3.146741
C	-1.769068	-0.177819	-1.760797
N	-2.910231	-0.39159	-1.942265
C	-0.59875	1.04191	0.812491
N	-1.114059	1.843499	1.498502
Br	3.418394	0.0	0.0
