13

C	-0.310775	-0.137105	-1.498831
C	0.0	0.0	0.0
Br	-0.109448	1.782746	-2.270951
H	1.09342	0.0	0.0
H	-0.386296	0.929649	0.413726
N	0.568987	-1.063329	-2.053674
H	1.531133	-0.906828	-1.744534
H	0.496772	-1.158755	-3.056933
C	-1.704038	-0.451707	-1.813197
N	-2.813167	-0.761536	-2.049523
C	-0.506046	-1.148196	0.74201
N	-0.939262	-2.054354	1.350508
Br	3.447357	0.0	0.0
