13

C	-0.310689	-0.342151	-1.465075
C	0.0	0.0	0.0
Br	-0.086096	1.444023	-2.496284
H	1.102933	0.0	0.0
H	-0.385202	0.978589	0.282084
N	0.558363	-1.350227	-1.883304
H	1.523096	-1.158451	-1.604561
H	0.481852	-1.580108	-2.864667
C	-1.707153	-0.683706	-1.736786
N	-2.823225	-0.982346	-1.951701
C	-0.506641	-1.034473	0.893693
N	-0.941261	-1.845268	1.623709
Br	3.449271	0.0	0.0
