13

C	-0.560953	0.014947	-1.423216
C	0.0	0.0	0.0
Br	0.093774	-1.579089	-2.357618
H	1.092163	0.0	0.0
H	-0.345106	-0.921232	0.47752
N	-2.008294	-0.063795	-1.393913
H	-2.363687	0.733036	-0.871706
H	-2.37329	-0.012948	-2.339053
C	-0.076956	1.178303	-2.185401
N	0.172331	2.137456	-2.818802
C	-0.52396	1.147579	0.734839
N	-1.001763	2.069576	1.284563
Br	3.454136	0.0	0.0
