13

C	-0.481146	0.35481	-1.400101
C	0.0	0.0	0.0
Br	-2.598006	0.186686	-1.352345
H	1.103399	0.0	0.0
H	-0.35157	-0.995374	0.275573
N	-0.058373	1.606788	-1.809172
H	-0.377247	1.894559	-2.721397
H	-0.148785	2.327066	-1.10716
C	-0.143385	-0.677467	-2.376759
N	0.109919	-1.506835	-3.16977
C	-0.471595	0.98103	0.968688
N	-0.830253	1.80067	1.729679
Br	3.417602	0.0	0.0
