12

C	0.0	0.0	0.0
C	-0.452832	-0.261449	-1.40915
F	1.36736	0.0	0.0
H	-1.538825	-0.184954	-1.458231
H	-0.126728	-1.269036	-1.675417
H	0.033711	0.467049	-2.057465
N	-0.358998	1.407358	0.475979
O	-0.42341	1.574908	1.687469
O	-0.416241	2.275043	-0.385011
C	-0.457282	-0.977035	0.993432
N	-0.600378	-1.859807	1.755198
Cl	-3.389066	0.0	0.0
