12

C	0.0	0.0	0.0
C	-0.518871	-0.166811	-1.39542
F	1.353903	0.0	0.0
H	-0.194921	-1.143769	-1.760745
H	-0.098482	0.622566	-2.018003
H	-1.609923	-0.112635	-1.367244
N	-0.363654	1.370971	0.582451
O	-0.439391	1.449064	1.802473
O	-0.418868	2.298895	-0.213653
C	-0.437258	-1.046049	0.937449
N	-0.601628	-1.969619	1.643428
Cl	-3.526832	0.0	0.0
