15
Coordinates from ORCA-job run
  C   0.53301880872816     -0.17176954848593      0.07189349815005
  C   -0.70897620558431      0.38106273358776      0.12195539815782
  C   1.23610984152278     -0.66955259142059     -1.15811568176849
  H   1.43550471608088      0.14529877440689     -1.85457664229491
  H   0.63168497204666     -1.39787323241661     -1.69831407671347
  H   2.18614725724758     -1.13363150980445     -0.88288700038948
  N   1.29331412392515     -0.16668615936909      1.24501446227973
  H   0.74317710389653     -0.25954143138551      2.08827565253806
  H   2.06088679049276     -0.82002074496275      1.23056641261168
  N   -1.61449364037599      0.33747260313374     -1.01187443042047
  O   -2.81213913272662      0.45623626597950     -0.74339202813224
  O   -1.16636449931826      0.14798040753859     -2.14547573252516
  N   -1.23429685254399      1.05755911974117      1.22017227076666
  H   -2.04030105344363      0.65407575078433      1.66987913909392
  H   -0.54527222994770      1.43938956267295      1.84587875864633
