15
Coordinates from ORCA-job run
  C   0.54171027405287     -0.29485479456585      0.17725424613896
  C   -0.71168992571882      0.22433134704606     -0.02400225055656
  C   1.68943003378470      0.38915580953545     -0.50341271374840
  H   2.59309200384178     -0.22290069692989     -0.44987340786440
  H   1.93373938873198      1.33459893374870     -0.00982806829898
  H   1.44377453938026      0.60020299315604     -1.54561946770919
  N   0.86887528757966     -1.28293450928106      1.07000632373816
  H   0.09156740634181     -1.85295731821184      1.37488142103379
  H   1.71950073237100     -1.77880518883587      0.84494698770137
  N   -1.89500841590261     -0.45360370401723      0.42566897663957
  O   -2.98622638390265     -0.04996268517031     -0.00023347635603
  O   -1.79061487218626     -1.41811810190064      1.20303975725888
  N   -0.92381175282862      1.30140462328432     -0.91638790770388
  H   -1.90977274845044      1.31991102016811     -1.15177458519074
  H   -0.66556556709466      2.18353227197400     -0.49366583508257
