15
Coordinates from ORCA-job run
  C   0.59420610804888     -0.22534534711607      0.08437919528684
  C   -0.66594084220292      0.29204239573172      0.19972030930470
  C   1.22344652502810     -0.77690190588897     -1.16024401379660
  H   1.17718387278746     -0.05999213490109     -1.97855111174664
  H   2.26413660305194     -1.04531042467421     -0.96653783011298
  H   0.68978890831265     -1.66506088816283     -1.49884674174948
  N   1.34248148351148     -0.32938907737590      1.22462607398707
  H   2.34251769026716     -0.34015316942724      1.11500639199798
  H   0.97614985680745      0.19553792029517      2.00720095452682
  N   -1.58052449226237      0.38083609820350     -0.91750737830448
  O   -2.64414788751809      0.97620529314634     -0.70629641778973
  O   -1.27414945324549     -0.11730469720461     -2.00483021962936
  N   -1.10318439165742      0.79048461435581      1.44875583494788
  H   -1.49641149616668      1.71697741794060      1.32844302847341
  H   -1.84655248476213      0.21037390507779      1.82368192460458
