15
Coordinates from ORCA-job run
  C   0.53695109114746     -0.33268393656273      0.07748137066552
  C   -0.68659100601307      0.28728353249145      0.01563078361326
  C   1.75676966311483      0.37771172729662     -0.43501008941608
  H   2.25408986299755     -0.23845273987039     -1.19095701206323
  H   1.48969579643744      1.33566440658630     -0.86906446691628
  H   2.46300280667712      0.53218284770489      0.38554920662042
  N   0.78687221304151     -1.53840473728905      0.64655824406794
  H   1.66133566523679     -1.98193716119881      0.42522490898460
  H   -0.00246168248447     -2.11855783231927      0.88240404776733
  N   -1.89531003915685     -0.37856111441795      0.45858108648745
  O   -1.82782338341650     -1.51097775853044      0.96448140488637
  O   -2.95973776333777      0.22847546583555      0.30273227010441
  N   -0.84164354263066      1.57803322645203     -0.53217882362692
  H   -1.50894054706413      1.55254426750645     -1.29471403239006
  H   -1.22620913454925      2.20867980631534      0.16228110121527
