15
Coordinates from ORCA-job run
  C   0.52475241745849     -0.34760212581341      0.07985582417333
  C   -0.68793421974913      0.30380423185929      0.06043476944510
  C   1.75722396361523      0.39802870234815     -0.35015836333479
  H   1.49574532182686      1.18014565798311     -1.05865210011457
  H   2.48004197229076     -0.28328106902733     -0.80289897481544
  H   2.22796848238388      0.88932805025103      0.50696013219206
  N   0.74209050513085     -1.63752817582534      0.44489695921067
  H   1.67990440221314     -1.88701477413206      0.70867726619654
  H   -0.01930197690599     -2.12564808671505      0.88927942776572
  N   -1.91568877001243     -0.43175404891535      0.32508269391636
  O   -1.85967630582729     -1.57607626404042      0.80051491308715
  O   -2.97403521000750      0.09461991244864     -0.03559990337159
  N   -0.81940588565241      1.59545593295129     -0.47223769763891
  H   -1.22835241302628      2.22718177577901      0.20367746650493
  H   -1.40533228373818      1.59834028084844     -1.29883241321658
