15
Coordinates from ORCA-job run
  C   0.53321322563252     -0.31966580118965      0.13433338002428
  C   -0.68817375515519      0.28030295240121     -0.04900246306447
  C   1.77503376263647      0.34577371509332     -0.38552316158359
  H   1.52979640344632      1.26817870758551     -0.90169542545662
  H   2.45136508109569      0.56027190670786      0.44664951422144
  H   2.29605771137502     -0.32776240407211     -1.07352141210970
  N   0.75833854348283     -1.46339475369817      0.82821822203409
  H   1.64530364669948     -1.91771119305203      0.69661331433594
  H   -0.03927165561350     -2.02603018029995      1.07798353220352
  N   -1.91437455767280     -0.34448886332913      0.40616468753275
  O   -2.97066314297192      0.24442384467279      0.15473601202674
  O   -1.86821622121205     -1.42560926918166      1.01585921874005
  N   -0.81953010319985      1.51278507849135     -0.72240680508753
  H   -1.44282407952160      1.41095663674370     -1.51530006547530
  H   -1.24605485902140      2.20096962312695     -0.11210854834160
