15
Coordinates from ORCA-job run
  C   0.47814906665638     -0.37142948113830      0.04430919212562
  C   -0.73640142930061      0.25773241870999      0.08653097016844
  C   1.64683729205466      0.37359726731999     -0.54306475380748
  H   1.94853935380966      1.21225261484001      0.09208383976216
  H   1.40150430134013      0.77247196090794     -1.53098502466379
  H   2.50572519962220     -0.28727186494672     -0.66629686870594
  N   0.72850319330948     -1.66463879672037      0.42592379504972
  H   1.68343748403329     -1.88249805132099      0.65382294715093
  H   0.01492492739048     -2.10399923020616      0.98578468997315
  N   -1.91722018848632     -0.38702441089070      0.58194288723244
  O   -2.98410058757578      0.22618480497652      0.46230018045366
  O   -1.83013456171311     -1.51727250809541      1.09265041560054
  N   -0.95320520003491      1.61399790134237     -0.22304114453652
  H   -1.81292096111476      1.73991278431264     -0.74143170576555
  H   -0.17463788999078      2.01898459090919     -0.72052942003738
