15
Coordinates from ORCA-job run
  C   0.53219260113210     -0.34848317796757      0.02977890805407
  C   -0.68039383588195      0.29159142266786      0.06577968452732
  C   1.76475870061188      0.41270895309001     -0.36833562815817
  H   2.59000832819684      0.17365836906184      0.30680430401752
  H   1.57577543490803      1.48140104024558     -0.36302895142196
  H   2.05827746438695      0.11895611837611     -1.38171987514411
  N   0.75146102662452     -1.64299962923329      0.37033330161654
  H   -0.05705778749581     -2.23983983732701      0.45470415539782
  H   1.62237960291421     -2.05609050269355      0.08490109568463
  N   -1.89714218893367     -0.41822530678360      0.39092698973662
  O   -1.84865639084131     -1.62698704662583      0.67399232657933
  O   -2.94174129151965      0.24157850925320      0.42330246191242
  N   -0.80393388261022      1.66587068758993     -0.23602846419547
  H   -1.45335860820468      1.79054389716660     -1.00540723489965
  H   -1.21156917328722      2.15631650317972      0.55299692629309
