15
Coordinates from ORCA-job run
  C   0.43991499757817     -0.36500149403081     -0.03157205740623
  C   -0.78122179946569      0.25758445207591      0.05991593394162
  C   1.66002158062509      0.43957677828268     -0.38742105158762
  H   2.36887075419512      0.43005406020542      0.44708867655104
  H   2.15743964762395     -0.00833009415919     -1.25169932745612
  H   1.41396381093782      1.47118546704323     -0.61799049694020
  N   0.69276098109398     -1.69673258736245      0.09997829387565
  H   1.64567523447923     -1.96059665189508      0.28486762805054
  H   -0.04111779732060     -2.26017273226481      0.49913540867551
  N   -1.98031455859764     -0.50433114051466      0.43790278606166
  O   -3.04674785205115      0.09229919067896      0.53327841627285
  O   -1.86281826080352     -1.72364235891125      0.64773557521746
  N   -1.01797015981172      1.61376997934491     -0.15032977143602
  H   -0.65764412419709      2.26281847488194      0.52659327528573
  H   -0.99081245428594      1.95151865662518     -1.09648328910587
