15
Coordinates from ORCA-job run
  C   0.48032674396085     -0.28444071409354     -0.08180381880095
  C   -0.78415058730023      0.21568745580507     -0.04280379594667
  C   1.54729819696839     -0.08550982943270      0.95607337036918
  H   1.71214471165450      0.97123467099442      1.16474971159066
  H   1.26665904922450     -0.54833474411993      1.90265770861803
  H   2.48624137157232     -0.52875753747098      0.61602054257364
  N   0.79528226597292     -1.17553006701571     -1.11140851681428
  H   0.31091005177788     -0.98705616455341     -1.97862555863814
  H   1.78604316288955     -1.28972517514486     -1.25782315576536
  N   -1.18265020574520      1.21993078466906      0.92657606478505
  O   -2.15835416327199      1.90607369471975      0.61414100094757
  O   -0.52719185859488      1.36482116659281      1.96161715406050
  N   -1.82360365468887     -0.18306939878232     -0.88063891327303
  H   -2.19652258953032      0.50716329487294     -1.51274151901467
  H   -1.71143249488942     -1.10148743704060     -1.27599027469154
