15
Coordinates from ORCA-job run
  C   0.53363869420924     -0.34094782495391      0.06313057790191
  C   -0.69552134151093      0.25844309734843     -0.05898060927214
  C   1.76850171291314      0.39927630940613     -0.36496507231394
  H   1.51565108148478      1.38933906768740     -0.72984424711570
  H   2.27948110147773     -0.16343636434344     -1.15105252194585
  H   2.45649746719925      0.48964589120521      0.48187623740682
  N   0.75767415310425     -1.61233757124865      0.48006843971052
  H   1.69692558249984     -1.85265279364729      0.74559055789864
  H   -0.00764039931730     -2.10547947674587      0.91173136491686
  N   -1.90795641190358     -0.40490611909218      0.37751787883226
  O   -2.96252065833963      0.22999459966773      0.27516000075027
  O   -1.85168014429059     -1.55892308084292      0.83335095877841
  N   -0.84019839000215      1.56385927234920     -0.57439478684073
  H   -1.43583916849537      1.55101561270609     -1.39487356744614
  H   -1.30601327902869      2.15510938050407      0.10468478873884
