15
Coordinates from ORCA-job run
  C   0.52892434503869     -0.35340590430794     -0.01265979424657
  C   -0.67765997152498      0.29290036077760      0.09579603702411
  C   1.75157095635772      0.41742657596662     -0.42048767922384
  H   1.49958547227835      1.44955602738985     -0.64091653231592
  H   2.20217078103214     -0.04406492717837     -1.30501535758704
  H   2.49077762935802      0.38543028869227      0.38482477040522
  N   0.76163280951319     -1.65415812320146      0.29346897066866
  H   -0.03542058099642     -2.25297367335762      0.43906938786663
  H   1.61677336969086     -2.06296036690408     -0.04106804056638
  N   -1.88895165250399     -0.42028432917043      0.44998524224550
  O   -2.93795076365684      0.23158947707553      0.47035433962498
  O   -1.83849051693308     -1.63351854962993      0.71110629500977
  N   -0.81220564642284      1.67092506326787     -0.17354554414956
  H   -1.50551422227780      1.81693673083172     -0.89841186598423
  H   -1.15324200895302      2.15660134974838      0.64849977122866
