15
Coordinates from ORCA-job run
  C   0.52465653392911     -0.35536480094561      0.05685111206551
  C   -0.68977150527918      0.27849002110105     -0.03536427978548
  C   1.74211672765835      0.27506001519082     -0.55618093174765
  H   1.48837500568721      1.21451915909474     -1.03620406531844
  H   2.49322514911305      0.45700972341643      0.21933977750636
  H   2.17915302938082     -0.40728494597706     -1.29037775567391
  N   0.74210552683722     -1.57641886098016      0.60682323168021
  H   1.69239929968419     -1.82402788506734      0.82156841276433
  H   0.00148991231607     -1.98114518532138      1.15719510660859
  N   -1.88013813183172     -0.27325372889228      0.58127190030576
  O   -1.82371954322815     -1.36898773236837      1.16327119191398
  O   -2.91590321126694      0.39441129442771      0.49728488698045
  N   -0.83504257537281      1.51939941397335     -0.69026633078311
  H   -1.50615038739386      1.43863564139085     -1.44596661416471
  H   -1.21079583023338      2.20895787095726     -0.04924564235191
