15
Coordinates from ORCA-job run
  C   0.53431998640326     -0.33994621874715      0.05970843159499
  C   -0.69608907397856      0.25959894672244     -0.04927650946929
  C   1.76419419389736      0.40019470932626     -0.38170497814211
  H   1.51160188438871      1.40178287400543     -0.71398408472974
  H   2.24715087883534     -0.14477067647803     -1.19764549495575
  H   2.47742054448464      0.46041822930225      0.44660404944472
  N   0.76288110606395     -1.61198931151386      0.47233690805615
  H   1.70470148631819     -1.85204323149805      0.72884126716703
  H   0.00255123549386     -2.10640474473535      0.91123628029717
  N   -1.90431139966995     -0.40561343720640      0.39660125984686
  O   -2.96026742119213      0.22865816996084      0.30459843154385
  O   -1.84332189868254     -1.56018267380488      0.85040328987770
  N   -0.84657032690829      1.56446987837310     -0.56353578349451
  H   -1.31197285070335      2.15425477226568      0.11694895809246
  H   -1.44328834475048      1.55057271402774     -1.38313202512953
