15
Coordinates from ORCA-job run
  C   0.53116106504879     -0.34453398717048      0.06261389261026
  C   -0.69408172032081      0.26362594632617     -0.05568871046178
  C   1.76627469884536      0.37384910909206     -0.39960697115302
  H   2.48050041380714      0.45046731131390      0.42655085597592
  H   2.24399478682358     -0.19642542198794     -1.20110900642172
  H   1.52127357962845      1.36862492805727     -0.75710076247486
  N   0.74910882470227     -1.61011426998566      0.50105657089933
  H   1.68932550359099     -1.85140056352324      0.76253818778674
  H   -0.01386707765380     -2.08597699267529      0.95567052758132
  N   -1.90602931442249     -0.37765621651613      0.41587996425899
  O   -2.95477761933707      0.26804883813957      0.32171537034384
  O   -1.85473742594005     -1.52370251864614      0.89159837627949
  N   -0.83409210157933      1.55998128466108     -0.59317691111565
  H   -1.43399185678665      1.53803611578575     -1.41021929890595
  H   -1.29006175640637      2.16717643712909      0.07827791479710
