15
Coordinates from ORCA-job run
  C   0.52987443787927     -0.33251981762525      0.11493077064856
  C   -0.69267294881614      0.25334154018607     -0.10298448099533
  C   1.77910295252209      0.35582486311711     -0.35545288142634
  H   1.54259532860419      1.31034409165709     -0.81400060140976
  H   2.45355091236893      0.51707242289618      0.49168048047526
  H   2.29834345640401     -0.27981432640250     -1.07808440369252
  N   0.73664089296261     -1.55320070409141      0.66878268350509
  H   1.66734821250323     -1.77006163765534      0.98033809839996
  H   -0.04160606207941     -1.99946368384421      1.12730672324446
  N   -1.92002007987168     -0.35999508237590      0.36444041005267
  O   -2.96880056496829      0.26123519009262      0.16483173523525
  O   -1.88130696191749     -1.45951485391629      0.94085868861996
  N   -0.81690164465819      1.49775910482951     -0.75533531406738
  H   -1.38462130121086      1.40063877671417     -1.58965697278511
  H   -1.30052662972227      2.15735411641816     -0.15665493580478
