15
Coordinates from ORCA-job run
  C   0.48001321487651     -0.37951875429936      0.02477347919202
  C   -0.73161906352106      0.25519636525765      0.07755820074023
  C   1.66997334914945      0.40322333241881     -0.45710097153895
  H   1.44273063017968      0.93624473809524     -1.38459067788768
  H   2.50928833979729     -0.25739075757505     -0.68020996559912
  H   1.99421379059242      1.14278436454657      0.28144948039641
  N   0.71456664239151     -1.70355591682248      0.31217428491571
  H   1.65992578160664     -1.91745645498260      0.58467821961564
  H   -0.01352430379986     -2.16519933908876      0.83521670838081
  N   -1.92693921034540     -0.41312884498588      0.50551585796439
  O   -2.98696882623399      0.21630190126343      0.40421712557438
  O   -1.86311309051961     -1.58694524274330      0.90519952066363
  N   -0.93307051042862      1.63079917809949     -0.14324129309310
  H   -0.18679454199017      2.04187803009403     -0.68291297737700
  H   -1.82868220175479      1.79576740072220     -0.58372699194738
