15
Coordinates from ORCA-job run
  C   0.54914239897713     -0.28154123893282     -0.17413237434208
  C   -0.72399732555154      0.20247497930481     -0.05701068024295
  C   1.71084854409768      0.03378848163718      0.72032544169710
  H   1.46827129406859     -0.15190856911059      1.76542517304245
  H   2.57813757608176     -0.56453715156624      0.43325543170779
  H   1.97406791197633      1.08922972876383      0.64852558433911
  N   0.82872667225159     -1.07150042106183     -1.25499189100559
  H   1.59801560989979     -1.71359732266266     -1.16528885183042
  H   0.00917382404396     -1.40756380570844     -1.74242939101030
  N   -1.12341388849878      1.10581934537523      0.99962250879345
  O   -2.33094466762642      1.36534166148476      1.06865228820591
  O   -0.27498907332974      1.56426945484402      1.77054123157763
  N   -1.71460139865661     -0.21247883408109     -0.97698335836852
  H   -2.53880238447803     -0.52291003159623     -0.47513167154758
  H   -2.00963509325569      0.56511372331008     -1.55837944101598
