15
Coordinates from ORCA-job run
  C   0.53970732603626     -0.31139441147204      0.12797230100057
  C   -0.69717108030926      0.25525832433626     -0.05698753622486
  C   1.77482807230850      0.46921398033983     -0.21911978312821
  H   2.37854118714845      0.62064073267430      0.68006716062293
  H   2.37990432450128     -0.09529392800745     -0.93582909870395
  H   1.51401396702132      1.43159789406328     -0.64715803220051
  N   0.78081348040562     -1.52499099961792      0.68395090576563
  H   1.69641350301389     -1.91918073072753      0.55504515092385
  H   -0.00053902464991     -2.14862664869896      0.80897815544557
  N   -1.91523820191163     -0.47785261983784      0.22700754402782
  O   -1.85075988517270     -1.62521785171057      0.69814366741328
  O   -2.98293019361076      0.08996872685468     -0.02465000201469
  N   -0.85061715767701      1.55758664286995     -0.57676425576352
  H   -1.33979178151538      2.14487971341073      0.08946829471305
  H   -1.42717453558865      1.53241117552329     -1.41012447187697
