15
Coordinates from ORCA-job run
  C   0.53599342525184     -0.32521214524536      0.10670516446405
  C   -0.69532858537078      0.23827147920785     -0.11929522557149
  C   1.78036377468637      0.45971223668587     -0.19423805462762
  H   2.39021198489397      0.54642262112590      0.71081586653659
  H   1.53095427984372      1.45179320582959     -0.55615158926807
  H   2.37389486543982     -0.06703703128345     -0.94661647295040
  N   0.76159012072441     -1.59655414337757      0.52329152526787
  H   1.68017777270569     -1.81333142711631      0.86925256238710
  H   -0.02269201172279     -2.12154017125875      0.87598150118690
  N   -1.92084877824264     -0.46961817757411      0.19485188895732
  O   -2.98141812261212      0.13539695900894      0.00803710506412
  O   -1.86937777602549     -1.63024722695398      0.63396627384679
  N   -0.83443439650942      1.54778505983234     -0.62479870337627
  H   -1.38043453224382      2.11161630182025      0.01668552204394
  H   -1.34865202081874      1.53254245929880     -1.49848736396083
