15
Coordinates from ORCA-job run
  C   0.53678270716558     -0.32490550840681      0.10402971874655
  C   -0.69615334795305      0.23953991847184     -0.11179962997412
  C   1.77899414628088      0.46294371265676     -0.19815142147570
  H   1.52771023123275      1.46476639178196     -0.53065634035634
  H   2.35662538648171     -0.04651527505441     -0.97450029329447
  H   2.40598853295637      0.52373454824251      0.69722565503806
  N   0.76505062842260     -1.59997173216862      0.50710570228821
  H   1.68477724020597     -1.81965749746032      0.84807779110988
  H   -0.01800672959004     -2.12919963492802      0.85622687152602
  N   -1.91962092771086     -0.47250615965569      0.19954832674594
  O   -1.86562682074612     -1.63683429990931      0.62864091878033
  O   -2.98155102996656      0.13288309253283      0.02175858317685
  N   -0.83804095873210      1.55299388755983     -0.60651409649139
  H   -1.35021398662402      1.54358546050060     -1.48150952403156
  H   -1.38771507142311      2.10914309583685      0.03851773821174
