15
Coordinates from ORCA-job run
  C   0.49650410028674     -0.35157057610998      0.10193857241261
  C   -0.73434551956523      0.24375911663326      0.05407911019342
  C   1.69414025965216      0.47573215547217     -0.27574587933777
  H   1.57287316297498      0.94096749273266     -1.25799352498494
  H   2.59662104569900     -0.13650877232521     -0.30814089240365
  H   1.85961509223284      1.27079246734783      0.45773391766257
  N   0.77301512070152     -1.59897950317381      0.61015720032134
  H   1.58400140461681     -2.05020019557486      0.21822292235021
  H   -0.02995674648159     -2.19248411821718      0.75652734898974
  N   -1.94313305515858     -0.46810662079677      0.34811942824492
  O   -1.88038686476464     -1.61946541292778      0.81036294306471
  O   -3.00983701545884      0.10629126991679      0.09395760498389
  N   -0.95194553369211      1.60864534328782     -0.20557823750453
  H   -1.83398779715146      1.74403033145114     -0.68122401178954
  H   -0.19417765389158      2.02709702228392     -0.72341650220299
