15
Coordinates from ORCA-job run
  C   0.48163242520593     -0.35954378594868      0.06273612480905
  C   -0.75569778282095      0.22052422673644     -0.01442164545583
  C   1.68991987046544      0.46968387787200     -0.28225572865948
  H   1.52900362837893      1.04976024837332     -1.19393782560766
  H   2.55100480435070     -0.17484875234060     -0.46691604094866
  H   1.94429472758872      1.16604136676123      0.52293306999029
  N   0.74059205549670     -1.67342700284406      0.36563322439819
  H   1.66211629232782     -1.86399287264892      0.72200903021506
  H   -0.02161272080151     -2.17790112985011      0.79167314915928
  N   -1.96034454760339     -0.50492521082649      0.27096027976554
  O   -3.02774918698262      0.09877230883894      0.11535791897835
  O   -1.88908614240437     -1.67760520891106      0.67548868775918
  N   -0.99278952243612      1.59231599391236     -0.21230878638550
  H   -1.77885031624413      1.74921195425586     -0.82867778465193
  H   -0.17443358452114      2.08793398661977     -0.52827367336589
