15
Coordinates from ORCA-job run
  C   0.52771949089050     -0.35162531637123      0.12488644823737
  C   -0.69782833082400      0.25348959383183      0.01383987360855
  C   1.74332858752153      0.48720696517239     -0.15087888632604
  H   1.63374816094221      1.45733317375722      0.33354372595225
  H   1.86187728737364      0.67550772183566     -1.22184801967494
  H   2.64574809845979     -0.00594100169987      0.21579174016426
  N   0.75962115496768     -1.63685894824210      0.50399352846034
  H   -0.04042397531419     -2.24745181063445      0.56229013423884
  H   1.64178343828921     -2.03992018211423      0.23854041419549
  N   -1.92498136101047     -0.45037769497246      0.28624595746892
  O   -2.98382043437033      0.17737689555294      0.16089193327302
  O   -1.87930436027836     -1.63814221608795      0.64813855916551
  N   -0.81025493705998      1.61162888390677     -0.34696036521875
  H   -1.69665361612964      1.97048952498468     -0.01620011028544
  H   -0.78055920345760      1.73828441108079     -1.35227493325938
