15
Coordinates from ORCA-job run
  C   0.53248283914121     -0.35146283722737      0.02336131417850
  C   -0.69177412798496      0.26786119072040     -0.01769134216408
  C   1.77258242295051      0.44615703489731     -0.26291525912558
  H   2.55541455078470      0.19735101123595      0.45980453015438
  H   1.57117538952933      1.51179945585910     -0.22993364862927
  H   2.14700892482308      0.18884636150105     -1.25839204163154
  N   0.74413496292615     -1.68018513493954      0.20405995798172
  H   -0.03696825561816     -2.23786020118384      0.51138573136969
  H   1.67128876566186     -1.96898362472644      0.46341464476059
  N   -1.91607349679896     -0.44951834590905      0.27182758690367
  O   -1.87690616904636     -1.67007100389794      0.49851414676350
  O   -2.96069518731938      0.20969996503756      0.29056882940957
  N   -0.81999939926854      1.64616244163598     -0.28796502946153
  H   -1.36824971265186      1.78983575469361     -1.12822502828349
  H   -1.32442150712860      2.10136793230321      0.46418560777387
