17

C	-0.521357	0.010617	-1.438844
C	0.0	0.0	0.0
Br	0.238295	1.486195	-2.378022
H	1.092884	0.0	0.0
N	-0.205837	-1.268435	-2.238509
O	-1.164928	-1.962244	-2.552912
O	0.967873	-1.463088	-2.481299
N	-2.048163	0.112317	-1.456985
O	-2.592989	0.568083	-2.449497
O	-2.607787	-0.336776	-0.460465
N	-0.371417	-1.298435	0.709349
O	-0.178136	-2.341144	0.094528
O	-0.779152	-1.215246	1.861986
N	-0.456542	1.155764	0.686974
H	-1.290102	0.949536	1.222177
H	0.275908	1.473569	1.309312
Br	3.346868	0.0	0.0
