17

C	-0.491944	-0.098983	-1.441523
C	0.0	0.0	0.0
Br	0.378257	-1.531753	-2.350194
H	1.10463	0.0	0.0
N	-2.022159	-0.1952	-1.577068
O	-2.512633	-1.045619	-2.292643
O	-2.621273	0.662384	-0.938685
N	-0.148345	1.19138	-2.195956
O	-0.888935	1.462782	-3.134831
O	0.844714	1.793336	-1.835608
N	-0.414758	-1.271143	0.732293
O	-1.506489	-1.770802	0.442574
O	0.315463	-1.638986	1.644352
N	-0.431546	1.166196	0.683042
H	-1.380108	1.118587	1.022019
H	0.232133	1.394429	1.413284
Br	3.439022	0.0	0.0
