17

C	-0.456345	-0.003274	-1.444473
C	0.0	0.0	0.0
Br	-2.317124	-0.46202	-1.671287
H	1.092111	0.0	0.0
N	-0.19915	1.43688	-1.965884
O	0.981051	1.686827	-2.160649
O	-1.147626	2.193509	-2.082352
N	0.38777	-0.89361	-2.400939
O	1.508195	-1.178338	-2.031949
O	-0.11175	-1.159867	-3.48831
N	-0.318472	-1.33038	0.641615
O	-0.177066	-2.342138	-0.058665
O	-0.923959	-1.314108	1.720631
N	-0.518159	1.125359	0.669629
H	-1.526688	1.081196	0.772179
H	-0.090794	1.215153	1.582818
Br	2.909171	0.0	0.0
