17

C	-0.514773	-0.012359	-1.456463
C	0.0	0.0	0.0
Br	-2.451754	0.239742	-1.558629
H	1.114979	0.0	0.0
N	0.149296	1.122153	-2.228546
O	-0.382358	2.270876	-1.94795
O	1.487312	1.072623	-2.157703
N	-0.156306	-1.264685	-2.174377
O	-0.613556	-1.289076	-3.400065
O	1.129107	-1.589713	-2.027424
N	-0.449244	-1.19007	0.759741
O	-1.72268	-1.11162	1.092175
O	0.364288	-1.458822	1.761003
N	-0.451348	1.193012	0.718771
H	-0.273945	1.056431	1.727397
H	0.144904	1.987653	0.438786
Br	2.654178	0.0	0.0
