17

C	-0.409362	-0.009361	-1.451519
C	0.0	0.0	0.0
Br	0.30662	1.545395	-2.332445
H	1.092423	0.0	0.0
N	0.185977	-1.296328	-2.055036
O	-0.569906	-2.261542	-2.118166
O	1.334578	-1.226554	-2.483298
N	-1.908601	-0.062225	-1.766937
O	-2.654127	0.428951	-0.919752
O	-2.204795	-0.252956	-2.942293
N	-0.368935	-1.359483	0.611475
O	0.5186	-1.926879	1.247753
O	-1.542897	-1.736629	0.558567
N	-0.497214	1.09672	0.735211
H	-1.499213	1.060756	0.868052
H	0.005642	1.194338	1.608764
Br	2.920736	0.0	0.0
