17

C	-0.449229	-0.014038	-1.491373
C	0.0	0.0	0.0
Br	0.593804	-1.310199	-2.535097
H	1.116379	0.0	0.0
N	-1.902839	-0.354346	-1.587132
O	-2.136947	-1.619482	-1.32626
O	-2.670585	0.513428	-0.978242
N	-0.176659	1.295529	-2.157696
O	-0.651278	1.347495	-3.370592
O	1.088278	1.636436	-2.029115
N	-0.360353	-1.195025	0.773874
O	-0.165762	-1.011909	2.070629
O	0.177372	-2.297385	0.283908
N	-0.439053	1.230659	0.649927
H	-1.367407	1.098778	1.080888
H	0.213386	1.449354	1.421355
Br	2.642766	0.0	0.0
