17

C	-0.489091	-0.009937	-1.478208
C	0.0	0.0	0.0
Br	0.177291	-1.561871	-2.468434
H	1.11485	0.0	0.0
N	-1.987093	-0.072954	-1.607151
O	-2.462203	-1.163841	-1.06255
O	-2.391783	0.165825	-2.829381
N	0.024978	1.21961	-2.155536
O	1.346475	1.269659	-2.115035
O	-0.60318	2.305126	-1.783633
N	-0.359901	-1.196417	0.779598
O	0.279153	-2.280943	0.383094
O	-0.313702	-0.978365	2.085231
N	-0.449764	1.224428	0.649594
H	-1.433854	1.130455	0.945058
H	0.111548	1.379083	1.505312
Br	2.643219	0.0	0.0
