14
Coordinates from ORCA-job run
  C   0.67439328317326      0.22552752683057     -0.37408161175321
  C   -0.30066283859434     -0.80859953067429      0.17142747774495
  F   0.42593463458278      0.41356152987334     -1.72605280065305
  H   -0.12729531280809     -1.73417961943108     -0.38433451099160
  H   -0.03875675411236     -1.01208794346732      1.21558845915738
  C   2.06731165543531     -0.29397891898026     -0.28906529191827
  N   3.16660231882588     -0.68629205447138     -0.15702068399868
  N   0.50224673072839      1.49588693049378      0.26268043646349
  H   1.22202633296490      2.14691491168632     -0.02679849998681
  H   0.52474877564937      1.40234808988876      1.26994812711304
  C   -1.75376754450341     -0.36670229443746      0.03810365523352
  H   -1.96097967101386      0.52053165144882      0.63542263518605
  H   -2.41783916283233     -1.16912380198726      0.36573718103598
  H   -1.98496244749551     -0.13380647677254     -1.00155457263280
