14
Coordinates from ORCA-job run
  C   0.62805138658042      0.33208209567136     -0.31296624816298
  C   -0.77637059432528      0.22747021744931      0.26272656093434
  F   0.58919674842784     -0.20297398981749     -1.62013406747761
  H   -1.41183482411762      0.87898289609730     -0.34844767337117
  H   -0.74845977803350      0.64636284914565      1.27186387201796
  C   1.57913179961379     -0.51723821610026      0.43575796044063
  N   2.31618261561523     -1.20049405807042      1.04170381301625
  N   1.09375233686198      1.66799197078963     -0.30018065663582
  H   0.44604979580277      2.27466634058232     -0.78675271436535
  H   2.01284496827893      1.74563256076362     -0.71698724321956
  C   -1.32423001020914     -1.19386478493543      0.26565104651682
  H   -2.34522765492915     -1.20246708279714      0.65202850402845
  H   -1.33653218070468     -1.60724423747994     -0.74335467647566
  H   -0.72155460886159     -1.84890656129850      0.89909152275370
