14
Coordinates from ORCA-job run
  C   0.73236939580671      0.74324051976794     -0.11660978129472
  C   -0.58426553552660     -0.00220300491793     -0.41003656817727
  F   0.55851092173806      2.04561297913360     -0.51850386943873
  H   -0.96020655434832      0.30015761564812     -1.38892294991807
  C   1.11887444317252      0.71319535978984      1.29981211072708
  N   1.46503011844703      0.72148948737324      2.42260933893732
  C   1.79544256467067      0.14248579042766     -0.94140949010970
  N   2.62536328685382     -0.32587925219898     -1.62933192047660
  N   -1.65900179466124      0.30702740022403      0.60768125814567
  O   -2.52087299092904     -0.54828745372392      0.74581772451486
  O   -1.59097426289120      1.40558711204448      1.14091391207225
  N   -0.37702190234681     -1.47962492840947     -0.41023203949799
  O   0.19943188720394     -1.92639576274373      0.57729733223507
  O   -0.80367957718954     -2.09540586241488     -1.37908505771916
