14
Coordinates from ORCA-job run
  C   0.99486657035097      0.22891749683631     -0.24549529413847
  C   -0.44478585966847     -0.26311008165351     -0.49486587494234
  F   1.79899747968870     -0.37805084030263     -1.17958268982354
  H   -0.63884446825198     -0.28525940137782     -1.56856351069450
  C   1.03412115833573      1.68355428257227     -0.47687972541169
  N   1.05930936583676      2.83841262799627     -0.69333133007530
  C   1.48948299168869     -0.07842564524999      1.10271851592713
  N   1.92908270745912     -0.31267982508451      2.16693584378316
  N   -1.44078676635150      0.63674400286160      0.15563621829814
  O   -2.37206227482867      1.02119306619136     -0.54064734853838
  O   -1.22242570234726      0.89179070885984      1.33641541334200
  N   -0.67206284359510     -1.65938965573060      0.03968326649447
  O   -1.81931873261001     -1.92790736270986      0.36341998463562
  O   0.30442637429302     -2.39578937320875      0.03355653114370
