14
Coordinates from ORCA-job run
  C   0.71834610375104      0.75868922906262     -0.10292836977695
  C   -0.58319262110429     -0.00658760606123     -0.41479236243396
  F   0.52518700120840      2.06283028917144     -0.48931087333571
  H   -0.96407140955360      0.30854959331652     -1.38772037706199
  C   1.09203858995058      0.71689813303727      1.31668008066542
  N   1.42401678824876      0.71737071982616      2.44383839970652
  C   1.79979145704655      0.18823664351191     -0.92515378849320
  N   2.64707091072221     -0.25517170254354     -1.60830166573196
  N   -1.66358450727685      0.26304625669854      0.60839557953543
  O   -1.63845342126361      1.36998209944855      1.12798357352650
  O   -2.48607726360491     -0.62698665063413      0.76495512524482
  N   -0.34700441180462     -1.47907859791510     -0.44433537377180
  O   0.24989248078460     -1.93247208032282      0.52775159233872
  O   -0.77395969710425     -2.08530632659618     -1.41906154041183
