14
Coordinates from ORCA-job run
  C   0.98648048359887      0.17417056097424     -0.31289777387731
  C   -0.50413178496679     -0.18431799070278     -0.47218581333182
  F   1.65773627729213     -0.40945986088200     -1.36008390987234
  H   -0.78816588197576     -0.09465547789041     -1.52208291191629
  C   1.12645332441117      1.63602160563486     -0.43201749140307
  N   1.22980691043092      2.79942306520860     -0.56315724044614
  C   1.56425619150311     -0.28371161476715      0.95708555467060
  N   2.07181585383637     -0.63695858641971      1.95620459812861
  N   -1.36583269646322      0.72494404595877      0.33792549422286
  O   -1.02989217893815      0.85594099521521      1.51134517173703
  O   -2.31709136860089      1.23859892347208     -0.23743720706128
  N   -0.80158384548090     -1.60206421776362     -0.03733627859906
  O   0.11245526685561     -2.40343238969746     -0.17176602603082
  O   -1.94230655150249     -1.81349905834064      0.34640383377903
