14
Coordinates from ORCA-job run
  C   0.96524812301334      0.24151624184120     -0.21097183093968
  C   -0.47282083278643     -0.24872864750506     -0.44623142525109
  F   1.76675055191295     -0.66192151856616     -0.88022114438105
  H   -0.72646444038542     -0.18781579469502     -1.50513866940870
  C   1.13508493281045      1.56598048781427     -0.82427129168085
  N   1.27041068607230      2.59745174971630     -1.37061697667940
  C   1.36448146932817      0.27336192852229      1.20174155458847
  N   1.76303155977702      0.32123707899230      2.30623682452006
  N   -1.48982725413519      0.53582677280536      0.32947781712145
  O   -1.09761479284705      1.55011220782632      0.89661456509625
  O   -2.62689609284445      0.08886900239862      0.28899170417690
  N   -0.59212005600732     -1.68456353484797     -0.03076299399318
  O   -0.77865820114333     -2.49523164638530     -0.92857970079761
  O   -0.48160565276504     -1.89509432791716      1.17173156762840
