14
Coordinates from ORCA-job run
  C   0.81265053902096      0.30840090980845     -0.41665264661027
  C   -0.43592374762022     -0.07781663805158      0.39662156971529
  F   0.54000264232635      0.18665530896277     -1.75211220709059
  H   -0.37103247007526      0.25747160710126      1.43181271088253
  C   1.18747762284590      1.70354421955864     -0.12623432053859
  N   1.53596256802620      2.80090359809709      0.10880557762637
  C   1.93935628056158     -0.55985476551710     -0.03777152677460
  N   2.85510864582083     -1.20924167772677      0.30915797617425
  N   -0.69345849010570     -1.55127176866219      0.40289704169480
  O   -0.23433977269590     -2.21212260095303     -0.52103987430739
  O   -1.39023444316382     -1.93897741032206      1.33404059453728
  N   -1.64075871947652      0.59513187961710     -0.22887288179470
  O   -1.66843702182452      1.80769066331163     -0.07068965080389
  O   -2.43537363363988     -0.11051332522422     -0.82896236271050
