14
Coordinates from ORCA-job run
  C   0.96192746586210      0.20921469637988     -0.25482832178404
  C   -0.51173071350222     -0.19131875538654     -0.43168109175230
  F   1.67240495783336     -0.67937725340187     -1.03703504450302
  H   -0.82309974782498     -0.04487370315103     -1.46651314651083
  C   1.16457074877450      1.56617705098693     -0.78115996180510
  N   1.33160002830800      2.62566157516885     -1.26130860495017
  C   1.44702983916367      0.11467295963829      1.12778389511007
  N   1.91545382767167      0.04033307672563      2.20295242743576
  N   -1.43729956791505      0.58773551267719      0.45578574509314
  O   -2.60009437797657      0.21059963247485      0.44526085234600
  O   -0.95513528032341      1.53007995102703      1.07540884785568
  N   -0.68434468615529     -1.64485913270840     -0.10479462996426
  O   -0.53214119642691     -1.94032048512741      1.07506420768165
  O   -0.94914129748888     -2.38372512530341     -1.04393517425257
