14
Coordinates from ORCA-job run
  C   0.73779983795797      0.69391978025431     -0.09087726257666
  C   -0.57418147245995     -0.04909554682841     -0.39090274871477
  F   0.41399412196432      2.03464394762437     -0.15261065398984
  H   -0.90789375042515      0.16536333017580     -1.40673491105551
  C   1.30139316990911      0.40413348972793      1.23360425987159
  N   1.80028897125805      0.24334158086664      2.28536712255222
  C   1.71776506917838      0.39715048475846     -1.14492502437594
  N   2.47357342178976      0.20563585479566     -2.02415828457316
  N   -1.64621666866349      0.41612489901967      0.54914563003940
  O   -1.49306479823709      0.09466815780910      1.72206949527471
  O   -2.55361063184575      1.07179404287857      0.05440631513702
  N   -0.44895378848007     -1.53643206321873     -0.23797809747681
  O   -1.49885857654128     -2.15475638832748     -0.33702398065671
  O   0.67796509459520     -1.98649156953589     -0.05938185945554
