14
Coordinates from ORCA-job run
  C   0.70622352430526      0.75710344659442     -0.18168296674441
  C   -0.58135867648662     -0.05862203943090     -0.41184113888090
  F   0.49066647969745      2.01047146422811     -0.70123405321035
  H   -0.96443579429443      0.14432038919637     -1.41336572514600
  C   1.07954651355959      0.86928029046541      1.23405861834731
  N   1.41056063972578      0.98628467895027      2.35529892956256
  C   1.79720849445872      0.12133459798552     -0.94073883163734
  N   2.65045195752537     -0.38294560636234     -1.57254537915973
  N   -1.66982672343851      0.29890048503319      0.57533594026452
  O   -1.65584493778626      1.44935733836096      0.99000841611866
  O   -2.48595997695329     -0.57935019170507      0.81052181858305
  N   -0.32144281068825     -1.52218007460576     -0.28439578061100
  O   0.27911544852552     -1.86008694985460      0.73155276007354
  O   -0.73390413815034     -2.23486782885556     -1.19097260755991
