14
Coordinates from ORCA-job run
  C   0.75085898713650      0.68332071016731     -0.06569718391006
  C   -0.57621105994636     -0.02220498974385     -0.38953022994196
  F   0.45161414291960      2.03125907123810     -0.07114412941852
  H   -0.90756139306712      0.23653359554636     -1.39579055941955
  C   1.31534635454266      0.32877072820672      1.24258366659703
  N   1.82559284783404      0.10653592048325      2.27757283925786
  C   1.72050105701130      0.41177314149299     -1.13594908641205
  N   2.46415677537306      0.23227686659847     -2.02794864916406
  N   -1.63667502980148      0.42985968642421      0.57010784192373
  O   -2.53860636337208      1.11061192431271      0.09997770715627
  O   -1.48035179886980      0.07330149752875      1.73238066533090
  N   -0.48081390642978     -1.51643300191290     -0.29194919452292
  O   -1.54428879303622     -2.10910631015848     -0.40215355950203
  O   0.63843817970568     -1.99549884018364     -0.14346012797464
