14
Coordinates from ORCA-job run
  C   0.66873270989320      0.65573319490685     -0.22744654353051
  C   -0.25551290369043     -0.50352278594734      0.18757791702631
  F   0.04809897830379      1.40986071264458     -1.18589333466246
  H   0.28194044681948     -1.28334876563737      0.72732164789821
  C   0.99094006307270      1.47942942022545      0.94918524814002
  N   1.29885515120234      2.10024583990654      1.89817176038940
  C   1.92800052704943      0.12073591736090     -0.77436526304524
  N   2.95805775828694     -0.27162134523987     -1.18162453552172
  N   -0.83183684634146     -1.12740768339333     -1.06734186251582
  O   -2.01806298461289     -0.95207569248578     -1.29389038235023
  O   -0.01159144013491     -1.73927707482820     -1.73721292300068
  N   -1.40148027837216     -0.05693816629246      1.03880705747314
  O   -1.75775356915556      1.11146180772853      0.94297120660345
  O   -1.89838761232047     -0.94327537894848      1.72474000709616
