14
Coordinates from ORCA-job run
  C   0.95923661946193      0.22179435100183     -0.25489278295936
  C   -0.51644309235694     -0.17033335712529     -0.43502899480638
  F   1.66106707965422     -0.62795094067471     -1.08639888413470
  H   -0.83860395390493      0.02521996487027     -1.45836613049762
  C   1.15656766945262      1.60254084834727     -0.71738920683443
  N   1.31904722830087      2.68405306682631     -1.14741419784424
  C   1.45884965987052      0.06096346536798      1.11637527095178
  N   1.93887296116934     -0.06510110567288      2.18156773582539
  N   -1.43227902282848      0.56465997522790      0.49887604111188
  O   -2.59551900743095      0.18928020313162      0.48112079092408
  O   -0.94299798756723      1.47501512233549      1.15941716837024
  N   -0.68532540871486     -1.63813657205158     -0.17637616825816
  O   -0.95949133303403     -2.33145542077851     -1.14704047182743
  O   -0.52198141207207     -1.98954960080573      0.98654982997895
