14
Coordinates from ORCA-job run
  C   0.73988751071567      0.69255816732169     -0.08087670940451
  C   -0.57745029094292     -0.03786524864389     -0.38823394092968
  F   0.42225773737296      2.03574608370517     -0.11130121825590
  H   -0.91830129929193      0.20203759920759     -1.39594055994925
  C   1.31031600202436      0.37172826801615      1.23369382900637
  N   1.81489936271571      0.18677058759681      2.27872779856060
  C   1.71238082156492      0.41437115969404     -1.14687908426635
  N   2.46225819949055      0.23933258915688     -2.03454679959354
  N   -1.64001811076448      0.41012009060089      0.57128018631519
  O   -1.48026372709225      0.05879757491584      1.73464130448218
  O   -2.54683476941122      1.08322609768439      0.09955083365492
  N   -0.45716724901685     -1.52850926537786     -0.27133841879295
  O   -1.50962353582383     -2.14068633769431     -0.38128530849040
  O   0.66865934845933     -1.98662736618338     -0.10649191233667
