14
Coordinates from ORCA-job run
  C   0.68397004375910      0.67502225533299     -0.11848695401366
  C   -0.29427026309711     -0.47148733253514      0.18592493814949
  F   0.06136648297858      1.62046319493453     -0.88515340570219
  H   0.10381233161366     -1.15815234897625      0.93314833221555
  C   1.11139014898187      1.29356491956458      1.14948398187772
  N   1.47886205357677      1.79136719338022      2.14868503712649
  C   1.87383523925329      0.14671106656845     -0.80517503351111
  N   2.85512752880185     -0.28197332208354     -1.28900067940186
  N   -0.65881418487533     -1.27244683356646     -1.02819231374429
  O   -0.33624958198324     -0.83951612036384     -2.12728768476657
  O   -1.28030445980446     -2.29713438513678     -0.77453631147397
  N   -1.57238036384836      0.11707049500934      0.73563745578833
  O   -1.55827375140298      0.32982430689961      1.94158395028925
  O   -2.46507122395364      0.34768691097228     -0.06663131283319
