14
Coordinates from ORCA-job run
  C   0.71309221380269      0.76361978812114     -0.10760850873600
  C   -0.58492846483643     -0.00981094682501     -0.40979312518629
  F   0.50450546664593      2.06736491383050     -0.48709926868691
  H   -0.96395153969295      0.28697726107211     -1.38910961779925
  C   1.10872355203207      0.71777207040954      1.30580299351043
  N   1.47297216977227      0.70682189217761      2.42287254589603
  C   1.78636439529871      0.20080271744946     -0.94569743714985
  N   2.62659845274426     -0.24256839050887     -1.63759677547158
  N   -1.67159574624971      0.26608866932207      0.60383232597241
  O   -1.60775489576661      1.34029289141054      1.18533643646805
  O   -2.53837931575983     -0.59080150183914      0.69252513780339
  N   -0.34196289949970     -1.48251694678452     -0.41605270885228
  O   -0.70458871318076     -2.09649046463749     -1.41183653164039
  O   0.19890532469007     -1.92655195319794      0.59242453387224
