14
Coordinates from ORCA-job run
  C   0.75345844604689      0.58602952136221     -0.16142178851569
  C   -0.34037488712013     -0.42963384254311      0.20879264001968
  F   0.37645418882947      1.28020765439918     -1.27753090011405
  H   -0.00324082978995     -1.13025529846169      0.97287149122349
  C   0.98507801712681      1.49867679440498      0.96997368047755
  N   1.22322941809519      2.17653118403130      1.89984376789831
  C   2.00841631755096     -0.13251110032554     -0.44571130812804
  N   3.02578430520285     -0.67983602231836     -0.66107782560323
  N   -0.69637014860765     -1.22800365099949     -1.02406251033363
  O   0.06112952882910     -2.16077880263920     -1.25934707133857
  O   -1.66559408829898     -0.85509821518604     -1.66760867715964
  N   -1.60000435833060      0.21751858065254      0.70087730658907
  O   -1.73806122040569      1.42194930791189      0.52734183496545
  O   -2.38890468912826     -0.56479611028866      1.21705936001930
