14
Coordinates from ORCA-job run
  C   0.73100359175326      0.73402884642998      0.17219942102996
  C   -0.60142288766832     -0.01116871526445      0.38469442863546
  F   0.54819528268619      2.02376312735037      0.60883999104591
  H   -1.02047682135833      0.26469640133201      1.35380738004918
  C   1.75508541546290      0.09950801646277      1.02049323896134
  N   2.55425197276580     -0.39235811319709      1.72807210184483
  C   1.17506461366899      0.74713936094488     -1.22757701431721
  N   1.56317676933635      0.79193822240285     -2.33571605010166
  N   -0.40271950575870     -1.48928278751200      0.35100152121708
  O   -0.88469228155842     -2.13055936150948      1.27639348455486
  O   0.22309656809391     -1.91084699040822     -0.61734219897161
  N   -1.62693681873577      0.33472033286557     -0.67175278905281
  O   -2.47628189019814     -0.51669072524718     -0.88802038111207
  O   -1.53734400848971      1.45411238535000     -1.15609313378325
