14
Coordinates from ORCA-job run
  C   0.85733726349657      0.29923500876758      0.33617389210708
  C   -0.48616526981975     -0.05534170434150     -0.32299453668597
  F   0.96097480921850     -0.33820823962508      1.54102102203496
  H   -0.68570284558057      0.56344527019976     -1.19793700870551
  C   1.96403550829896     -0.08335919939330     -0.55579859485463
  N   2.84527168512788     -0.31821759939409     -1.29665041402897
  C   0.91718341790548      1.75519578857652      0.55820881791189
  N   0.99307976858213      2.91510320507750      0.73130309716133
  N   -1.59361304776411      0.18620790916448      0.67540214093304
  O   -1.95745240213577     -0.77035109801151      1.34319693095510
  O   -1.98697147028930      1.34481283897947      0.72767788828867
  N   -0.57234803214643     -1.49170247961211     -0.74586568753605
  O   -1.54409245534282     -1.74207544133802     -1.44852196434839
  O   0.28746307044923     -2.26674425904970     -0.34621558323257
