14
Coordinates from ORCA-job run
  C   0.66734359503507      0.63746988406568     -0.27779158850463
  C   -0.25527249532333     -0.48753147667129      0.22517050978583
  F   0.03817454096428      1.32771309353259     -1.27771148218889
  H   0.28523537879624     -1.22777108177509      0.81520601448670
  C   1.00645592395985      1.53647462374264      0.83749039672477
  N   1.32925706328673      2.21699967671661      1.73942464317833
  C   1.91828325580067      0.06161338594812     -0.80208249600749
  N   2.94192992358425     -0.36063114222123     -1.19545801854426
  N   -0.84201922943561     -1.19787171847054     -0.97736945111987
  O   -0.03127280838211     -1.86959359826450     -1.60006276606237
  O   -2.02620912159837     -1.02357416965293     -1.21573310428957
  N   -1.39455801081343      0.02007782508043      1.05112739041991
  O   -1.89451630644159     -0.81833234461857      1.79267063734848
  O   -1.74283170943265      1.18295704258809      0.88511931477306
