14
Coordinates from ORCA-job run
  C   0.62784363326850      0.66982166599670     -0.29398752549626
  C   -0.28010211490478     -0.40078101697624      0.33767955731629
  F   -0.06943573744216      1.34461120399150     -1.25867008452251
  H   0.12221464590920     -0.77599661532850      1.27875767199558
  C   1.06949391387689      1.62371768351064      0.73866356315564
  N   1.46984718956844      2.38150105885997      1.54261804859879
  C   1.82186234508198      0.03028182559387     -0.87052935865302
  N   2.80508950816756     -0.47082140891699     -1.27421634473457
  N   -0.51464490154030     -1.57095140818769     -0.56431995279663
  O   -0.86836039635471     -2.59218714455172      0.01432139037993
  O   -0.37747213721466     -1.39634194648057     -1.76925922861316
  N   -1.62689689252876      0.22748411474715      0.63203391226515
  O   -1.60630345345972      1.03652313013325      1.54929846324596
  O   -2.57213560242750     -0.10786114239137     -0.06339011214118
