14
Coordinates from ORCA-job run
  C   0.74154399774151      0.69249029771978     -0.06993510421476
  C   -0.57301984084986     -0.03589439478306     -0.39400933152436
  F   0.42458563132424      2.03592679849718     -0.09753059728347
  H   -0.90194282665004      0.20731198223071     -1.40491471574100
  C   1.29899520153377      0.36506751169306      1.24836980701472
  N   1.79319407372914      0.17400166596435      2.29726297649554
  C   1.72361454768705      0.41841570642174     -1.12822519316939
  N   2.48161876653433      0.24628796780950     -2.00955384130042
  N   -1.64618807385723      0.40964033409227      0.55439039248830
  O   -1.49865026589012      0.05664087682117      1.71891188127486
  O   -2.54874238848941      1.08237912412304      0.07398996272878
  N   -0.45551661915081     -1.52723334096170     -0.28018452685046
  O   0.66838303869243     -1.98741454276876     -0.10838429085266
  O   -1.50787524235502     -2.13761998685929     -0.40018741906568
