14
Coordinates from ORCA-job run
  C   0.98678461973952      0.25806312357270     -0.24446803256448
  C   -0.44062660517908     -0.26267290625316     -0.49372735058565
  F   1.79839053778603     -0.32494132430967     -1.18733584113862
  H   -0.65619098737364     -0.23160650355312     -1.56295770618689
  C   0.98481118861333      1.71487377118820     -0.46723056200077
  N   0.96958076683413      2.87169157865817     -0.67482311022481
  C   1.49881173775227     -0.03809777085366      1.09970036706001
  N   1.96041165333456     -0.23947057580235      2.16121936303678
  N   -1.44686161927971      0.57818269688591      0.22078310230903
  O   -2.33154654870261      1.07914378554585     -0.46198537967782
  O   -1.27574479228108      0.67937377250611      1.43212986611050
  N   -0.63159500982356     -1.68727865820203     -0.03047612358567
  O   0.37934328300352     -2.36580625935057      0.08815561732938
  O   -1.79456822442369     -2.03145473003240      0.12201579011900
