14
Coordinates from ORCA-job run
  C   0.69018217014876      0.77834288359732     -0.13704729753824
  C   -0.57857299910987     -0.04965617919904     -0.41028599219316
  F   0.43661062056753      2.05749960152577     -0.56948615431720
  H   -0.94621173512328      0.17068490658011     -1.41371696068192
  C   1.08856813923788      0.80363716808421      1.27629500515115
  N   1.46129947597882      0.85566752654622      2.38931959992169
  C   1.78203425539116      0.21699716269561     -0.95227257431282
  N   2.63227285221495     -0.23207252130110     -1.62825362983976
  N   -1.69478390355156      0.25166753577502      0.56073091578591
  O   -1.63213509384396      1.31781866476928      1.15754062020118
  O   -2.58331828034442     -0.58685769958501      0.60288879930368
  N   -0.29018265841328     -1.51241441223322     -0.31893353860701
  O   -0.54375616721387     -2.18696856354203     -1.30893867192569
  O   0.17899332406115     -1.88534607371314      0.75215987905218
