14
Coordinates from ORCA-job run
  C   0.97708223801068      0.20193779211029     -0.32529781744944
  C   -0.50754364943816     -0.18127014782589     -0.46437878543217
  F   1.63847037898110     -0.35522414607141     -1.39266466481406
  H   -0.82535761482788     -0.03189304965419     -1.49750282676994
  C   1.07803281875503      1.66871895516871     -0.42654577814985
  N   1.13772653572808      2.83762231648785     -0.53291631399902
  C   1.59105725041947     -0.25218568413594      0.92906326231492
  N   2.13558984362840     -0.58294245226196      1.91636009263913
  N   -1.36092253651485      0.66359264457198      0.42400582701574
  O   -1.07283506586674      0.62226001640913      1.61638095200412
  O   -2.25015745694293      1.30879606902954     -0.11701950136864
  N   -0.77539753579439     -1.62382289452347     -0.10842542955994
  O   0.18129729462340     -2.38545119469806     -0.14185145225079
  O   -1.94604250076120     -1.89113822460659      0.12079243581993
