14
Coordinates from ORCA-job run
  C   0.70771743341518      0.75769479992605     -0.15795952802013
  C   -0.58412378863002     -0.04283145046891     -0.40624501400415
  F   0.48530258213016      2.03305671680312     -0.61755767945091
  H   -0.95568694098484      0.17230942645677     -1.40950515237344
  C   1.11398661557873      0.80491008263611      1.25243492143557
  N   1.49667351600984      0.87787598598621      2.36104329594962
  C   1.78068859091829      0.15042436736907     -0.96521420143709
  N   2.61755133163793     -0.33301535939496     -1.63417456093621
  N   -1.68171725662070      0.30176437583922      0.57180120837677
  O   -2.57874851702091     -0.52401564400525      0.65709812229385
  O   -1.59625222332320      1.38579348273373      1.13218874353334
  N   -0.33123863106829     -1.51058041582922     -0.29347298917617
  O   0.14333550408064     -1.87610886451146      0.77782101148471
  O   -0.61648821612282     -2.19627750354047     -1.26725817767575
