14
Coordinates from ORCA-job run
  C   0.96072118823686      0.25847399833532     -0.20763913489143
  C   -0.47406404951150     -0.23643609920122     -0.45218546545348
  F   1.76663783580557     -0.61186542041114     -0.91439637751689
  H   -0.73199146601185     -0.14511190707499     -1.50783222865437
  C   1.11483865699110      1.60624746532227     -0.77255681300319
  N   1.24894012827207      2.65656408464884     -1.28226601111672
  C   1.36862010442826      0.24035298617048      1.20279201530935
  N   1.77927218338787      0.22960665890832      2.30377153586754
  N   -1.49390698600496      0.51527655202945      0.35106935282780
  O   -2.63003888837340      0.06813969281227      0.28998369910722
  O   -1.10495747478570      1.50685289060742      0.95950034898427
  N   -0.57992175652173     -1.68582715974556     -0.08099099609956
  O   -0.74441321994564     -2.47127379261903     -1.00514848703063
  O   -0.48073625596696     -1.93099994978241      1.11589856167010
