14
Coordinates from ORCA-job run
  C   0.73769366063210      0.69982714867587     -0.02088727422099
  C   -0.51718987707879     -0.07113698988902     -0.46160150915347
  F   0.41523627978092      2.03281857950042     -0.18141877090218
  H   -0.71754412176135      0.10517986964435     -1.51898240436239
  C   1.12029338537765      0.47201644392541      1.37810394598590
  N   1.47311448606737      0.36238907483719      2.49366234883299
  C   1.85181368105144      0.37307579851510     -0.92155535654260
  N   2.71990767520826      0.15567431029443     -1.68318111988045
  N   -1.70650862598416      0.41183100562086      0.31499596020861
  O   -1.71304637438132      0.11725554207133      1.50476785551944
  O   -2.53796718973209      1.05469053868784     -0.31223782396328
  N   -0.39981127276197     -1.54988635318227     -0.24061919686740
  O   -1.41809778975061     -2.18679191069152     -0.46891836410982
  O   0.69310608333254     -1.97694305800999      0.11687170945567
