14
Coordinates from ORCA-job run
  C   0.98343135829012      0.16531289869942     -0.20010636504715
  C   -0.50798808078637     -0.09451196682199     -0.46752216502818
  F   1.65530837900738     -0.66541436321911     -1.07475773564246
  H   -0.76712772031806      0.20146051934034     -1.48462665675837
  C   1.30304360325749      1.55978322558545     -0.53550666305595
  N   1.56354265225511      2.65715717000723     -0.86548088176753
  C   1.40992554488551     -0.14741625870763      1.16950292369087
  N   1.83261063102287     -0.40073782401756      2.23633970460429
  N   -1.40662306913449      0.63814849646968      0.48377353583968
  O   -2.59472290510825      0.36937600829674      0.37968349343243
  O   -0.87862219741211      1.44198715514388      1.24512732320418
  N   -0.79867823042244     -1.55994809437205     -0.33058079080024
  O   -1.06086914901353     -2.15883810703062     -1.36526246398269
  O   -0.73223081652323     -2.00535885937380      0.80941674131111
