14
Coordinates from ORCA-job run
  C   0.74423953801149      0.68976383807763     -0.06865749440521
  C   -0.57108557687185     -0.03559329148837     -0.39650346168913
  F   0.43108152076933      2.03414497011573     -0.10125123391424
  H   -0.89487123460651      0.20551400698128     -1.40956180111448
  C   1.29466392408185      0.36458410290096      1.25309572593741
  N   1.78359047957337      0.17568966321659      2.30488929963280
  C   1.73014700054396      0.41028695477735     -1.12183953012527
  N   2.49062063610832      0.23293345026086     -1.99998633187742
  N   -1.64692916882947      0.41651918188566      0.54583342402953
  O   -2.54515144595206      1.09077238845622      0.05941031553534
  O   -1.50567081815440      0.06663115339404      1.71208795127657
  N   -0.45862500371996     -1.52688846381429     -0.27728283211302
  O   0.66337009833395     -1.98981264899490     -0.10038825060800
  O   -1.51237994928802     -2.13454530576877     -0.39884578056488
