14
Coordinates from ORCA-job run
  C   0.75488339117443      0.68261370375699     -0.00558504077006
  C   -0.52472118820134     -0.03958066040643     -0.45764432006457
  F   0.46740217679803      2.02821589437561     -0.11698192877112
  H   -0.73687772660889      0.18469132460734     -1.50345702998329
  C   1.14520978443512      0.39669028946520      1.38071433790823
  N   1.50387707347968      0.24127552182560      2.48893337937951
  C   1.85007814308825      0.35606820711385     -0.92936761305054
  N   2.70318965140964      0.14009820301312     -1.70814888123004
  N   -1.68981037410173      0.43965170737512      0.35746679563216
  O   -2.50420506099772      1.14360472040202     -0.22464598632176
  O   -1.69491714149438      0.08152950256060      1.52980706980481
  N   -0.44055446325285     -1.52828864111206     -0.29943902166906
  O   -1.47199727260825     -2.13131468554456     -0.55906548588625
  O   0.63944300688002     -1.99525508743240      0.04741372502197
