17

C	-0.156657	0.009674	-1.520643
C	0.0	0.0	0.0
Cl	-1.931279	0.098419	-2.011965
H	1.100404	0.0	0.0
N	0.487425	1.15307	-2.138049
H	0.041192	2.013352	-1.839934
H	1.444585	1.143929	-1.766342
N	0.402833	-1.210972	-2.010921
H	0.564853	-1.090942	-3.005228
H	1.313165	-1.311238	-1.553209
C	-0.517504	-1.209863	0.611837
N	-0.913222	-2.166159	1.170495
C	-0.491089	1.241816	0.7273
H	-1.566842	1.391835	0.600423
H	0.044619	2.122198	0.365418
H	-0.270767	1.146683	1.793015
H	2.733789	0.0	0.0
