17

C	-0.312963	-0.073614	-1.515247
C	0.0	0.0	0.0
Cl	-0.147153	1.689824	-2.184389
H	1.096531	0.0	0.0
N	0.622105	-0.954083	-2.063427
H	0.586652	-0.956332	-3.073802
H	1.562462	-0.765746	-1.695373
N	-1.639594	-0.456679	-1.944331
H	-2.321369	0.192386	-1.568875
H	-1.81678	-1.380356	-1.561141
C	-0.468178	-1.247188	0.585749
N	-0.881929	-2.232246	1.078789
C	-0.537522	1.191284	0.780805
H	-0.392789	1.015671	1.849424
H	0.017686	2.08647	0.5053
H	-1.604079	1.363414	0.601054
H	2.770072	0.0	0.0
