17

C	-0.333243	-0.058414	-1.501629
C	0.0	0.0	0.0
Cl	0.131923	1.602363	-2.206856
H	1.095114	0.0	0.0
N	0.489537	-1.004629	-2.205074
H	0.22331	-1.923854	-1.86367
H	1.454766	-0.834051	-1.905904
N	-1.698168	-0.355975	-1.768382
H	-1.840376	-0.345319	-2.772176
H	-2.302864	0.332469	-1.337791
C	-0.41945	-1.26321	0.594924
N	-0.733944	-2.271346	1.112966
C	-0.524806	1.172867	0.819358
H	-0.170926	1.067092	1.847797
H	-0.12596	2.106136	0.422843
H	-1.619061	1.225173	0.838665
H	2.771925	0.0	0.0
