17

C	-0.286172	0.254063	-1.478371
C	0.0	0.0	0.0
Cl	0.10382	-1.462756	-2.376251
H	1.097199	0.0	0.0
N	-1.632388	0.571999	-1.783394
H	-1.720372	0.851131	-2.755018
H	-2.214221	-0.243046	-1.628795
N	0.627832	1.216084	-1.931597
H	1.558181	0.988023	-1.548338
H	0.669335	1.237189	-2.942268
C	-0.592465	-1.219103	0.508973
N	-1.088261	-2.163957	1.004736
C	-0.419582	1.201534	0.852375
H	0.061988	2.096374	0.456246
H	-0.067897	1.04763	1.876614
H	-1.501581	1.347912	0.853732
H	2.740889	0.0	0.0
