17

C	-0.294412	0.252616	-1.477487
C	0.0	0.0	0.0
Cl	0.044714	-1.468174	-2.378963
H	1.096916	0.0	0.0
N	-1.639149	0.603113	-1.764971
H	-2.241422	-0.186327	-1.559987
H	-1.742022	0.83571	-2.745858
N	0.633392	1.193839	-1.944527
H	1.563026	0.954983	-1.568783
H	0.663349	1.21868	-2.955367
C	-0.57972	-1.219511	0.522858
N	-1.054683	-2.167431	1.032903
C	-0.422145	1.199997	0.853478
H	-1.507652	1.313176	0.903146
H	-0.021203	1.069108	1.861884
H	0.01236	2.104024	0.425194
H	2.746104	0.0	0.0
