17

C	-0.208729	0.0358	-1.511988
C	0.0	0.0	0.0
Cl	-2.001551	0.168577	-1.92157
H	1.100231	0.0	0.0
N	0.463447	1.199854	-2.001573
H	1.412692	1.165518	-1.608841
H	0.527048	1.109434	-3.011299
N	0.262877	-1.161221	-2.177327
H	1.244169	-1.243635	-1.899144
H	-0.228716	-1.97244	-1.813907
C	-0.483854	-1.24156	0.571092
N	-0.872155	-2.244852	1.046733
C	-0.495274	1.216957	0.769314
H	-1.585665	1.238578	0.835326
H	-0.072226	1.204671	1.777636
H	-0.153702	2.117336	0.259624
H	2.734507	0.0	0.0
