15

C	-0.620196	-0.009332	-1.389468
C	0.0	0.0	0.0
Br	0.052799	-1.715954	-2.318958
H	1.090214	0.0	0.0
H	-0.335595	-0.904227	0.527642
N	-2.054262	-0.115756	-1.271062
H	-2.286166	-1.007022	-0.845265
H	-2.472282	-0.117945	-2.195929
N	-0.190744	1.104838	-2.142239
H	-0.85947	1.369658	-2.853251
H	-0.042137	1.865137	-1.486342
N	-0.398181	1.254706	0.64816
H	-1.31965	1.180672	1.055818
H	0.277757	1.472101	1.368645
Br	3.700695	0.0	0.0
