15

C	-0.607829	0.007857	-1.394101
C	0.0	0.0	0.0
Br	0.068217	1.697708	-2.335641
H	1.090214	0.0	0.0
H	-0.337294	0.906701	0.522797
N	-0.167187	-1.113401	-2.129774
H	-0.77918	-1.337533	-2.904747
H	-0.093339	-1.888039	-1.477283
N	-2.043942	0.108762	-1.283694
H	-2.458094	0.083259	-2.20934
H	-2.285499	1.0063	-0.878255
N	-0.411469	-1.251746	0.645286
H	0.235475	-1.458065	1.393015
H	-1.347302	-1.176137	1.015959
Br	3.758898	0.0	0.0
