15

C	-0.425943	0.097453	-1.464537
C	0.0	0.0	0.0
Br	-0.237446	-1.825276	-2.232839
H	1.100304	0.0	0.0
H	-0.404783	-0.897391	0.466751
N	-1.805393	0.440251	-1.730829
H	-2.386321	-0.344703	-1.460159
H	-2.000924	1.193737	-1.073525
N	0.410432	1.022075	-2.096428
H	0.198116	1.118596	-3.078589
H	1.394808	0.836262	-1.922885
N	-0.531398	1.195896	0.688779
H	0.070482	1.968804	0.423469
H	-0.387867	1.062276	1.683739
Br	3.642913	0.0	0.0
