15

C	-0.465177	0.077964	-1.449955
C	0.0	0.0	0.0
Br	0.122896	-1.674835	-2.314615
H	1.091457	0.0	0.0
H	-0.374632	-0.913451	0.48309
N	-1.873288	0.238176	-1.544598
H	-2.352405	-0.571261	-1.170773
H	-2.124205	0.360507	-2.518083
N	0.163866	1.129696	-2.206854
H	0.019324	1.958253	-1.630964
H	1.16632	0.951251	-2.198359
N	-0.40087	1.250425	0.650994
H	-1.342509	1.192595	1.013494
H	0.241425	1.438497	1.409705
Br	3.647831	0.0	0.0
