18

C	-0.024012	0.000398	0.010933
C	-0.660408	-0.118946	-1.366977
Cl	1.792474	-0.125547	-0.04907
H	-1.796928	-0.106447	-1.005364
C	-0.419498	1.284187	0.697652
H	-1.510842	1.250374	0.740993
H	-0.073306	2.130903	0.104868
H	0.008331	1.338468	1.696614
N	-0.434235	-1.179397	0.901452
O	-0.719597	-0.940169	2.066736
O	-0.367697	-2.300737	0.412771
C	-0.381416	-1.364367	-2.211306
H	-0.956362	-2.20628	-1.834342
H	0.67874	-1.634475	-2.218439
H	-0.692645	-1.164349	-3.240208
C	-0.341014	1.072176	-2.127357
N	-0.110997	2.019737	-2.788126
F	-2.838482	-0.221594	-0.050805
