13

C	0.0	0.0	0.0
C	-0.393312	-0.46484	-1.407405
Cl	1.734645	0.0	0.0
H	0.451356	-0.979711	-1.87361
H	-0.635995	0.43208	-1.972267
H	-1.280483	-1.083761	-1.374461
N	-0.467276	1.375326	0.407085
O	-0.531752	2.211684	-0.49238
O	-0.599426	1.602316	1.601937
N	-0.288483	-1.042929	1.163949
O	-0.980602	-2.02798	0.943031
O	0.319103	-0.848855	2.215511
F	-2.257484	0.0	0.0
