14

C	-0.470393	0.007023	-1.449084
C	0.0	0.0	0.0
Cl	0.346126	-1.27786	-2.356548
H	1.095766	0.0	0.0
C	-1.915524	-0.148385	-1.596222
N	-3.079343	-0.303153	-1.655419
N	-0.086829	1.33892	-2.127251
O	-0.744509	1.632844	-3.120289
O	0.855125	1.951064	-1.651726
C	-0.436277	-1.226752	0.644018
N	-0.756099	-2.228328	1.17062
C	-0.51326	1.162359	0.703479
N	-0.929512	2.10792	1.265619
F	2.410373	0.0	0.0
