14

C	-0.420039	0.024932	-1.465013
C	0.0	0.0	0.0
Cl	0.409086	-1.264554	-2.35051
H	1.095774	0.0	0.0
C	-1.861861	-0.10339	-1.669218
N	-3.02572	-0.229869	-1.784777
N	0.00329	1.360354	-2.123406
O	-0.484511	1.569531	-3.228357
O	0.790786	2.064599	-1.514796
C	-0.431143	-1.250933	0.601828
N	-0.749024	-2.269569	1.096912
C	-0.550499	1.13025	0.725107
N	-0.991466	2.042581	1.322647
F	2.412622	0.0	0.0
