14

C	-0.26362	-0.000674	-1.490235
C	0.0	0.0	0.0
Cl	0.264557	1.527518	-2.212783
H	1.098448	0.0	0.0
C	0.420419	-1.116299	-2.140123
N	0.937128	-2.015774	-2.692306
N	-1.771234	-0.135128	-1.856503
O	-2.024187	-0.452142	-3.011745
O	-2.575577	0.118908	-0.971917
C	-0.463205	-1.234233	0.600626
N	-0.80196	-2.255705	1.075141
C	-0.489075	1.177105	0.685099
N	-0.821391	2.143529	1.266387
F	2.405119	0.0	0.0
