14

C	-0.462868	0.019157	-1.45177
C	0.0	0.0	0.0
Cl	0.326179	-1.28462	-2.355364
H	1.095633	0.0	0.0
C	-1.910309	-0.096017	-1.606803
N	-3.077592	-0.219718	-1.675843
N	-0.038174	1.34316	-2.12733
O	0.931093	1.915669	-1.657411
O	-0.693533	1.666484	-3.112525
C	-0.446018	-1.22491	0.639834
N	-0.779049	-2.223428	1.164341
C	-0.502324	1.167612	0.702301
N	-0.888118	2.129012	1.259651
F	2.408724	0.0	0.0
