11
Coordinates from ORCA-job run
  C   -0.70986507738723     -0.43318463501591     -0.21437879669462
  C   0.56934383274038     -0.01166825053661     -0.04801447416535
  H   -0.91376759747727     -1.22566291295032     -0.93163164307532
  N   -1.79740114700637     -0.05376886522926      0.55890797662744
  H   -1.64532592818691      0.77352179326475      1.11996122274673
  H   -2.66927748843377     -0.01520583152224      0.05458696512512
  N   1.71341769841010     -0.62096329341489     -0.62643076396026
  H   2.21264427213528      0.01057749710357     -1.24013052074060
  H   1.46708876044582     -1.46222509528358     -1.12992895334460
  C   0.81730671509267      1.06301193352791      0.86289426764955
  N   0.95483595966732      1.97656766005658      1.59316471983191
