11
Coordinates from ORCA-job run
  C   -0.80934357948783      0.41643700813445     -0.00292452807991
  C   0.54593514231190      0.36337013967017     -0.00071165894852
  H   -1.30773647606345      1.37535305599892      0.09457156349954
  N   -1.62291365443659     -0.68082439493247     -0.25837918189941
  H   -1.26226942906579     -1.55190072855278      0.10470036703299
  H   -2.58627203327583     -0.54489359084756      0.00162228872195
  N   1.30155450240156     -0.78541081532581     -0.33176996214598
  H   0.77232161735685     -1.46200717108614     -0.86146860524835
  H   1.78674582726274     -1.21244470767959      0.44456148276491
  C   1.28534431049687      1.55673878450070      0.27275128380348
  N   1.89763377249958      2.52658242012010      0.53604695049930
