11
Coordinates from ORCA-job run
  C   -0.71373439114758     -0.33901225640147     -0.32324690020451
  C   0.57169314505357     -0.02732679802439     -0.01783633321791
  H   -0.90646771145076     -1.14224972900151     -1.03085271909107
  N   -1.84342895112377      0.32787753758049      0.12331226998843
  H   -1.68980496742038      0.94234010907029      0.91092927494722
  H   -2.65279057552170     -0.25863854006005      0.25014949877763
  N   1.71944845640095     -0.74024486025603     -0.45796435507196
  H   1.45709692523780     -1.57470367549056     -0.96529514128918
  H   2.31683088600779     -0.16869329248734     -1.04260017264382
  C   0.80770218040786      1.03973798555661      0.90388851597199
  N   0.93345500355624      1.94091351951396      1.65151606183318
