11
Coordinates from ORCA-job run
  C   -0.68935293266146     -0.48856717251889     -0.11491105930424
  C   0.55579753686273      0.05183785995412     -0.12966526560227
  H   -0.87689818353659     -1.39156730483771     -0.69134764479046
  N   -1.76435014402271     -0.04341305305688      0.63751950837723
  H   -1.65947688639382      0.88687903072924      1.01855275823633
  H   -2.66308550228151     -0.17758223724025      0.20226015725357
  N   1.63857867213351     -0.39639415897258     -0.93396770220206
  H   1.34096726564870     -1.12264549958536     -1.57166856743709
  H   2.40721269367731     -0.74149257706700     -0.37223972947805
  C   0.79027085481851      1.23197125880264      0.64218880511413
  N   0.92233662575533      2.18997385379269      1.31427873983291
