11
Coordinates from ORCA-job run
  C   -0.66608270700733     -0.03747075821916      0.61972938789602
  C   0.54107555214040      0.34504868069432      0.13385420311052
  H   -1.01734152378591      0.36948112173738      1.56224756732044
  N   -1.44548707650758     -1.03558271219898      0.04794629881908
  H   -1.39916385566104     -1.06615002206050     -0.96081458243712
  H   -2.39827688004184     -1.04832967824021      0.37371896615225
  N   1.19341767766299     -0.26962849013778     -0.96015008596301
  H   1.24495027477250      0.29558852521845     -1.79581268990778
  H   0.84382914596009     -1.19622989597787     -1.15409506982009
  C   1.26166599928182      1.38233451875867      0.80500492082612
  N   1.84141339318591      2.26193871042568      1.32937108400357
