11
Coordinates from ORCA-job run
  C   -0.91274480804774      0.27737141815211      0.29202399801924
  C   0.43643203387726      0.29472053577563      0.14539443300870
  H   -1.41221880915164      1.06755303649440      0.84498276299765
  N   -1.69652354876182     -0.74817494434731     -0.15727252913421
  H   -1.22655114831981     -1.34880872214817     -0.82027031615818
  H   -2.65398657607675     -0.52704766029306     -0.37133945495392
  N   1.05954117615386     -0.77118049832222     -0.58584538311781
  H   1.70318068142627     -0.40208273898509     -1.27509890645133
  H   1.58608011414026     -1.37574438715181      0.03465760492821
  C   1.21626974093805      1.34245775954785      0.72249670652530
  N   1.90052114382206      2.19093620127767      1.16927108433634
