11
Coordinates from ORCA-job run
  C   -0.88627756669643      0.42424839171808      0.17298680327108
  C   0.45280606482301      0.30544069604778     -0.01428552074591
  H   -1.32992372852890      1.40192938214009      0.33715987633147
  N   -1.72492669611453     -0.65189380571602      0.24752180668493
  H   -2.68600932163718     -0.49755993934353     -0.00528820316601
  H   -1.31040714601166     -1.50625708773481     -0.09828047442663
  N   1.00086551683100     -1.00458539726135     -0.22210984352374
  H   1.61535470043199     -1.00987575977638     -1.02736322025232
  H   1.54462201672755     -1.30014181551192      0.58097589010616
  C   1.29545691687307      1.45770972526899      0.01406066372340
  N   2.02843924330208      2.37998561016907      0.01662222199759
