11
Coordinates from ORCA-job run
  C   -0.88474301631015      0.34012685170769      0.31226177871331
  C   0.43207271996161      0.33370230942711     -0.01645240428677
  H   -1.35935067277562      1.25692053943597      0.64974429108936
  N   -1.65350704434493     -0.78982152090617      0.32364464227643
  H   -2.64213388392056     -0.66732870795183      0.18553211172201
  H   -1.23314842217736     -1.56317995742371     -0.17288378204846
  N   1.02306779346361     -0.90010463953215     -0.45026540835756
  H   1.55228874005116     -0.76087020920620     -1.30260510655383
  H   1.66028488441240     -1.26080538801601      0.25088549236211
  C   1.21203706651306      1.52536726294664      0.08367851551825
  N   1.89313183512681      2.48499345951867      0.13845986956515
