11
Coordinates from ORCA-job run
  C   -0.82057239255277     -0.40525044109522     -0.21158279539042
  C   0.48464209355635     -0.03648792103594     -0.18117774271291
  H   -1.12339886309456     -1.08839998091594     -0.99947112906264
  N   -1.78092245742880     -0.07113790421531      0.70634742572964
  H   -2.73302567071726     -0.09042264605396      0.38394632936572
  H   -1.56889541502550      0.69648723685948      1.32644296561953
  N   1.39118099414664     -0.56655316693760     -1.15309539126003
  H   1.85143128922185      0.17930346548881     -1.66040377971453
  H   2.10917811914078     -1.12640870491337     -0.70934649226593
  C   0.92568446876831      0.87502624479549      0.83097655443986
  N   1.26369783398497      1.63484381802355      1.66636405525170
