11
Coordinates from ORCA-job run
  C   -0.71376691749072     -0.40190117382319     -0.26045346357724
  C   0.56144601172687      0.03375293136135     -0.10002441893848
  H   -0.89383496998782     -1.29464269653819     -0.85589807844973
  N   -1.85848421120656      0.26804164380189      0.14576149050007
  H   -2.61518660074423     -0.33666164345104      0.42443837151592
  H   -1.69698219954755      1.00938867238853      0.81419654501039
  N   1.69573362253373     -0.48873257104903     -0.77441994154494
  H   1.43114052508570     -1.20067654552243     -1.44150717837959
  H   2.38216906588291     -0.86271464931731     -0.13135295107050
  C   0.78876364616937      1.17862705394592      0.72698478076541
  N   0.91800202757830      2.09651897820350      1.45327484416868
