11
Coordinates from ORCA-job run
  C   -0.74882573828113      0.30507490104850      0.41743782036499
  C   0.55110969607209      0.35513307149272      0.03361023734151
  H   -1.18838280968826      1.15148338384407      0.93491778980530
  N   -1.54035716301905     -0.83187310244254      0.30797443507525
  H   -1.35274906403470     -1.38490827740972     -0.51647343329907
  H   -2.52591991434258     -0.65660519749820      0.41747106721857
  N   1.28397956489166     -0.75470484755372     -0.44791892069025
  H   0.86467386984239     -1.63763615738486     -0.19647918501454
  H   1.51675459406032     -0.71573491941611     -1.43023255292653
  C   1.27568089624156      1.57769490293847      0.19380112564754
  N   1.86503606825769      2.59207624238138      0.28589161647722
