11
Coordinates from ORCA-job run
  C   -0.91548456275505      0.39557738269075      0.04516181977326
  C   0.43973741740107      0.32204477877985      0.03465769572887
  H   -1.40983297599243      1.35306767542039      0.18125970989968
  N   -1.72008122837129     -0.68300756226704     -0.19439442441234
  H   -1.23379900436370     -1.56598277142772     -0.12141018514693
  H   -2.64263968009377     -0.65786957577260      0.20530426352925
  N   1.05384518062011     -0.96109005522136     -0.15498760104580
  H   1.77068374804386     -1.11946467619938      0.54278678051009
  H   1.49404732654456     -1.01990209767319     -1.06635134948665
  C   1.23294594539540      1.49852539307738      0.19396163566968
  N   1.92957783357125      2.43810150859291      0.33401165498088
