11
Coordinates from ORCA-job run
  C   -0.76065321851852     -0.12476577669319     -0.36954356013994
  C   0.56359888797728     -0.05667016167753     -0.07877845882074
  H   -1.06919731676203     -0.53653562277916     -1.32773294939301
  N   -1.79512930087246      0.35782277695608      0.41616975655418
  H   -2.64778327094213     -0.17579861910849      0.35876145338766
  H   -1.54128033890590      0.57300717493625      1.37036023204811
  N   1.61160044552483     -0.58195800693710     -0.88132575528021
  H   2.23475690929378      0.14457712364573     -1.21188969598766
  H   1.24379851337940     -1.09122475271815     -1.67369444420452
  C   0.95204822386037      0.50038535702376      1.17909700866793
  N   1.20824046596537      0.99116050735180      2.21857641316821
