11
Coordinates from ORCA-job run
  C   -0.82019128085915      0.39335659338765     -0.02332354873215
  C   0.53567401103397      0.37995106965178      0.01734133726815
  H   -1.34980378597487      1.33701860806451      0.05795742904526
  N   -1.59330156328796     -0.72722627858784     -0.29848172816631
  H   -2.56854747835409     -0.62002772171881     -0.07206633800992
  H   -1.21766191799569     -1.58871125498476      0.07174332578574
  N   1.33160342030587     -0.74848337595627     -0.29079921861759
  H   1.79726640689906     -1.16875137495821      0.50104983193672
  H   0.83870671439664     -1.43364723819764     -0.84410236121330
  C   1.23386883345562      1.59460630703891      0.30411313066350
  N   1.81338664038059      2.58191466626067      0.57656814003990
