11
Coordinates from ORCA-job run
  C   -0.80807791678976     -0.41711938520291     -0.23449203235716
  C   0.49903288330849     -0.07083015165605     -0.12340916373591
  H   -1.03749951156512     -1.29992312588416     -0.82396023700128
  N   -1.87895529963061      0.28632085141377      0.24975021211889
  H   -1.68251386095090      0.99229462440253      0.94375485963926
  H   -2.71870576158936     -0.23916184303421      0.42132448872630
  N   1.49573505860922     -0.85418129580105     -0.78740818493174
  H   1.98062801570585     -0.30385719755691     -1.48572971935819
  H   2.18571015208976     -1.19197952751237     -0.12792854645208
  C   0.84971604532490      1.07774873960332      0.65616721051370
  N   1.11493019548752      2.02068831122803      1.31193111283820
