11
Coordinates from ORCA-job run
  C   -0.92515907548165      0.37390388183950     -0.00066851383637
  C   0.43032413573318      0.33177511892603     -0.05652744229167
  H   -1.44460650338176      1.32616737892629     -0.05402466334924
  N   -1.70286136767740     -0.74931971211973      0.03701939477159
  H   -2.60992524744331     -0.65882785844498      0.46178705783428
  H   -1.18633752507278     -1.58385264465778      0.27820285983115
  N   1.07853517105680     -0.94672394067127      0.01030294539946
  H   1.82609469834621     -0.93207509913074      0.69336577297696
  H   1.48487231328937     -1.19252861821607     -0.88530364561557
  C   1.18970335541764      1.53328744963963     -0.19257189171295
  N   1.85936004521370      2.49719404390911     -0.29258187400766
