11
Coordinates from ORCA-job run
  C   -0.69400188403158     -0.43581820909686     -0.24041924652586
  C   0.57006483647723      0.01460280064373     -0.03701458824869
  H   -0.83882223593688     -1.34900860773528     -0.81305323221036
  N   -1.86170450224735      0.20386700580998      0.14621234734668
  H   -2.61266495987758     -0.41903156988510      0.39907110205995
  H   -1.73245964578069      0.93615676352937      0.83138899503344
  N   1.75817971376477     -0.66903467991260     -0.41304873952778
  H   2.28805601750834     -0.15190329252847     -1.10358342226406
  H   1.54861698524542     -1.58939436806360     -0.77580000848421
  C   0.74733459138302      1.22441843492765      0.70270007288068
  N   0.82640108349531      2.23414572231116      1.30354671994020
