11
Coordinates from ORCA-job run
  C   -0.87810038083465      0.35770552311286      0.31163130123706
  C   0.43829095463072      0.32697988228170     -0.01757737667382
  H   -1.32560512606291      1.26819266412037      0.69939824252838
  N   -1.72101920095546     -0.69736051805206      0.10078110472185
  H   -1.23569608806144     -1.56665075124670     -0.07283831628265
  H   -2.52793157443804     -0.75874909076287      0.69800512103079
  N   0.98453448625018     -0.89466644953744     -0.53534839560330
  H   1.84173427350937     -1.13636190941412     -0.05290395665867
  H   1.20097268935209     -0.80482756698490     -1.52142018765052
  C   1.25327117504329      1.48922930213649      0.13458044035929
  N   1.96954879156684      2.41650891434665      0.25669202299158
