11
Coordinates from ORCA-job run
  C   -0.83782280764684      0.33760264743074      0.10151528811788
  C   0.51248982155510      0.41109893158757     -0.00255050812729
  H   -1.40618521589165      1.23163323197157      0.33654444443136
  N   -1.57312794035650     -0.80041651405364     -0.20438312471267
  H   -2.52311362797509     -0.77796796855418      0.12881085261204
  H   -1.11401031097451     -1.66632735145541      0.04003646335708
  N   1.33179335263124     -0.62469833404774     -0.50942742348113
  H   0.81672292712841     -1.29028422801706     -1.06658106662999
  H   1.91155711558595     -1.08250546363975      0.17973468330754
  C   1.16777990513593      1.63554558093921      0.33925179293060
  N   1.71391678080795      2.62831946783869      0.65704859819459
