11
Coordinates from ORCA-job run
  C   -0.70970776024041     -0.43796884121672     -0.17688158951445
  C   0.54737200633618      0.07359394747595     -0.15329576175109
  H   -0.95940259629028     -1.18357062702453     -0.92829350905315
  N   -1.72123434667060     -0.16214386019837      0.72860784339414
  H   -2.64966871112720     -0.18135609230935      0.33792612090773
  H   -1.56498159432220      0.65301037603996      1.30528934186829
  N   1.56466141157439     -0.19593351395778     -1.10886805878499
  H   1.20695640986484     -0.75385985076135     -1.87268578158642
  H   2.35558014146724     -0.67154991268059     -0.69205885409099
  C   0.86473873926317      1.04247929893281      0.84876473206432
  N   1.06668630014486      1.81929907569997      1.71049551654659
