11
Coordinates from ORCA-job run
  C   -0.86241406235867     -0.29525708962864     -0.22578987610664
  C   0.47340425606132     -0.05953900719244     -0.20388313350222
  H   -1.25544351799831     -0.83604041657588     -1.08169894643388
  N   -1.75702676922247      0.00447277830162      0.76761687216536
  H   -2.71502097492142      0.12037178807213      0.48516242836757
  H   -1.45022100541453      0.66090628838610      1.47029173826422
  N   1.29277926443775     -0.53821581408670     -1.27474185507934
  H   1.96683001340213     -1.21526989723161     -0.93909393095664
  H   1.80622343417922      0.22238966181603     -1.70275178237144
  C   1.03268284916823      0.66461679534249      0.89734976248808
  N   1.46820651266675      1.27256491279690      1.80853872316492
