11
Coordinates from ORCA-job run
  C   -0.83151708267840      0.10967589848299      0.54006577694990
  C   0.44924429813920      0.28424794873595      0.12578256160466
  H   -1.20006807854579      0.64058855148068      1.41305338857956
  N   -1.73623739230119     -0.65369406253643     -0.14208365447662
  H   -1.31000274020660     -1.26951410443783     -0.82038713954048
  H   -2.49433833594947     -1.04552951432115      0.38990379199264
  N   0.89631205633614     -0.43105231551052     -1.03544238760312
  H   1.04565931891943      0.20157145118768     -1.81352769293605
  H   1.77564015666429     -0.89812445183502     -0.84896755603369
  C   1.32245591903995      1.17390029285615      0.82161050535848
  N   2.08285188058243      1.88793030589752      1.36899240610470
