11
Coordinates from ORCA-job run
  C   -0.82456669724092     -0.37896465678643     -0.24188213484804
  C   0.48889098618864     -0.04680298761265     -0.16880837845452
  H   -1.12390314747288     -1.03783830472513     -1.05155787630903
  N   -1.80051913787260     -0.03700203224547      0.65648591146066
  H   -2.74359233279346     -0.02412741922847      0.30820737879549
  H   -1.58498661995096      0.71291366040997      1.29663550178862
  N   1.40715981871035     -0.58023157021863     -1.12771481750934
  H   1.89605404324911      0.16399506532401     -1.60962805443952
  H   2.10167012932136     -1.16353506435426     -0.67704869946971
  C   0.92514093807304      0.83036098951434      0.87558374001306
  N   1.25765201978832      1.56223231992271      1.73772742897231
