11
Coordinates from ORCA-job run
  C   -0.82020698405800      0.20163631636931      0.34341609761349
  C   0.53085537481712      0.28724718786398      0.25070511072058
  H   -1.33705097910517      0.72567128898351      1.14049201808159
  N   -1.62045757992778     -0.41155216074832     -0.61064443703337
  H   -1.19841797477880     -1.21902879335966     -1.04703084214130
  H   -2.56036750415495     -0.60103639387632     -0.30381799723352
  N   1.28841431826768     -0.16508411983768     -0.85293256833935
  H   0.74361998398080     -0.26524406604079     -1.69644358228033
  H   1.86536885721389     -0.97460520794984     -0.67538787754430
  C   1.25215619317159      0.95125026492788      1.29255089197135
  N   1.85708629457364      1.46874568366794      2.15909318618515
