11
Coordinates from ORCA-job run
  C   -0.91546155687270      0.38260179524454      0.11045231777706
  C   0.43924608056418      0.32018475557308      0.05465036333449
  H   -1.41159493622421      1.32940562029026      0.30281941464916
  N   -1.71419818197960     -0.72265048352567      0.01875087486463
  H   -2.64972218434513     -0.57942880949499     -0.32141614911897
  H   -1.23317941973519     -1.53237285170505     -0.34777381932292
  N   1.05561465767972     -0.95217709773049     -0.19218475841530
  H   1.51962502495370     -1.29557664927375      0.64123727388315
  H   1.75374404837047     -0.87446200356424     -0.92185276394237
  C   1.23039980413856      1.49174350679338      0.25410251546718
  N   1.92552666345020      2.43173221739294      0.39921473082389
