11
Coordinates from ORCA-job run
  C   -0.92813515448466      0.35857010042556     -0.06695058362273
  C   0.42794714830106      0.33943172073179     -0.01372496046845
  H   -1.45844074990620      1.30355786988873     -0.14066595821016
  N   -1.68656772551962     -0.77714090712942     -0.11741314690280
  H   -1.17647245302202     -1.60902922494536      0.14559368907248
  H   -2.62594862663333     -0.71108406653067      0.23573748500285
  N   1.09135294722736     -0.92985850790029      0.07630248357790
  H   1.78101696926158     -0.91967944714337      0.81796886404645
  H   1.57335134042520     -1.14774618745907     -0.78852145513304
  C   1.17309306426225      1.55652654426109     -0.06144795236029
  N   1.82780324008837      2.53545210580101     -0.08487846500220
