11
Coordinates from ORCA-job run
  C   -0.70846877705323     -0.42955723773434     -0.20321668218737
  C   0.54966707115975      0.07623270625893     -0.14202586584104
  H   -0.94907484333591     -1.14703396693446     -0.98445257675941
  N   -1.73300796597995     -0.18271096139883      0.69647435877920
  H   -2.65488026254227     -0.18122327254338      0.28987803512641
  H   -1.58200617462407      0.61043340214964      1.30440822188275
  N   1.58049000509197     -0.16155795176774     -1.09143640135941
  H   1.23304332897215     -0.69284441955785     -1.87866979199622
  H   2.36462430135406     -0.65237580148789     -0.67946864186494
  C   0.85385001703874      1.00822081537521      0.89842629132047
  N   1.04476329991874      1.75341668764072      1.79008305289956
