11
Coordinates from ORCA-job run
  C   -0.76313003096655     -0.21781198535144     -0.32761772753698
  C   0.55408741437744      0.04403388897408     -0.13298033111831
  H   -1.06567345377367     -0.76216226179009     -1.21993208351517
  N   -1.81112632873368      0.27505836678528      0.43614073869360
  H   -2.59699452209428     -0.35164013483671      0.51085819696924
  H   -1.53693915319773      0.65111135511362      1.33377775468452
  N   1.58578628234436     -0.20100438354198     -1.07641497193078
  H   1.21039457112759     -0.53288253087515     -1.95438265496895
  H   2.27271521044949     -0.85816554019706     -0.72880562925205
  C   0.94231453019659      0.71757593815557      1.06784268142919
  N   1.20756548027046      1.23588728756388      2.09151402654568
