11
Coordinates from ORCA-job run
  C   -0.81008867518230      0.36729636854353      0.19032572929211
  C   0.53877631814708      0.37144404437313      0.04789725805873
  H   -1.32874775555090      1.29607598003785      0.40426209256810
  N   -1.57974881058376     -0.78914731421671      0.21020046426498
  H   -1.24674869444019     -1.51623336243280     -0.40709831844214
  H   -2.56669342324295     -0.62658591992859      0.09332164889349
  N   1.33794675077859     -0.79357742171908     -0.01817257727445
  H   0.87333985469361     -1.60821698992839      0.35448297722625
  H   1.74953334444966     -0.97588950797438     -0.92250978819097
  C   1.23142676040709      1.62251246622023      0.04554533633073
  N   1.80100433052408      2.65132165702521      0.00274517727316
