18

C	0.0	0.0	0.0
C	-0.491735	0.014668	-1.472515
Cl	1.799289	0.0	0.0
H	-1.581385	0.14056	-1.374716
C	-0.439739	1.271879	0.708275
H	-1.531371	1.307094	0.703369
H	-0.03598	2.154733	0.209907
H	-0.077517	1.239593	1.736763
N	-0.475154	-1.128144	0.754168
H	-1.495075	-1.044959	0.783616
H	-0.235522	-1.995237	0.28817
C	-0.213781	-1.273425	-2.248319
H	-0.548138	-1.164181	-3.282203
H	-0.776132	-2.098733	-1.808853
H	0.852489	-1.512642	-2.248825
C	0.03716	1.163412	-2.206384
N	0.460156	2.066698	-2.827855
Cl	-3.664013	0.0	0.0
