13
Coordinates from ORCA-job run
  C   -0.57651478900690      0.41324777029234     -0.06421363276722
  C   0.78744761466646     -0.08067873168384      0.49378096707176
  Cl  -0.63159310667359      2.20785678767394      0.28559041050371
  H   0.78385738668722      0.13365167248758      1.57053494343329
  C   -0.61757303562037      0.25175314520145     -1.51842595755328
  N   -0.65588808954699      0.11127250938860     -2.68432355810429
  N   -1.61775126473028     -0.33051705654051      0.53794919738254
  H   -1.67632826330373     -0.15594659714240      1.53439647009260
  H   -2.51568122093300     -0.15226074205169      0.10605296971436
  C   1.91567928581282      0.62861337581946     -0.11362397280011
  N   2.83074434247726      1.18435464681435     -0.59547626438126
  C   0.92140611534944     -1.52718968383055      0.29643558682732
  N   1.04919502482165     -2.68515709642874      0.15032284058058
