13
Coordinates from ORCA-job run
  C   -0.52365973054456      0.40100342444216      0.02925798382533
  C   0.76798420119328     -0.46110188635613     -0.03542411570921
  Cl  -0.20147230388625      1.86102171597119      0.98963529695227
  H   0.52237722246066     -1.36100672283601     -0.61632059148453
  C   -0.87733010638044      0.81656562045073     -1.34008071501396
  N   -1.21850245531215      1.07574620434711     -2.43542132337451
  N   -1.53798436952380     -0.37423283315000      0.69609361533296
  H   -1.87479837516445     -1.11381194118840      0.08768621916284
  H   -2.32157207677127      0.21454795227463      0.95376337986898
  C   1.17179126971146     -0.87706336776331      1.30969266219862
  N   1.52706002628834     -1.22814558756608      2.37180402367327
  C   1.85202626413891      0.24433436999917     -0.72269269773850
  N   2.71608043379022      0.80314305137498     -1.28799373769369
