13
Coordinates from ORCA-job run
  C   -0.54475784120141      0.36500040831423     -0.10284532358025
  C   0.75721590940829     -0.48540479820349     -0.05825509663030
  Cl  -0.20748117657138      1.93553613160711      0.75798722574412
  H   0.54986209916870     -1.38695929571293     -0.64834256855440
  C   -0.84295962496309      0.69082629083590     -1.49982735044389
  N   -1.08841225304297      0.93069882447821     -2.62342903272553
  N   -1.60391618276913     -0.39782342210502      0.45125453925429
  H   -1.45987833368245     -0.56355615498211      1.44178419870186
  H   -2.49984223310917      0.05391352640167      0.31393567130549
  C   1.03069467228767     -0.89160476388116      1.32234954615827
  N   1.19787427378324     -1.23084881551200      2.43390758146410
  C   1.89748613803985      0.21820309701260     -0.64615109203322
  N   2.81311455265184      0.76101897174700     -1.14136829866054
