13
Coordinates from ORCA-job run
  C   -0.50646349978672      0.42397754052483      0.03480730044351
  C   0.74602713543718     -0.49305141496752     -0.04226122909177
  Cl  -0.11121451312242      1.87076263427118      0.98809902198939
  H   0.45556163896487     -1.38243775744853     -0.61859268027310
  C   -0.85650257348035      0.85185462773091     -1.33171365318689
  N   -1.19462842704995      1.12168511505499     -2.42544017466921
  N   -1.54561199558020     -0.30544556236407      0.71480915438147
  H   -1.91530196018988     -1.03594886065194      0.11436826892365
  H   -2.30394663926862      0.31580534074083      0.97227520522783
  C   1.14705389888464     -0.92421796131170      1.29888837415204
  N   1.50119673769072     -1.29027554425276      2.35629937663177
  C   1.85151500908085      0.16424221724954     -0.74291475846124
  N   2.73231518841988      0.68504962542425     -1.31862420606745
