13
Coordinates from ORCA-job run
  C   -0.54800387840988      0.36985306296561     -0.01601733690048
  C   0.79182920997585     -0.41580625991508      0.03953425018824
  Cl  -0.43948441453491      1.78263291938497      1.05636490281641
  H   0.67704510238249     -1.28973290037868     -0.61670114579596
  C   -0.75026175006662      0.84997341600701     -1.39499244007063
  N   -0.96224271819153      1.15742531068030     -2.51031442098600
  N   -1.58882829219122     -0.49852637708371      0.47062996496524
  H   -2.43516479307759      0.02943966923242      0.65055888675478
  H   -1.79615184885262     -1.21944562743859     -0.21356000397438
  C   1.04971368068396     -0.89239929933519      1.40035428020572
  N   1.29485673999714     -1.28993258245813      2.47710268604483
  C   1.90799790836185      0.38882117162777     -0.46248233495721
  N   2.79969505392310      1.02869749671130     -0.87947728829057
