13
Coordinates from ORCA-job run
  C   -0.55558144318930      0.40936403052639     -0.24064606611157
  C   0.94884329178152      0.01396689706953     -0.20002901300976
  Cl  -0.57695070777790      2.24116186334819     -0.34845213392103
  H   1.45363001355847      0.50223170560474     -1.04074588937386
  C   -1.14981735639393     -0.09050234807393     -1.48243990082599
  N   -1.62336953145207     -0.49263518054438     -2.47969013808690
  N   -1.22877213853094     -0.12859097150267      0.87493070595171
  H   -2.23217300092712     -0.01137623353384      0.81596465651830
  H   -0.88392435004700      0.25178655629539      1.74919651981371
  C   1.09413697447130     -1.43938316181383     -0.32446179569657
  N   1.22234929224060     -2.59947739207922     -0.45197827816330
  C   1.54518741632626      0.48435017048960      1.05341271472885
  N   1.98744153994012      0.85810406421402      2.07493861817641
