13
Coordinates from ORCA-job run
  C   -0.56247341981795      0.40686017554135     -0.23136649022871
  C   0.94724807512978      0.03183729713834     -0.19901094929569
  Cl  -0.60883589886167      2.24048536408041     -0.29966441415121
  H   1.44471927178966      0.54586824368367     -1.02855008496828
  C   -1.14895981861708     -0.07393727324496     -1.48436574735757
  N   -1.61347220800196     -0.46225398555879     -2.49126552499468
  N   -1.22821176483224     -0.16427177648574      0.87179007107727
  H   -0.88679148777168      0.19877424826656      1.75480181049105
  H   -2.23306759072646     -0.05875763223109      0.81644285238601
  C   1.11431882084409     -1.41597644053936     -0.35557764080516
  N   1.26286974398230     -2.57044645990631     -0.50963272635316
  C   1.53746252833582      0.48260939013197      1.06442538091835
  N   1.97519374854739      0.83920884912394      2.09397346328178
