13
Coordinates from ORCA-job run
  C   -0.60779143057020      0.52144690798396     -0.05485624027031
  C   0.77577019169541     -0.00919118344585      0.46608491228481
  Cl  -0.63357712019263      2.26654870460050      0.33542464100533
  H   0.81641753620713      0.23271663041064      1.53553129578388
  C   -0.66365043664210      0.34448990319108     -1.50942241544559
  N   -0.69144169073699      0.16177860362476     -2.66972250626208
  N   -1.74687164292990     -0.10097727671015      0.54114226317348
  H   -1.83770299770263     -1.07040213485076      0.25997291430487
  H   -1.73812299548752     -0.01608550060009      1.55041226870289
  C   1.91072772864132      0.62671779459095     -0.20325029091566
  N   2.82193714046334      1.13962216391439     -0.73810986044710
  C   0.81419963245546     -1.46465543202151      0.30635759704606
  N   0.78010608479932     -2.63200918068791      0.18043542103943
