13
Coordinates from ORCA-job run
  C   -0.58805858224771      0.52672286667534     -0.22411443795731
  C   0.92009450217183      0.07062050664412     -0.21053838416530
  Cl  -0.55748847165691      2.31556377947868     -0.16866728975156
  H   1.44326469362095      0.54682292118845     -1.04761348819323
  C   -1.16114684697915      0.09995041732629     -1.50554624951099
  N   -1.58524364527913     -0.27066124575012     -2.53656709760057
  N   -1.39169196981879      0.04054268623653      0.84690275656564
  H   -1.01167478255699      0.29549807777362      1.75094083778926
  H   -1.54705082353099     -0.95850703419493      0.78258452877927
  C   0.97448966948067     -1.38595386480676     -0.35499913236709
  N   0.96237305159627     -2.55526667103204     -0.46652360494371
  C   1.54084172861198      0.47695255933310      1.05112972585936
  N   2.00129147658795      0.79671500112772      2.08301183549623
