13
Coordinates from ORCA-job run
  C   -0.53805143071360      0.42132764917295     -0.26036702225079
  C   0.95495416817557     -0.00600147773935     -0.16583223282196
  Cl  -0.51514619625002      2.25384740473673     -0.36849861643459
  H   1.50005087651937      0.47202552480017     -0.98704534443108
  C   -1.09858389599365     -0.06534862791183     -1.52275031494907
  N   -1.54689886659674     -0.45938204258091     -2.53471571372497
  N   -1.26261062579354     -0.10103398725713      0.82973663076662
  H   -0.94032647083028      0.26973779753221      1.71694388762687
  H   -2.26049255559140      0.03771016479660      0.73518158496530
  C   1.07479389429299     -1.46206010189520     -0.28636817091393
  N   1.18490455006161     -2.62456961396362     -0.41000278464982
  C   1.51582348624039      0.45095582987719      1.10891191904728
  N   1.93058306647930      0.81379148043219      2.14580617777016
