13
Coordinates from ORCA-job run
  C   -0.57259356706015      0.41775560986903     -0.06499877164508
  C   0.79689109735861     -0.07467098733435      0.47996882340018
  Cl  -0.59930521258510      2.22313003220259      0.22822263886240
  H   0.81865093307728      0.17421949714899      1.54900113487715
  C   -0.64746418351183      0.21052187590885     -1.51204841680970
  N   -0.71531709471301      0.03472785161425     -2.67182178179769
  N   -1.60945410940963     -0.29350433548921      0.58276648781601
  H   -2.51372230756454     -0.11987993751056      0.16200002227156
  H   -1.64697082312034     -0.08267526010168      1.57321490571954
  C   1.92050648989535      0.60057867194391     -0.17333209916491
  N   2.83272460037951      1.12893126532364     -0.69028255492965
  C   0.91107975048265     -1.52812316465286      0.32601699832702
  N   1.02497442677120     -2.69101111892260      0.21129261307316
