13
Coordinates from ORCA-job run
  C   -0.59214342562734      0.39335129851966     -0.06409116191488
  C   0.79879945729765     -0.03786334174590      0.47846648791325
  Cl  -0.69749358369253      2.19577633247439      0.22929703222962
  H   0.81281492024692      0.21461170757574      1.54682262064601
  C   -0.65916023345592      0.18326296047243     -1.51107253442966
  N   -0.71725912671301      0.00298169427023     -2.67064803168166
  N   -1.59537892970608     -0.36303846682855      0.58498914170524
  H   -2.50761479168681     -0.22778574256923      0.16788758694460
  H   -1.63844525780303     -0.15765700578104      1.57635909776267
  C   1.88988405394693      0.68297218834129     -0.18122570623955
  N   2.77598421894768      1.24298772369853     -0.71008263171231
  C   0.97704144884461     -1.48553753573026      0.32942923533851
  N   1.15097124940092     -2.64206181269728      0.22486886343815
