13
Coordinates from ORCA-job run
  C   -0.53933553934774      0.50205904527903      0.05490143930393
  C   0.85162018856936     -0.04529102543430      0.47722309203582
  Cl  -0.58137611086075      2.23070896379926      0.48211977389554
  H   0.93635486955540      0.16350959996150      1.55005760293243
  C   -0.70408672828106      0.38597716031787     -1.40400128876299
  N   -0.88096943586163      0.23137013853470     -2.55645513870135
  N   -1.53880299724122     -0.18510182250533      0.83238823245807
  H   -2.43961953988333      0.26566794670033      0.71581376061517
  H   -1.61984771585060     -1.15014430456210      0.52470079221476
  C   1.94298761701246      0.61370586805253     -0.24188120689385
  N   2.82235102948986      1.14384207133316     -0.81141836009322
  C   0.88808925137294     -1.49566978935284      0.26938519976511
  N   0.86163511132631     -2.65863385212383      0.10716610123058
