13
Coordinates from ORCA-job run
  C   -0.54868304110368      0.41435172153070     -0.24886189626544
  C   0.95370340114704      0.01913103435127     -0.16647114616249
  Cl  -0.56782137347448      2.24886339343316     -0.31515419230059
  H   1.48561847722377      0.52832237304173     -0.97743978944688
  C   -1.09958018617274     -0.05616169172375     -1.52166445237143
  N   -1.53568078886180     -0.43601811688543     -2.54443940699542
  N   -1.25924498885710     -0.14902289839022      0.83013693954722
  H   -2.26031513458267     -0.03164069468735      0.73935345528523
  H   -0.94513998374139      0.21031695924465      1.72469243518203
  C   1.10696851502715     -1.43027802188400     -0.32192824101351
  N   1.24398935278088     -2.58628397921369     -0.47527013977535
  C   1.50784456155112      0.45933003195991      1.11680151791555
  N   1.91834118906388      0.80808988922303      2.16024491640106
