13
Coordinates from ORCA-job run
  C   -0.58030996441061      0.45703884160123     -0.08116694083496
  C   0.73274380008640     -0.40825139997372     -0.03166223530649
  Cl  -0.24119507875501      1.98881012121772      0.76960136887722
  H   0.52866023046732     -1.31645338393918     -0.61456915338418
  C   -0.86599268490079      0.73280018733221     -1.49373302927925
  N   -1.08469266818917      0.89438543554540     -2.63678494429239
  N   -1.72159476059977     -0.15711496397478      0.52069855095830
  H   -2.02622714305890     -0.97773817533379      0.01113117963945
  H   -1.56032196110553     -0.37291259011299      1.49775604402467
  C   0.99728605624525     -0.80404738280703      1.35231079804204
  N   1.15172451245783     -1.13508664874765      2.46835306375245
  C   1.87885579745132      0.27576657648850     -0.63011352399483
  N   2.79006386431168      0.82080338270407     -1.13182117820205
