13
Coordinates from ORCA-job run
  C   -0.56973943189819      0.53600963373412     -0.24669835600245
  C   0.92826151178922      0.05382974581559     -0.17719546085615
  Cl  -0.50991989745247      2.32415728734288     -0.19285291665547
  H   1.48988166613836      0.51863330617353     -0.99562027283025
  C   -1.10418992546373      0.11699656840382     -1.54723090725822
  N   -1.50049908490516     -0.24676114199637     -2.59184756626058
  N   -1.42078205966294      0.06651385615624      0.79499977326623
  H   -1.07103183994815      0.31887771671399      1.71187914599414
  H   -1.58890794266711     -0.93031138688542      0.72783951551521
  C   0.96296347379544     -1.40388331022742     -0.31668724807532
  N   0.93352153816382     -2.57321775508078     -0.42427993692671
  C   1.51036282267870      0.45238429022531      1.10527383523430
  N   1.93907916943221      0.76677118962452      2.15242039485527
