13
Coordinates from ORCA-job run
  C   -0.59616779233372      0.42758876694437     -0.12290385737054
  C   0.75561415475783     -0.36221019532277      0.03322153759863
  Cl  -0.45542256665409      1.92031846815195      0.84533144720908
  H   0.67737803023455     -1.24390253432458     -0.61708644679016
  C   -0.73400569737523      0.77415681500363     -1.54207948730802
  N   -0.82742212367240      0.99088375933929     -2.69307724962392
  N   -1.75685640415648     -0.28763179283463      0.30489441696728
  H   -1.69488843059033     -0.55595504368504      1.28013487823613
  H   -1.94895495036270     -1.08953335835463     -0.28279477052740
  C   0.88707177844267     -0.82522074826696      1.41546609239613
  N   0.93612264232964     -1.21455392497915      2.52221140369569
  C   1.91568553428677      0.42142789684362     -0.39067512806081
  N   2.84184582509347      1.04563189148492     -0.75364283642209
