13
Coordinates from ORCA-job run
  C   -0.53370967588425      0.38366666184753     -0.32067166741301
  C   0.95735643700300     -0.02649996880556     -0.14789336318897
  Cl  -0.50846939597957      2.18625829320119     -0.66297300500484
  H   1.51582571415868      0.34182849899860     -1.01535780431557
  C   -1.07258179175938     -0.26281088294900     -1.51933190373397
  N   -1.49986198954395     -0.78250304210196     -2.48251685697315
  N   -1.27594852034321      0.00429655203322      0.81606559348873
  H   -2.27206757009952      0.12780005661176      0.68789428646605
  H   -0.96893625533680      0.48852442980766      1.65220226741414
  C   1.07710017765628     -1.48568264770419     -0.07781888584683
  N   1.18608132582239     -2.65439958032360     -0.04947973105597
  C   1.49858772932760      0.59238399433852      1.06536563442075
  N   1.89562381497874      1.08713763504583      2.05351543574263
