13
Coordinates from ORCA-job run
  C   -0.59624367326730      0.53312003913735     -0.06633557244138
  C   0.76394225068497     -0.02665434432631      0.48538086444430
  Cl  -0.59894357713011      2.27605135071062      0.33301948077858
  H   0.78359348410855      0.20841046773263      1.55692688157837
  C   -0.61864162526235      0.36424075161585     -1.52285089553460
  N   -0.62107830729154      0.18832288820299     -2.68456997651982
  N   -1.76162115127818     -0.07054862067579      0.49760368007263
  H   -1.86163111529027     -1.03773323118840      0.21138363316739
  H   -1.77702324591435      0.01125026926368      1.50708580434659
  C   1.92581947953440      0.59130565907856     -0.15398896346603
  N   2.85608026552274      1.09170677913024     -0.66735341844257
  C   0.77871636095047     -1.48175198221850      0.31781769185199
  N   0.72603085463297     -2.64772002646293      0.18588079016454
