13
Coordinates from ORCA-job run
  C   -0.56180352625110      0.48129162528720     -0.07334142758472
  C   0.71557259394460     -0.43647707852609     -0.03813668935948
  Cl  -0.15727210767362      1.99043740078917      0.78935815303952
  H   0.47139283222088     -1.33060562565815     -0.62735014066027
  C   -0.84171911815791      0.78065948280947     -1.48238635898324
  N   -1.05714067848849      0.95997307697406     -2.62341956230396
  N   -1.72402422404648     -0.09195259192304      0.52818363568305
  H   -1.56906826584094     -0.32200224895526      1.50292839368750
  H   -2.06559075924859     -0.89361179115478      0.01227804962759
  C   0.97184504004742     -0.85551159553072      1.34036672664688
  N   1.11995862539463     -1.20419364781911      2.45193171792670
  C   1.88466839614509      0.20537540010615     -0.63837975903187
  N   2.81418119195451      0.71661759360110     -1.14203273868769
