13
Coordinates from ORCA-job run
  C   -0.57452995559921      0.53281308575204     -0.24039034076222
  C   0.92339559187932      0.04578210916158     -0.20888453912857
  Cl  -0.50656408751906      2.32120201611174     -0.22916494226043
  H   1.46053334800540      0.49208552201972     -1.05353014764221
  C   -1.15452034681288      0.08631380013858     -1.51199247552212
  N   -1.59229743842238     -0.30028483396589     -2.53144143323374
  N   -1.39252882091683      0.09116761587551      0.83959853540263
  H   -1.56192018775251     -0.90721794694703      0.80331088043468
  H   -1.01272481831141      0.36621221681069      1.73798137033625
  C   0.94952421684581     -1.41448691869396     -0.32011895022671
  N   0.91705521886868     -2.58546712248782     -0.40653942720366
  C   1.54499283472977      0.46800469751736      1.04721362844249
  N   2.00158444500531      0.80287575870749      2.07595784136360
