13
Coordinates from ORCA-job run
  C   -0.54702970661203      0.43007901548521     -0.22563332214726
  C   0.94896753599918      0.00451244891688     -0.19001261443610
  Cl  -0.53164215453777      2.26602193052427     -0.25066363891730
  H   1.47026901163086      0.52127223096218     -1.00307360317534
  C   -1.13808615468554     -0.00013822005293     -1.49474309256218
  N   -1.60750445618545     -0.34687383678657     -2.51455211791476
  N   -1.24145401298885     -0.14394348369262      0.85777250298322
  H   -0.89542343319126      0.18471359817635      1.75214087668008
  H   -2.24159797978663     -0.00322448589190      0.79704479082087
  C   1.06945854313145     -1.44386391324939     -0.38027505469568
  N   1.18031870764335     -2.59835980283666     -0.56317798182493
  C   1.54385291794610      0.40568941926536      1.08796672767628
  N   1.98887118163659      0.72311509917980      2.12720652751312
