13
Coordinates from ORCA-job run
  C   -0.53505983631788      0.38481534841333     -0.31819623599584
  C   0.95643439027553     -0.02489780364744     -0.14710649092623
  Cl  -0.51126001926767      2.18999256506139     -0.65049813067238
  H   1.51464487150137      0.34830246016342     -1.01261723607747
  C   -1.07120135439783     -0.25562104474470     -1.52133736914651
  N   -1.49081205926045     -0.77399030575052     -2.48862912411072
  N   -1.27747578183036     -0.00151224288007      0.81545871047790
  H   -2.27359574707270      0.12150659037189      0.68903582832894
  H   -0.96994691154622      0.47522183968625      1.65566275721336
  C   1.07634226630471     -1.48449972470610     -0.08457464972241
  N   1.18399528750162     -2.65338187212683     -0.06003388262453
  C   1.49791951849697      0.58875808173513      1.06862322214234
  N   1.89901537561291      1.08530610842425      2.05421260111358
