13
Coordinates from ORCA-job run
  C   -0.61495610498437      0.50939872363749     -0.06889990778868
  C   0.77373530025576      0.01275774954919      0.47115286917107
  Cl  -0.67214324578922      2.26122994293724      0.28799580862718
  H   0.80403629850402      0.27911413653583      1.53513726760875
  C   -0.65944410402968      0.30509159901425     -1.52026011673996
  N   -0.68400354036284      0.10295204498422     -2.67750307827527
  N   -1.74772647506241     -0.12036467371890      0.53129207558952
  H   -1.82212507977366     -1.09573797257375      0.26632545723119
  H   -1.74684375150495     -0.01769127051474      1.53894029175459
  C   1.90097084480860      0.65300812304919     -0.20694692146118
  N   2.80244113749644      1.17014557825497     -0.75394792659855
  C   0.83820862190331     -1.44507478962246      0.34539074689313
  N   0.82785009853899     -2.61582919153253      0.25032343398820
