13
Coordinates from ORCA-job run
  C   -0.53195856652115      0.51106290531699      0.04740108691003
  C   0.84077394847260     -0.06219930586750      0.49522551627556
  Cl  -0.55346019967501      2.23823461561036      0.48129600712597
  H   0.90791443430150      0.13837312949382      1.57084533687692
  C   -0.66689725528758      0.40313937683521     -1.41538670702749
  N   -0.82083837188606      0.25511782560243     -2.57199023797975
  N   -1.55890848557043     -0.16214260253222      0.80048546587316
  H   -1.64867271480316     -1.12495455087711      0.48842667884993
  H   -2.44974830608108      0.30323682385187      0.66617604357131
  C   1.95700236930434      0.58278742111606     -0.19819259442529
  N   2.85734219860102      1.10088630617015     -0.74529879158867
  C   0.85630941791539     -1.51146151539623      0.27702024764113
  N   0.81114153122963     -2.67208042932384      0.10299194789719
