13
Coordinates from ORCA-job run
  C   -0.50100886565585      0.52797412288682     -0.19165506324729
  C   0.97407126983429      0.03987830166416     -0.13078433917248
  Cl  -0.49071185233361      2.30695767992393     -0.09229402552594
  H   1.51563116648067      0.48199802604554     -0.97538326810208
  C   -1.05822436870394      0.15642339393321     -1.50599355281356
  N   -1.53125586464128     -0.19155547006105     -2.52496665437851
  N   -1.21416876181528      0.00658742963006      0.93951936325802
  H   -1.31135306911859     -1.00189038629764      0.86693429682793
  H   -2.13637148349933      0.42193304556458      1.00298590015643
  C   1.00342686433946     -1.42107039284947     -0.25399288753647
  N   0.97907833695088     -2.59131446184729     -0.35337406478057
  C   1.60922348043679      0.46378225807417      1.11946569791940
  N   2.16166314772578      0.80129645333297      2.09853859739513
