13
Coordinates from ORCA-job run
  C   -0.56367419859704      0.42853370465899     -0.07354188150508
  C   0.77945971173131     -0.09832747263869      0.50395375363390
  Cl  -0.57591435270036      2.22545090912749      0.26283313665863
  H   0.76654039319852      0.11827199713706      1.58014916088240
  C   -0.59390469211139      0.25578571991335     -1.52689089542344
  N   -0.63039410289085      0.10367446279184     -2.69134198259261
  N   -1.63128090691727     -0.28384377280869      0.52192806856423
  H   -2.51925048042312     -0.08240467221730      0.07929570373270
  H   -1.69618621030413     -0.09884492382411      1.51625363101417
  C   1.93387932298834      0.58011801490142     -0.08946164755334
  N   2.87006217360052      1.11080456139781     -0.55889840276334
  C   0.87989653824516     -1.54824356431101      0.31060492827505
  N   0.98176680418031     -2.70897496412815      0.16611642707674
