13
Coordinates from ORCA-job run
  C   -0.58620472470923      0.39767350105403     -0.06811015017791
  C   0.80363307738094     -0.04128770420323      0.47098230151938
  Cl  -0.66740937673624      2.20634544738130      0.18839673388211
  H   0.82664881034383      0.22475857222089      1.53596828150838
  C   -0.67069981539398      0.15782431752095     -1.50959025961485
  N   -0.74938422675703     -0.04488600165984     -2.66429095438860
  N   -1.59264953375841     -0.33263758270354      0.60629672217797
  H   -1.62335881075883     -0.10420846957958      1.59312236339678
  H   -2.50722039506058     -0.19297446541223      0.19534807724867
  C   1.89930527159437      0.66074875290589     -0.20138606058852
  N   2.78998322259076      1.21425259789414     -0.72918861928369
  C   0.96325328220300     -1.49263094690853      0.33899576726029
  N   1.11510321906140     -2.65297801851025      0.24345579705998
