13
Coordinates from ORCA-job run
  C   -0.52904567176965      0.39580282925924     -0.03169849934165
  C   0.77169682250142     -0.45039034750414      0.05498385250818
  Cl  -0.36419149573291      1.82490032615225      1.01155067508264
  H   0.62467688492721     -1.32900806284658     -0.58849618361777
  C   -0.69519781242696      0.85442087249196     -1.42272738282917
  N   -0.88119959558662      1.14630270317839     -2.54694951816428
  N   -1.61448642825052     -0.41173945658245      0.46224335547946
  H   -2.43506442921917      0.15991042719373      0.62611648694560
  H   -1.85193927070775     -1.13488193569102     -0.20954961033829
  C   0.98758028942515     -0.91685617272819      1.42661768228549
  N   1.19375248435257     -1.31425020113669      2.51164415499231
  C   1.93173512334412      0.29215831774701     -0.44306048841007
  N   2.86068309914309      0.88263070046650     -0.85167452459244
