13
Coordinates from ORCA-job run
  C   -0.55193156264674      0.36234215769160     -0.04032676342908
  C   0.79590449310420     -0.40345350834520      0.07023143934026
  Cl  -0.49730897868708      1.79223363958112      1.01336992689710
  H   0.71557419405437     -1.28677514885049     -0.57858257448461
  C   -0.71651513604980      0.81896524877544     -1.43222503054143
  N   -0.89828096915337      1.10618696921510     -2.55822332931630
  N   -1.59610997429948     -0.51322773491849      0.42586182564218
  H   -2.45442818059198      0.00551411480793      0.57147627837265
  H   -1.77214475835605     -1.24671251449867     -0.25353794492057
  C   1.01322120474782     -0.86061086551170      1.44476716044297
  N   1.22518569058341     -1.24400994742570      2.53365384727775
  C   1.91786677953539      0.41047386156697     -0.40292348104485
  N   2.81596719775932      1.05807372791209     -0.79354135423608
