13
Coordinates from ORCA-job run
  C   -0.54845957931834      0.36056455769237     -0.10423802269261
  C   0.75719814555225     -0.48394862826021     -0.05652783117392
  Cl  -0.19602327793648      1.96626850890292      0.68234450502797
  H   0.53876310778219     -1.40875215994343     -0.60523020945373
  C   -0.88119607546626      0.62637278884837     -1.50610802057272
  N   -1.15399183489608      0.81480299142472     -2.63325489173310
  N   -1.59086886798229     -0.38171983319519      0.50624121566512
  H   -1.42336526838615     -0.50632092546712      1.49908971918101
  H   -2.49218200724557      0.05911737822134      0.37040209804315
  C   1.06493647638531     -0.83524294215749      1.33185620713124
  N   1.26071006736174     -1.12996217273478      2.45144006637139
  C   1.88129561428619      0.19730570002446     -0.69907751133829
  N   2.78418349986348      0.72051473664401     -1.23693732445551
