13
Coordinates from ORCA-job run
  C   -0.53718773263910      0.50559893627700      0.04579849317198
  C   0.82875795079028     -0.06749373743898      0.51377112921912
  Cl  -0.58407083816096      2.22160977924546      0.52099884592417
  H   0.86694841854867      0.10789270979443      1.59522054429945
  C   -0.63585179971615      0.43333755559836     -1.42194449572776
  N   -0.76046277654182      0.31370847351698     -2.58536314363910
  N   -1.57667299380484     -0.19376414701885      0.75679582148722
  H   -2.46841083470380      0.26577100415504      0.60809467958344
  H   -1.64797773239203     -1.15052769756744      0.42175535964153
  C   1.95670116442733      0.60262053078786     -0.13527979310491
  N   2.86592392176971      1.14073628842224     -0.64749821913454
  C   0.86190112813176     -1.51111694224884      0.26283759635481
  N   0.83040212429096     -2.66837275352325      0.06481318192461
