13
Coordinates from ORCA-job run
  C   -0.51519862891580      0.37568885512168     -0.38239406730525
  C   0.62569541384431     -0.49041760152651      0.26779427934794
  Cl  0.26970067016153      1.71339129311314     -1.26593263637149
  H   0.13080945530051     -1.34342558048118      0.75132912704437
  C   -1.22916787147462     -0.48637502875840     -1.33110666865970
  N   -1.80265115070362     -1.21989213832018     -2.04779432614278
  N   -1.44771263792915      0.92754412273292      0.54862883826015
  H   -0.99191774638208      1.52342570173934      1.22984725276660
  H   -2.00453578192697      0.21319778537296      1.00137235690855
  C   1.29573401897193      0.29548558639050      1.30485806529794
  N   1.77794012850150      0.94181687989283      2.15848255214678
  C   1.57286540296625     -1.00746356098334     -0.71975079839740
  N   2.31843872758621     -1.44197631429376     -1.51633397489570
