13
Coordinates from ORCA-job run
  C   -0.49014435403378      0.44402732829492      0.02030792138333
  C   0.72711195144561     -0.52090756189225     -0.02753206788713
  Cl  -0.03102261436389      1.91747845244993      0.90103642120557
  H   0.39797940948812     -1.42400648011755     -0.56017513963602
  C   -0.84184201375013      0.82038966657486     -1.36083844840231
  N   -1.18519045939466      1.05052963914929     -2.46196704147703
  N   -1.54657461511497     -0.21478204916456      0.74448696221972
  H   -2.27820847168922      0.44536207433517      0.98176974674009
  H   -1.95050084551063     -0.95730559687724      0.18209330319864
  C   1.12798272567316     -0.90667637766417      1.32747603438599
  N   1.48249424672654     -1.24020473881248      2.39552083122070
  C   1.84785335632888      0.06271517934454     -0.76812014447030
  N   2.74106168419497      0.52338046437956     -1.37505837848124
