13
Coordinates from ORCA-job run
  C   -0.55148126809248      0.23809687009149     -0.28590267741570
  C   0.70962657521993     -0.48131329271889      0.27258060633971
  Cl  0.01418878714360      1.68774159405210     -1.23399899567902
  H   0.34448259620011     -1.38939406478551      0.76835472210674
  C   -1.22393435047779     -0.66193813594913     -1.22642647451444
  N   -1.76904505090041     -1.39875114238202     -1.96168009016707
  N   -1.41761902014877      0.53901152233906      0.79617354126636
  H   -1.00457241151114      1.22489736587577      1.41981997713774
  H   -2.31495279934050      0.87848612944394      0.47133606954706
  C   1.35276543960054      0.36503777619774      1.28028373726837
  N   1.81915757551022      1.05085352297110      2.11128739491423
  C   1.64620317124512     -0.85988494723996     -0.78561035588978
  N   2.39418075555156     -1.19484319789568     -1.62621745491420
