13
Coordinates from ORCA-job run
  C   -0.57502118345808      0.41197967905259     -0.07871716779752
  C   0.79816761722425     -0.05363746950608      0.48058858015662
  Cl  -0.61133598996951      2.22634475323808      0.15141855828198
  H   0.82013183717778      0.23198023146139      1.54037350520573
  C   -0.65100271848470      0.15456931104986     -1.51769914152693
  N   -0.72102575471154     -0.06017329460572     -2.67073288199219
  N   -1.60672124543784     -0.28217455765231      0.59508113073054
  H   -1.64113922798313     -0.04110276541134      1.57875125614474
  H   -2.51324679268789     -0.12542696780755      0.17280326495270
  C   1.91652332897216      0.60514828429276     -0.19782967521767
  N   2.82410308960529      1.11971328515295     -0.73636387219187
  C   0.92035210674649     -1.51087824993763      0.37689173901367
  N   1.04221493300672     -2.67634223932701      0.30343470424021
