13
Coordinates from ORCA-job run
  C   -0.55707922197860      0.42835047432702     -0.20355580642246
  C   0.94945117411815      0.03956429277306     -0.18927233134622
  Cl  -0.58847918302265      2.26236914335421     -0.13053775779679
  H   1.45747819621206      0.61278340311037     -0.97232659499704
  C   -1.13780095427765      0.05094895382785     -1.49405245423524
  N   -1.59959591150365     -0.25360221165332     -2.53064743743138
  N   -1.23600928064891     -0.22062627639536      0.84706799317032
  H   -0.89933493441200      0.06990481577165      1.75811484410537
  H   -2.23960838030329     -0.10416674944697      0.79229424090545
  C   1.10659723560452     -1.39294321988858     -0.45695790456954
  N   1.24574704352701     -2.53336060689595     -0.69911079155688
  C   1.53297674959349      0.38569575918418      1.10982260051057
  N   1.96565746709151      0.65708222193184      2.16716139966383
