13
Coordinates from ORCA-job run
  C   -0.54158810174685      0.50139914265764      0.03924047520070
  C   0.85219898946027     -0.02630229914090      0.47800843084891
  Cl  -0.59125795622865      2.24298112248582      0.40782091365938
  H   0.93664466672416      0.21505836721156      1.54403428037193
  C   -0.70555305956550      0.33475785408924     -1.41506620458935
  N   -0.88167573354123      0.13931963318080     -2.56136637185164
  N   -1.53743870299288     -0.16360958276971      0.83991924513242
  H   -2.44070775878507      0.27786593738290      0.70825862801040
  H   -1.61306360379097     -1.13935659684709      0.56678827028166
  C   1.94017688269620      0.61634948234066     -0.26097012841854
  N   2.81713231233365      1.13482233543994     -0.84462883054827
  C   0.89372360525584     -1.48205659428344      0.31302802420187
  N   0.86940846018101     -2.64922880174742      0.18493326770054
