13
Coordinates from ORCA-job run
  C   -0.54404135139963      0.38651391155243     -0.29885076871594
  C   0.95601457531092     -0.00193027954402     -0.15755359813026
  Cl  -0.55443254997754      2.20322997571192     -0.56427672137033
  H   1.49849391059456      0.41498091722552     -1.01299643919811
  C   -1.08377240659686     -0.21737860606486     -1.51907145294118
  N   -1.51382921046749     -0.70350245080293     -2.49845726415153
  N   -1.26806536215770     -0.05423959658402      0.82683727271457
  H   -0.95980399671802      0.39606725639473      1.68129593894064
  H   -2.26747578919125      0.05669963500073      0.71434952889261
  C   1.10507468559561     -1.46002826201089     -0.15238848872545
  N   1.23931996774687     -2.62621627890564     -0.17706695708774
  C   1.49696314852870      0.57405012489694      1.07674165051967
  N   1.89455437873183      1.03375365313009      2.08143729925306
