13
Coordinates from ORCA-job run
  C   -0.59107678003169      0.53565321266516     -0.07518776253339
  C   0.76957693532850     -0.02111801656255      0.47877304535891
  Cl  -0.57350321461698      2.28920867703280      0.27678747415371
  H   0.80332928046788      0.24689898107039      1.54217298178594
  C   -0.62979213536107      0.32944388293648     -1.52654981452077
  N   -0.64937332609241      0.12748161273504     -2.68382409445173
  N   -1.75632193446295     -0.04099269831152      0.51571989914124
  H   -1.87009287805904     -1.01386413346751      0.25567761766381
  H   -1.76250023516349      0.06816010582476      1.52258854315558
  C   1.92930457845595      0.56595192213487     -0.19272039481717
  N   2.85574610489220      1.04289446561027     -0.73446772355878
  C   0.76875488803462     -1.48069981228296      0.35661680943270
  N   0.70594871660847     -2.65001819938523      0.26441341918996
