13
Coordinates from ORCA-job run
  C   -0.50615960511432      0.39199391142487     -0.35413768048178
  C   0.96346443302416     -0.04785203914528     -0.09377829379128
  Cl  -0.42124306190902      2.19106612757638     -0.70985853024728
  H   1.57828905092323      0.29934651541927     -0.93125586443648
  C   -0.99078226762301     -0.25346623214397     -1.57624553109553
  N   -1.37249433705081     -0.77183488541921     -2.55914024748857
  N   -1.31948524035296      0.04015120078719      0.74144797517522
  H   -2.30391562848532      0.18312337092469      0.55707529113586
  H   -1.04850384837906      0.52289050820913      1.59080263006788
  C   1.04713990288299     -1.50864100322844     -0.00310130122572
  N   1.12988309600193     -2.67897886377712      0.04182934034126
  C   1.44749211487641      0.57021867339549      1.14390053672172
  N   1.79631539120578      1.06198271597701      2.15146167532470
