13
Coordinates from ORCA-job run
  C   -0.59754189928120      0.41621935009853     -0.14924219611122
  C   0.76062589597445     -0.34977489272536      0.06143002741251
  Cl  -0.50978967414988      1.92614380649890      0.79792427652017
  H   0.71793603508150     -1.24079075807836     -0.57925262714686
  C   -0.69754915763368      0.73713955374647     -1.57761619895511
  N   -0.76055920906293      0.93599862725678     -2.73386750028421
  N   -1.76014040282486     -0.30977638352078      0.25469965807436
  H   -1.92081534288712     -1.12538646455854     -0.32405480994062
  H   -1.72438305835873     -0.55997396415354      1.23617245493336
  C   0.85305565057260     -0.79253314412990      1.45330871387293
  N   0.86876727869347     -1.16658625849614      2.56632989887001
  C   1.92176147391816      0.44715939784697     -0.33395431582928
  N   2.84863240995821      1.08316113021497     -0.67387738141603
