13
Coordinates from ORCA-job run
  C   -0.56225153522833      0.48150444946704     -0.07040421013305
  C   0.71197826015366     -0.44107999568593     -0.04845910241917
  Cl  -0.11856225009862      2.02148291160268      0.71475987345522
  H   0.44160040226101     -1.35655569277603     -0.59163584691460
  C   -0.89645617078414      0.72578681308724     -1.47820754763424
  N   -1.15645042014564      0.85838013643932     -2.61636098564501
  N   -1.70215096424035     -0.06115066900756      0.59858561289790
  H   -1.50934071697873     -0.25351613377570      1.57472102907941
  H   -2.06601930223880     -0.88140914240951      0.12901765516243
  C   1.01985520285920     -0.80587181178456      1.33500646058924
  N   1.20860113618377     -1.10979687768304      2.45347268511450
  C   1.85944437390926      0.16990860565845     -0.71886174594425
  N   2.76975198434771      0.65331740686760     -1.28163387760838
