13
Coordinates from ORCA-job run
  C   -0.57570163007693      0.40913955311458     -0.08424435194504
  C   0.78457947254656     -0.06229369270336      0.50105425231672
  Cl  -0.63564364197487      2.21507864099228      0.19846125607603
  H   0.77183019814704      0.18924752692193      1.56968050779124
  C   -0.60802526821538      0.19380326696649     -1.53168765747565
  N   -0.64425221205408      0.01114663452591     -2.69186251429597
  N   -1.62015696720586     -0.31347374143505      0.53833446937533
  H   -2.51532118328289     -0.15210470788213      0.09407859422981
  H   -1.68583238654011     -0.10077074149570      1.52695387370105
  C   1.91707770882819      0.62853739887586     -0.11969266501763
  N   2.83705666770486      1.17291988231777     -0.60520841534583
  C   0.92242484154616     -1.51451250152940      0.35536059686334
  N   1.05196440057731     -2.67671751866917      0.25077205372658
