13
Coordinates from ORCA-job run
  C   -0.51027200965001      0.38879013712066     -0.35062928928218
  C   0.96375375894487     -0.03956971630768     -0.09635166475683
  Cl  -0.44192919190437      2.19036622054826     -0.69751026646861
  H   1.57288703677340      0.31875592789139     -0.93327739397790
  C   -0.99344199266403     -0.25446179536543     -1.57446374792911
  N   -1.37821474474133     -0.77157838027895     -2.55683868731183
  N   -1.31776356461614      0.02437571128355      0.74527444793821
  H   -2.30374217816545      0.16220302422449      0.56454707808599
  H   -1.04769194045014      0.50426496650285      1.59646450355763
  C   1.06128858178430     -1.49984026160045     -0.01530642592620
  N   1.15507776660532     -2.66956671442438      0.02339204840983
  C   1.44606087142998      0.57658597963023      1.14288729088700
  N   1.79498760665361      1.06967490077548      2.14981210677401
