13

C	0.0	0.0	0.0
C	-0.556627	-0.148759	-1.390681
Cl	1.760658	0.0	0.0
H	-0.168461	0.602275	-2.072118
H	-0.365901	-0.764066	0.677151
H	-1.657075	-0.102952	-1.297864
N	-0.416979	1.329556	0.578716
O	-0.515797	1.379238	1.797153
O	-0.539239	2.267057	-0.201638
N	-0.203205	-1.477475	-1.944301
O	-0.111964	-2.425097	-1.166626
O	-0.066976	-1.549721	-3.164906
Cl	-3.435478	0.0	0.0
