11
Coordinates from ORCA-job run
  C   0.48689774738088     -0.12413728793987     -0.00398016101117
  C   -0.78534386398393      0.00767825985323     -0.40787950635628
  H   -1.10608727770211     -0.24376131974042     -1.40997524521120
  N   1.46194164519613     -0.68803842079021     -0.98861003828327
  O   2.59994970930806     -0.86355675621738     -0.56993569197090
  O   1.04331393590165     -0.92802222637979     -2.11204706574998
  C   1.03648543680567      0.20942912173581      1.26242736345784
  N   1.53980854794318      0.48838557408333      2.29003703444657
  N   -1.82312814083196      0.56902050054992      0.44379686273508
  O   -2.78325238500801      1.03960331265937     -0.16682395359113
  O   -1.67058535500955      0.53239924218600      1.66199040153444
