11
Coordinates from ORCA-job run
  C   0.49474951624728     -0.09035517332326     -0.01517303300401
  C   -0.79313301186933     -0.02195232616942     -0.38494622084548
  H   -1.12354333261490     -0.27510115635788     -1.38352964241097
  N   1.47153067483422     -0.57987243034113     -1.03906934308496
  O   1.03536402790811     -0.81937011386667     -2.15573843156988
  O   2.62854730776724     -0.70178866874331     -0.65514457276153
  C   1.06332200608536      0.24290345526819      1.24260130043539
  N   1.58895850029459      0.51617441925342      2.26063716259548
  N   -1.84634675149251      0.45440038050165      0.49931843648616
  O   -1.61921260738138      0.52862549423791      1.70400010726980
  O   -2.89823632977867      0.74533611954049     -0.07195576310999
