11
Coordinates from ORCA-job run
  C   0.49567764010209     -0.08052717928839     -0.02416928767127
  C   -0.81057901274222     -0.15141626071321     -0.32004142516041
  H   -1.17983605458826     -0.65311113688552     -1.20456429589314
  N   1.44506471279710     -0.77335790362228     -0.94967134949351
  O   0.96861234108522     -1.29761715808815     -1.94625044251372
  O   2.62354368647087     -0.75484326178513     -0.61500461409917
  C   1.10349902054149      0.58025039817438      1.07632140610753
  N   1.65204995292234      1.12941151778798      1.96213676798924
  N   -1.83258308315758      0.50283133756699      0.48311378432363
  O   -1.58462914943907      0.76070490084042      1.65813039220294
  O   -2.87982005399197      0.73867474601288     -0.12000093579213
