11
Coordinates from ORCA-job run
  C   0.55660764237313      0.27553717220898      0.11562822289747
  C   -0.73640704462134      0.57297517889127      0.31074101079346
  H   -1.06264940393219      1.50742414093605      0.75010297260386
  N   1.03057345691542     -0.98131425494143     -0.50851529425918
  O   1.47867349301070     -1.80943005154720      0.27053603421916
  O   0.97137068625315     -1.03093682942741     -1.72789455771683
  C   1.60047424223935      1.15477584684669      0.51476056332049
  N   2.47036811238793      1.87849364376145      0.84132140572123
  N   -1.82208124244597     -0.30905114452425     -0.09014008916509
  O   -1.55719739745673     -1.48487340071172     -0.32665055963256
  O   -2.92873254472346      0.22539969850757     -0.14988970878201
