11
Coordinates from ORCA-job run
  C   0.49448718969944     -0.09497451882824     -0.01636557440881
  C   -0.79746278070384     -0.02044083869817     -0.37150537043214
  H   -1.14749677994932     -0.33487654960521     -1.34554582237385
  N   1.44172843909567     -0.67292041536198     -1.02270255551131
  O   2.59001132001939     -0.84738959135391     -0.63294501450078
  O   0.99257505866351     -0.92327491094310     -2.13191477783676
  C   1.09310691138692      0.29682911864511      1.21039838959055
  N   1.64407481784574      0.61579226014016      2.20154496184181
  N   -1.83238282935758      0.52281099914228      0.49543196763158
  O   -1.55337546510458      0.77660041666444      1.66425156038918
  O   -2.92526588159536      0.68084403019862     -0.05164776438946
