11
Coordinates from ORCA-job run
  C   0.56468940248446      0.26084049291259      0.14139439068688
  C   -0.71417109593542      0.51054867686371      0.45525117397050
  H   -1.01783154787674      1.35552423702378      1.06063434821242
  N   0.97985833843320     -0.86756159120841     -0.72629101215762
  O   0.62284473391777     -0.81870629463711     -1.89396482060176
  O   1.67095405562990     -1.71280792417176     -0.17461797067619
  C   1.64049424042626      1.05629309460001      0.62295562260428
  N   2.53714146433345      1.70826324297441      1.02005992632034
  N   -1.81272178272299     -0.30256395674662     -0.04502491293582
  O   -1.60609688137465     -1.49719807925058     -0.23757834624181
  O   -2.86516092731525      0.30736810163998     -0.22181839918123
