11
Coordinates from ORCA-job run
  C   0.51015163126504      0.37394086207056     -0.10433312688770
  C   -0.79066870605207      0.57365587020667      0.14498625966384
  H   -1.23827980537690      1.55679263189212      0.20578884427752
  N   1.10826653876001     -0.97628938242915     -0.20715455494848
  O   0.71917936735942     -1.68543199971247     -1.12435501344359
  O   1.95920377570756     -1.22178148394933      0.63763101428179
  C   1.43162075535254      1.44474717586949     -0.26741182158243
  N   2.17935129630985      2.34154717203162     -0.41785293708683
  N   -1.72099872100702     -0.53199874741270      0.33225976389632
  O   -1.30199147579471     -1.54370675698848      0.88823560277014
  O   -2.85683465652373     -0.33047534157834     -0.08879403094058
