11
Coordinates from ORCA-job run
  C   0.49836381366470     -0.05494365981572     -0.02677171624167
  C   -0.80793772409309     -0.29452268006367     -0.21362174063388
  H   -1.16929408289285     -1.05935361579952     -0.88800063837282
  N   1.46716505569530     -0.92770324495150     -0.75931009519558
  O   2.65230629699779     -0.71694781716142     -0.53075307671185
  O   0.99875369811100     -1.77043200580521     -1.51125828458883
  C   1.08935448520835      0.94325037603793      0.79288546886959
  N   1.62262777178812      1.76554281459196      1.44607720755063
  N   -1.84663225826858      0.50692016061900      0.41640935868744
  O   -2.92020968489740      0.51168545588277     -0.18612702182685
  O   -1.58449737131333      1.09650421646539      1.46147053846382
