11
Coordinates from ORCA-job run
  C   0.53902353040888      0.30722486510855      0.10404489994244
  C   -0.77222799738548      0.54866142071065      0.25284279206265
  H   -1.15341537937813      1.48572485717702      0.63918424183753
  N   1.10033632687486     -0.95682239539316     -0.42617992585148
  O   1.39536812493517     -1.79325475647961      0.41395302708499
  O   1.26058118839217     -0.99670463376889     -1.63653943505755
  C   1.52144390672209      1.27424298204795      0.45358533352223
  N   2.33791870943878      2.07390982576277      0.73834346511471
  N   -1.80734888732970     -0.41273132073877     -0.09559312892023
  O   -1.46076623268793     -1.51488269529400     -0.51258276426067
  O   -2.96091328999070     -0.01536814913251      0.06694149452539
