11
Coordinates from ORCA-job run
  C   0.55090769517280      0.31722606107397      0.01925661430691
  C   -0.72805210582208      0.59659388767836      0.29676801397994
  H   -1.05490012893671      1.55209760579736      0.68762195576009
  N   1.00817290738545     -1.00370378144453     -0.47120813818205
  O   0.87759028831040     -1.94011108858867      0.30392957835475
  O   1.49611564580949     -1.00231314009651     -1.59322076849459
  C   1.59169882202050      1.27634368717131      0.15764871576301
  N   2.47127830616283      2.04638664984865      0.29716210645349
  N   -1.79558237399387     -0.37786059894637      0.13626370907150
  O   -1.68694480678215     -1.20628884404437     -0.76270392454080
  O   -2.73028424932667     -0.25937043844920      0.92748213752775
