11
Coordinates from ORCA-job run
  C   0.57072770842939      0.25049079726574      0.15444646078205
  C   -0.70371212446957      0.49267259429996      0.48954084748986
  H   -0.99560539495817      1.29127388102363      1.16078914941004
  N   0.95892821038699     -0.81674324164216     -0.79622486920732
  O   1.67124439994203     -1.69386611141274     -0.32522368473710
  O   0.55147254925110     -0.70473893592208     -1.94390757074649
  C   1.66085572473082      0.98798402734648      0.69190855523069
  N   2.56313687793137      1.60119187740108      1.13417840331516
  N   -1.80821043718662     -0.28539461637572     -0.05492471215973
  O   -1.62186202542241     -1.47466395285236     -0.29282567851804
  O   -2.84697548863493      0.35179368086819     -0.21675690085913
