11
Coordinates from ORCA-job run
  C   0.48497949431724      0.03072692423454     -0.12946156038064
  C   -0.72623457316193     -0.49295960349090      0.11074799944152
  H   -0.91370528469598     -1.55825847545328      0.09048407770391
  N   1.58388975772683     -0.92091761880087     -0.48331244423925
  O   1.31697065990392     -2.11384064820056     -0.45908762250019
  O   2.65829027052362     -0.40866189627346     -0.77371395052899
  C   0.86436588867598      1.39882668166802     -0.08992790911583
  N   1.22410128296475      2.51935044732701     -0.04313235379884
  N   -1.87021892190021      0.32196788738572      0.49131900457529
  O   -2.74532716877403     -0.28633896815903      1.10798525585344
  O   -1.87811140558019      1.51010526976281      0.18009950298959
