11
Coordinates from ORCA-job run
  C   0.54119383589001      0.31152117180223      0.13174244372785
  C   -0.70039598735037      0.27540824047012      0.63501988221638
  H   -1.00187367393435      0.84528710942096      1.50531303094075
  N   0.96773539974790     -0.49808815739410     -1.03238262625727
  O   1.25674301544971      0.14817616567204     -2.03015717827543
  O   1.02431290657357     -1.70747526526327     -0.86484810035043
  C   1.55629231920078      1.14724251817682      0.67032290741445
  N   2.39788468811177      1.83680148823287      1.12035395805921
  N   -1.74494400489972     -0.57618341525934      0.08436619503801
  O   -1.70073423655524     -0.84442587040089     -1.11317036944342
  O   -2.59621426223406     -0.93826398545747      0.89443985692988
