11
Coordinates from ORCA-job run
  C   0.56170972290855      0.27406158563371      0.07636369856959
  C   -0.70160635761700      0.50488131005543      0.46375394382120
  H   -0.97709551649652      1.34686764141515      1.08653090883768
  N   0.97920260377772     -0.87322363921675     -0.76229161077862
  O   1.20854884192878     -1.91414712887448     -0.16510287977291
  O   1.10376368319505     -0.62986522994574     -1.95310682253621
  C   1.62663049479166      1.14387797718460      0.43963065322023
  N   2.51062639008223      1.86303585039458      0.73691316540138
  N   -1.81602811602310     -0.36031782300484      0.10886237047366
  O   -1.62281618161755     -1.24625047327931     -0.71988796156756
  O   -2.87293556492983     -0.10892007036235      0.68733453433156
