11
Coordinates from ORCA-job run
  C   0.51921730378590      0.35518988624835     -0.12893950130413
  C   -0.80342079666025      0.55868253125481     -0.06006025580843
  H   -1.26851544470164      1.50572744977187     -0.30243869927973
  N   1.14511477666068     -0.95826304456614      0.14651322103358
  O   2.07237830481901     -0.93342312004396      0.94604500647505
  O   0.70331296402927     -1.91718971194607     -0.47051547527540
  C   1.42649251431633      1.38683293695897     -0.49540179081389
  N   2.15089677641842      2.24611497337318     -0.84529177699320
  N   -1.73867411403560     -0.49539100420314      0.31278244245583
  O   -1.43149661585620     -1.23350717699305      1.24351087721505
  O   -2.77530566877592     -0.51477371985483     -0.34620404770474
