11
Coordinates from ORCA-job run
  C   0.47538663660883      0.01785820398144     -0.16516555707204
  C   -0.73397465918535     -0.47783257849345      0.13514608407383
  H   -0.95940639470813     -1.53509558720571      0.08944141532176
  N   1.52066896805185     -0.94899639120041     -0.61932595744615
  O   1.20896067315767     -2.13074676069094     -0.65220912179839
  O   2.60139445765717     -0.45970912059664     -0.92581562543605
  C   0.89570720332189      1.37267148222914     -0.09279388415232
  N   1.28421191845841      2.48210937432728     -0.02027953114155
  N   -1.81952022550066      0.36070799122040      0.62136315426224
  O   -1.84430483781377      1.54303342199457      0.28972338244298
  O   -2.62912374004791     -0.22400003556570      1.34091564094568
