11
Coordinates from ORCA-job run
  C   0.53693919025896      0.36322545507657     -0.04832905431804
  C   -0.77441137547998      0.53468047421295      0.16242161579808
  H   -1.21117360653974      1.52352601173650      0.25639064583188
  N   1.15050221377089     -0.97749055015745     -0.20521981854763
  O   0.40641626527168     -1.88816740637332     -0.54553362489476
  O   2.35282328387307     -1.04210601703596      0.02491695345323
  C   1.43699800278550      1.46074161248396     -0.15079751913494
  N   2.11581529894695      2.41301431858414     -0.27931358043267
  N   -1.74901157439665     -0.54905502109758      0.23972377851539
  O   -1.77936028131733     -1.19577807000518      1.27872629820196
  O   -2.48553741717334     -0.64359080742464     -0.73298569447251
