11
Coordinates from ORCA-job run
  C   0.56674792133184      0.31076463834430      0.02759542502303
  C   -0.63447469890298      0.34411177479718      0.62179573273046
  H   -0.86204352497404      1.06040941198252      1.40327791367059
  N   0.91337496269726     -0.65470091355089     -1.04177295984844
  O   2.05739887801503     -0.58434004689502     -1.47582170866566
  O   0.03170367218450     -1.42805252053763     -1.39146333708283
  C   1.60197006224314      1.21846040526526      0.39569690005708
  N   2.42662378750299      1.98950599354410      0.72760008126856
  N   -1.74866038574175     -0.54775014842740      0.30265091885684
  O   -1.82202259068892     -1.56766052492514      0.97427339069006
  O   -2.53161808366707     -0.13974806959727     -0.54383235669967
