11
Coordinates from ORCA-job run
  C   0.57109531820747      0.24756621866802      0.13725673396812
  C   -0.69619828415546      0.47628023196587      0.50827879900123
  H   -0.97637430420375      1.27170652828833      1.18756256956336
  N   0.95762705048829     -0.81184156316653     -0.82342534820301
  O   1.63358280264881     -1.71458867480739     -0.35005851747182
  O   0.59834362777954     -0.65512560462976     -1.98104129658726
  C   1.66161886432642      1.00110571444365      0.65140378869709
  N   2.56422541813444      1.62887981769865      1.07316701990414
  N   -1.81663777623562     -0.29555618327585     -0.01005532666044
  O   -1.61301815301904     -1.46102195511419     -0.33881493313118
  O   -2.88426456397112      0.31259546992919     -0.05627348908023
