11
Coordinates from ORCA-job run
  C   0.49637027396527     -0.07116824938606     -0.03486766300143
  C   -0.81665683251130     -0.21189015511407     -0.26940461872334
  H   -1.20117725574149     -0.81271781126409     -1.08276723589733
  N   1.43575965853747     -0.82044917410188     -0.92576078962669
  O   0.93914330544130     -1.50056850064273     -1.81215270263707
  O   2.62780974195002     -0.68386813154845     -0.67778498366977
  C   1.11898696264766      0.72012162645059      0.96693607024467
  N   1.67561357689637      1.37549174262945      1.77177069481904
  N   -1.82833305412128      0.49205550378188      0.50411702462966
  O   -2.89302361223644      0.66519167657032     -0.08937362230464
  O   -1.55549276482758      0.84580147262503      1.64828782616691
