11
Coordinates from ORCA-job run
  C   0.47143575402143      0.02647107576794     -0.17706911754625
  C   -0.69310711609092     -0.47649298019314      0.25971871148394
  H   -0.89139678260293     -1.53942631866595      0.28749237383186
  N   1.52625023362508     -0.95634693463731     -0.58004848495162
  O   2.63814118054471     -0.48649124616727     -0.78883521236522
  O   1.19482971893117     -2.13088878976598     -0.65338225902152
  C   0.85046337895591      1.39055841740874     -0.28807509474656
  N   1.20707577225309      2.50675632354872     -0.40911461539508
  N   -1.81050492066797      0.35696101704464      0.67820092506137
  O   -1.61337209314003      1.55185566504476      0.88388381888150
  O   -2.88081512582953     -0.24295622938515      0.78822895476758
