11
Coordinates from ORCA-job run
  C   0.56689511119927      0.19545890747897      0.21682463335712
  C   -0.71480379372151      0.37309352994259      0.56621699598070
  H   -1.01437283658827      0.94869692186403      1.43321668360555
  N   0.98578097571294     -0.62386359859666     -0.94405407850827
  O   0.78956026919527     -1.82732553118661     -0.86103154607849
  O   1.52170638432095      0.00101194569009     -1.84868112733949
  C   1.63998506409078      0.79708233490409      0.92961341597469
  N   2.52901583984433      1.29071464942362      1.52343724162255
  N   -1.81790541673832     -0.23546876438200     -0.16395576789409
  O   -1.67101413082986     -0.44400350775114     -1.36504633807416
  O   -2.81484746648559     -0.47539688738696      0.51445988735388
