11
Coordinates from ORCA-job run
  C   0.48564316872590     -0.12582730819011     -0.02762847872537
  C   -0.78027385452998      0.10406344922959     -0.40635373725062
  H   -1.08721030124175      0.10203161202327     -1.44373473556246
  N   1.47960915148486     -0.42567108742600     -1.10474932452057
  O   2.63876801309968     -0.56961337856169     -0.73516480798035
  O   1.05437320221391     -0.50153964159966     -2.24866764796952
  C   1.01415678736039     -0.10997633281326      1.29051989872316
  N   1.49501898150530     -0.09798422655569      2.36560835154786
  N   -1.82888284678482      0.44828814998127      0.54194033480022
  O   -2.76907057231061      1.07706892076567      0.05563688285538
  O   -1.70313172952289      0.09815984314661      1.71259326408229
