11
Coordinates from ORCA-job run
  C   0.52890555975876      0.34632403749625     -0.11573930414282
  C   -0.76238877160445      0.60049953861555      0.13589822222700
  H   -1.15534220942548      1.60586081064608      0.22334814261084
  N   1.07662391005515     -1.02675712391611     -0.18666672558477
  O   0.89531464290549     -1.73991433260911      0.79007882868572
  O   1.67852175072192     -1.29319811304666     -1.21864591776989
  C   1.47546599722587      1.38393364384692     -0.34293357844743
  N   2.24571610018587      2.25419040309635     -0.53025510103948
  N   -1.74182543740105     -0.45588536947940      0.35596346804249
  O   -1.67834448729471     -1.45702431080752     -0.35064100565071
  O   -2.56164705512738     -0.21702918384236      1.23959297106905
