11
Coordinates from ORCA-job run
  C   0.53926053343508      0.34480629064085      0.01280038509726
  C   -0.77384493811140      0.60321561692557      0.07972902670134
  H   -1.17391152600791      1.60709581332850      0.15041087793713
  N   1.08501336241922     -1.02517683335877     -0.12537575776649
  O   1.82516238804268     -1.37902287217064      0.78259107361166
  O   0.76954278398081     -1.64186792694274     -1.13254123123740
  C   1.52248980065347      1.36942109463078      0.08521772869529
  N   2.33269300091299      2.22226413546973      0.13800165872258
  N   -1.78167135863492     -0.44672867373304      0.01916961452454
  O   -2.82044932316996     -0.12952890310786     -0.55597528327804
  O   -1.52328472352007     -1.52547774168238      0.54497190699211
