11
Coordinates from ORCA-job run
  C   0.47563140859628      0.02606406810895     -0.16077040919961
  C   -0.73537836004530     -0.46945948690387      0.13515052338016
  H   -0.97091904952567     -1.52080727219447      0.03543882310040
  N   1.49081112936999     -0.93334872295714     -0.69837187771111
  O   1.20035499996300     -2.12086549457598     -0.67952037802264
  O   2.52522383705278     -0.43092004039234     -1.12095527468430
  C   0.92500948709674      1.36751069509910     -0.03803922885023
  N   1.35237059503971      2.46041743114171      0.06295599873184
  N   -1.81006059524915      0.34684108294827      0.67905899258781
  O   -1.74733020033372      1.56705732536733      0.55251713345970
  O   -2.70671325196466     -0.29248958564155      1.23053569720799
