11
Coordinates from ORCA-job run
  C   0.53959498753932      0.33549302613001      0.01432719109661
  C   -0.69799751746148      0.47016168169502      0.51149135235124
  H   -0.99168730571086      1.30085062218676      1.14108535464588
  N   0.96512497630274     -0.81438104282344     -0.81703757965383
  O   1.09375692430616     -1.88354760400075     -0.23934482941936
  O   1.18290252723040     -0.54936839061808     -1.99066752724396
  C   1.55506262350547      1.30610232408021      0.23430696554932
  N   2.39927245902306      2.10591278730799      0.41991548856972
  N   -1.74627273331978     -0.51496041114666      0.28949199927137
  O   -1.67564042131963     -1.21930796997153     -0.71411907421725
  O   -2.62511652009540     -0.53695502283952      1.14955065905025
