11
Coordinates from ORCA-job run
  C   0.46817070893239      0.04620061843681     -0.17875801583610
  C   -0.70114637796003     -0.50405806350947      0.18133957850803
  H   -0.93871386290682     -1.54086946613573     -0.01602895674892
  N   1.47254500710895     -0.85373818779942     -0.82641341454703
  O   1.10080156240511     -1.97924845461078     -1.12699230122985
  O   2.58821503682955     -0.37453127727665     -0.98992928273496
  C   0.88853502745525      1.39248722976330     -0.01204796180714
  N   1.27645531689920      2.50013908482077      0.08690213679022
  N   -1.77248916821076      0.25710827130533      0.80610038869260
  O   -1.50386830248354      1.33477611877771      1.33056897959136
  O   -2.88050494806929     -0.27726587377186      0.74325884932180
