11
Coordinates from ORCA-job run
  C   0.47335710876155      0.00642100613121     -0.16934586474791
  C   -0.70717988233588     -0.45380176564121      0.27121332748675
  H   -0.87632785604203     -1.49922034950297      0.49206578158958
  N   1.56418176458190     -0.99887512010455     -0.37207257490938
  O   1.28565533211426     -2.17174862287822     -0.16787801853109
  O   2.64611514326437     -0.54623881817378     -0.72625911753620
  C   0.83296502403428      1.34764594557908     -0.46695124744252
  N   1.18321261974480      2.44301795350473     -0.72181329463533
  N   -1.84170329882434      0.41627984320024      0.54384807966123
  O   -2.71186701613544     -0.08836844627125      1.25462741995748
  O   -1.84940893916347      1.54588837415672      0.06156550910739
