12

C	-0.486323	0.04231	-1.44716
C	0.0	0.0	0.0
Cl	-0.078142	-1.465366	-2.322828
H	1.092184	0.0	0.0
H	0.019192	0.861743	-1.959109
H	-0.361131	-0.92214	0.471398
C	-1.933261	0.249469	-1.51307
N	-3.095187	0.41983	-1.525535
N	-0.453339	1.229573	0.645035
H	-1.292716	1.074735	1.187779
H	0.276951	1.567572	1.258712
Cl	3.475273	0.0	0.0
