12

C	-0.461155	0.021437	-1.449022
C	0.0	0.0	0.0
Cl	-2.223933	-0.37582	-1.572569
H	1.094252	0.0	0.0
H	0.060044	-0.751613	-2.017456
H	-0.31503	-0.962854	0.419925
C	-0.248288	1.315424	-2.091729
N	-0.08057	2.345547	-2.62836
N	-0.51847	1.146236	0.73139
H	0.238295	1.575472	1.245636
H	-1.238941	0.873752	1.383465
Cl	3.430585	0.0	0.0
