12

C	-0.48637	-0.018684	-1.448188
C	0.0	0.0	0.0
Cl	0.094901	-1.452483	-2.334633
H	1.09213	0.0	0.0
H	-0.088771	0.852847	-1.973187
H	-0.319971	0.967414	0.416517
C	-1.948181	0.013877	-1.50757
N	-3.121454	0.063243	-1.505221
N	-0.510831	-1.145243	0.733718
H	0.218338	-1.507844	1.33479
H	-1.311056	-0.89553	1.300941
Cl	3.483979	0.0	0.0
