12

C	-0.438877	0.024538	-1.47655
C	0.0	0.0	0.0
Cl	0.063918	-1.463522	-2.338231
H	1.093025	0.0	0.0
H	0.05322	0.857328	-1.984541
H	-0.332621	0.952156	0.430377
C	-1.890653	0.160303	-1.600499
N	-3.059374	0.279692	-1.629692
N	-0.502054	-1.095339	0.797521
H	-0.014293	-1.946039	0.551739
H	-1.496425	-1.233953	0.665016
Cl	3.49051	0.0	0.0
