15

C	-0.480912	0.008251	-1.423902
C	0.0	0.0	0.0
Br	0.217597	-1.469499	-2.438649
H	1.093753	0.0	0.0
H	-0.336622	0.941927	0.438387
N	-2.01032	0.018921	-1.468586
O	-2.624793	-0.933051	-1.918882
O	-2.479219	0.987764	-0.878472
N	-0.101662	1.279651	-2.165838
O	0.813746	1.937572	-1.689827
O	-0.723832	1.521335	-3.195693
N	-0.645466	-1.119811	0.673237
H	-0.782829	-0.900432	1.649355
H	-0.060597	-1.945699	0.617861
Br	2.756891	0.0	0.0
