15

C	-0.488388	0.005777	-1.433647
C	0.0	0.0	0.0
Br	-0.033676	-1.624436	-2.330233
H	1.095794	0.0	0.0
H	-0.340494	-0.948816	0.419183
N	-2.009614	0.178725	-1.418004
O	-2.468134	1.222968	-1.859625
O	-2.635246	-0.73196	-0.895995
N	0.039873	1.18622	-2.241976
O	0.523451	2.108694	-1.596125
O	-0.10567	1.142011	-3.456152
N	-0.613252	1.105271	0.731369
H	0.033345	1.882712	0.724848
H	-0.745752	0.821647	1.692878
Br	3.547141	0.0	0.0
