15

C	-0.49242	0.007145	-1.432342
C	0.0	0.0	0.0
Br	-0.037335	-1.61968	-2.333561
H	1.095775	0.0	0.0
H	-0.340855	-0.948651	0.41905
N	-2.01342	0.1789	-1.419195
O	-2.471987	1.225424	-1.855274
O	-2.638727	-0.734317	-0.901725
N	0.036689	1.185338	-2.242606
O	-0.124733	1.146754	-3.454574
O	0.536417	2.100452	-1.600561
N	-0.610738	1.105756	0.732453
H	-0.745983	0.821153	1.693131
H	0.038338	1.881455	0.728481
Br	3.538893	0.0	0.0
