15

C	-0.477112	0.007985	-1.42839
C	0.0	0.0	0.0
Br	0.254572	-1.446715	-2.448569
H	1.091948	0.0	0.0
H	-0.333369	0.941649	0.440674
N	-2.005441	-0.012403	-1.475759
O	-2.600993	-0.931799	-2.011153
O	-2.498518	0.903477	-0.823667
N	-0.117155	1.291753	-2.158575
O	-0.802353	1.588281	-3.132768
O	0.85263	1.902892	-1.730866
N	-0.620974	-1.137486	0.660748
H	0.050678	-1.88395	0.793888
H	-0.986961	-0.870628	1.562412
Br	2.757336	0.0	0.0
