15

C	-0.497673	-0.023247	-1.44063
C	0.0	0.0	0.0
Br	-2.408248	-0.341002	-1.545664
H	1.091588	0.0	0.0
H	-0.337174	-0.925426	0.469265
N	-0.143525	1.298486	-2.104119
O	1.049195	1.418868	-2.347225
O	-1.019429	2.142101	-2.248523
N	0.13583	-1.122927	-2.278336
O	0.183183	-0.937703	-3.487254
O	0.473264	-2.126661	-1.668127
N	-0.445989	1.157856	0.744738
H	-1.405191	1.411734	0.546636
H	0.164711	1.943654	0.566337
Br	3.535696	0.0	0.0
