17

C	0.0	0.0	0.0
C	-0.426833	0.349451	-1.465032
Cl	1.775992	0.0	0.0
H	-0.12185	1.400571	-1.561865
C	-0.608745	0.927442	1.015834
H	-0.24387	0.691775	2.013999
H	-0.349138	1.958389	0.766285
H	-1.697978	0.80301	0.991709
N	-0.386958	-1.436326	0.345133
O	-0.336439	-1.749028	1.528079
O	-0.673992	-2.182191	-0.585647
N	-1.806585	0.243599	-1.838295
H	-2.128992	-0.712685	-1.76284
H	-2.439737	0.77679	-1.246756
C	0.378884	-0.387959	-2.458058
N	0.993647	-0.924604	-3.301686
Br	-4.459966	0.0	0.0
