17

C	0.0	0.0	0.0
C	-0.647685	0.038143	-1.383053
Cl	1.763272	0.0	0.0
H	-1.734925	0.000161	-1.174064
C	-0.581066	1.03953	0.930437
H	-0.30435	2.038337	0.588501
H	-0.196288	0.890793	1.941435
H	-1.672245	0.931191	0.923027
N	-0.388602	-1.406341	0.567355
O	-1.589619	-1.606354	0.615501
O	0.492335	-2.181294	0.914803
N	-0.274916	-1.1229	-2.168174
H	0.586883	-0.964433	-2.672612
H	-1.011756	-1.336764	-2.826432
C	-0.3445	1.324924	-2.030165
N	-0.098434	2.319583	-2.605936
Br	-4.239391	0.0	0.0
