17

C	0.0	0.0	0.0
C	-0.577816	0.237425	-1.396767
Cl	1.772459	0.0	0.0
H	-1.667552	0.117412	-1.257455
C	-0.531197	0.966753	1.032199
H	-0.227725	1.982092	0.772555
H	-0.130098	0.707907	2.011649
H	-1.624556	0.894256	1.036864
N	-0.408216	-1.414031	0.446669
O	-1.097177	-2.085447	-0.308361
O	-0.019181	-1.75462	1.558846
N	-0.042075	-0.689739	-2.387107
H	0.468099	-0.200274	-3.109538
H	-0.803663	-1.20969	-2.800296
C	-0.329365	1.629512	-1.783804
N	-0.089483	2.718455	-2.154751
Br	-3.916049	0.0	0.0
