14

C	-0.501576	-0.156965	-1.423184
C	0.0	0.0	0.0
F	-0.259583	-1.465025	-1.819733
H	1.109408	0.0	0.0
H	-1.576809	0.021771	-1.483421
C	0.199182	0.730595	-2.366788
N	0.709247	1.3585	-3.216224
N	-0.465545	-1.149713	0.820281
O	0.324879	-1.659698	1.605802
O	-1.638964	-1.501023	0.65632
N	-0.459187	1.200624	0.591502
O	-0.770817	2.127849	-0.194936
O	-0.378683	1.313705	1.831126
H	2.365618	0.0	0.0
