14

C	-0.532455	0.029777	-1.418417
C	0.0	0.0	0.0
F	-0.048342	-1.084217	-2.084625
H	1.087643	0.0	0.0
H	-1.622702	-0.004705	-1.443429
C	-0.058269	1.215781	-2.153741
N	0.291997	2.100251	-2.842172
N	-0.414668	-1.215122	0.699041
O	0.166306	-1.470525	1.757134
O	-1.288654	-1.924282	0.173008
N	-0.425741	1.149402	0.758268
O	-1.141294	1.991223	0.168489
O	0.004011	1.271167	1.912638
H	2.35352	0.0	0.0
