14

C	-0.366208	0.165487	-1.444297
C	0.0	0.0	0.0
F	-1.725877	0.352497	-1.647158
H	1.110196	0.0	0.0
H	0.1442	1.070544	-1.776649
C	0.089543	-0.951006	-2.284289
N	0.433426	-1.756601	-3.065268
N	-0.456564	-1.228415	0.61236
O	-1.121805	-2.018125	-0.079256
O	-0.053476	-1.454784	1.756234
N	-0.380766	1.185836	0.751701
O	-0.948474	1.09553	1.843362
O	-0.025439	2.251682	0.227539
H	2.344735	0.0	0.0
