14

C	-0.588262	0.126698	-1.392737
C	0.0	0.0	0.0
F	-0.462437	-1.080808	-2.056849
H	1.108871	0.0	0.0
H	-1.65398	0.365184	-1.326436
C	0.074041	1.171882	-2.192866
N	0.521497	1.980425	-2.916251
N	-0.420176	-1.300226	0.576644
O	-1.514295	-1.349038	1.144856
O	0.336978	-2.250884	0.400323
N	-0.423161	1.074331	0.832109
O	-0.888652	2.090717	0.265134
O	-0.120113	1.003123	2.035421
H	2.375213	0.0	0.0
