14

C	-0.417075	0.194893	-1.426892
C	0.0	0.0	0.0
F	-1.797439	0.127924	-1.583014
H	1.103664	0.0	0.0
H	-0.097417	1.197443	-1.717405
C	0.185542	-0.775446	-2.358117
N	0.58599	-1.472024	-3.214065
N	-0.450514	-1.28651	0.531933
O	-1.249138	-1.345384	1.465946
O	0.046533	-2.262014	-0.044472
N	-0.367402	1.122021	0.838032
O	-0.696397	2.184406	0.278283
O	-0.138214	1.007213	2.047802
H	2.361313	0.0	0.0
