16

C	-0.682634	0.060529	-1.359516
C	0.0	0.0	0.0
Br	-0.04247	1.689882	-2.378824
H	1.098468	0.0	0.0
H	-1.745531	0.320896	-1.254004
N	-0.456954	-1.109812	-2.130383
H	-1.268405	-1.355133	-2.67951
H	-0.232391	-1.848293	-1.472161
N	-0.303291	-1.326753	0.589131
H	0.548411	-1.613107	1.061802
H	-1.050406	-1.26871	1.273199
C	-0.445311	1.132919	0.910928
H	-1.518407	1.07319	1.155188
H	0.129797	1.075748	1.838724
H	-0.248472	2.107381	0.46032
F	2.655647	0.0	0.0
