16

C	-0.576729	0.031366	-1.394945
C	0.0	0.0	0.0
Br	0.208146	-1.55481	-2.465133
H	1.097777	0.0	0.0
H	-0.186351	0.866307	-1.975758
N	-1.988218	-0.01474	-1.390172
H	-2.371696	-0.187709	-2.30964
H	-2.255191	-0.755088	-0.74736
N	-0.551526	-1.194822	0.688393
H	0.095226	-1.949867	0.47512
H	-0.448866	-1.031414	1.685127
C	-0.440371	1.255923	0.74253
H	-1.517897	1.274487	0.93444
H	-0.169439	2.148757	0.172716
H	0.106473	1.304933	1.688892
F	2.692478	0.0	0.0
