16

C	-0.069597	0.059994	-1.514279
C	0.0	0.0	0.0
Br	-1.882984	0.566065	-2.222723
H	1.099889	0.0	0.0
H	0.05854	-0.9582	-1.882036
N	0.938497	0.915943	-2.108312
H	1.79213	0.657185	-1.572978
H	0.733469	1.873907	-1.841788
N	-0.539947	-1.253546	0.5109
H	-1.485241	-1.112645	0.851665
H	0.03275	-1.548094	1.292745
C	-0.48653	1.243117	0.722141
H	-0.15768	1.206587	1.76549
H	-0.066731	2.151111	0.280217
H	-1.580427	1.325421	0.698292
F	2.718958	0.0	0.0
