16

C	-4.1e-05	-0.005369	-1.524029
C	0.0	0.0	0.0
Br	-1.821227	0.315343	-2.335439
H	1.101549	0.0	0.0
H	0.226008	-1.0239	-1.852231
N	0.974942	0.88137	-2.117704
H	0.730139	1.832237	-1.85609
H	1.831448	0.65144	-1.570462
N	-0.551891	-1.196282	0.620206
H	0.09237	-1.961541	0.457974
H	-1.435643	-1.431858	0.177896
C	-0.556289	1.250605	0.641925
H	-0.147459	2.154243	0.181318
H	-0.280321	1.25426	1.698264
H	-1.649066	1.289371	0.566304
F	2.722237	0.0	0.0
