16

C	-0.442824	0.016577	-1.460049
C	0.0	0.0	0.0
Br	0.050956	-1.676446	-2.344268
H	1.095497	0.0	0.0
H	0.146351	0.76972	-1.987947
N	-1.85369	0.243258	-1.764314
H	-2.089227	1.16005	-1.399943
H	-2.410546	-0.43196	-1.248425
N	-0.465366	-1.130288	0.800439
H	-1.371759	-1.467275	0.486353
H	0.200877	-1.880458	0.663141
C	-0.440805	1.30413	0.659728
H	-1.521729	1.344332	0.852993
H	-0.153351	2.173867	0.057662
H	0.078139	1.376019	1.616083
F	2.677714	0.0	0.0
