14

C	0.0	0.0	0.0
C	-0.609928	0.055106	-1.384456
Cl	1.79041	0.0	0.0
H	-0.314654	-0.804556	-1.981965
H	-0.31483	-0.96731	0.392667
H	-1.711906	0.090964	-1.130054
C	-0.501134	1.081936	0.938221
H	-1.594537	1.00184	0.879013
H	-0.142225	0.882071	1.951811
H	-0.153856	2.067692	0.626713
N	-0.185443	1.243423	-2.15278
O	-0.596241	2.349941	-1.79255
O	0.561385	1.070253	-3.123556
F	-2.907312	0.0	0.0
