14

C	0.0	0.0	0.0
C	-0.629712	-0.039702	-1.360817
Cl	1.790103	0.0	0.0
H	-1.742144	-0.064206	-1.072035
H	-0.299771	-0.904171	0.524917
H	-0.363799	0.810396	-1.988322
C	-0.500474	1.220739	0.751452
H	-0.17687	2.137985	0.24934
H	-0.108901	1.228782	1.77157
H	-1.593418	1.12132	0.739383
N	-0.290579	-1.252239	-2.124773
O	-0.194043	-1.148193	-3.35153
O	-0.172715	-2.315448	-1.514381
F	-2.915012	0.0	0.0
