14

C	0.0	0.0	0.0
C	-0.266337	-0.082524	-1.510546
Cl	1.790591	0.0	0.0
H	0.170375	-1.005192	-1.893048
H	-0.365256	-0.887882	0.506306
H	0.223718	0.770136	-1.982984
C	-0.493199	1.264648	0.66357
H	-0.129142	1.31148	1.694451
H	-0.131868	2.143175	0.120014
H	-1.591795	1.154512	0.615693
N	-1.655983	-0.06677	-2.068511
O	-2.145483	-1.154336	-2.354599
O	-2.093647	1.026144	-2.414245
F	-2.703358	0.0	0.0
