12

C	0.0	0.0	0.0
C	-0.474352	-0.586796	-1.367085
Cl	1.790021	0.0	0.0
H	0.39023	-1.020942	-1.880807
H	-0.351512	1.019828	0.112541
H	-1.206458	-1.357612	-1.149373
C	-0.435222	-0.787992	1.151057
N	-0.588196	-1.453157	2.107414
N	-1.141457	0.385709	-2.21199
H	-1.941602	0.615312	-1.606732
H	-0.545424	1.202581	-2.311372
F	-2.502396	0.0	0.0
