16
Coordinates from ORCA-job run
  C   0.85968251094269     -0.13021241887706     -0.32977355204769
  C   -0.62518384307081     -0.49894454762747     -0.41752821679565
  Cl  1.73402642499291     -0.65167545201480     -1.74165705564935
  H   -0.63946042469352     -1.58866580312698     -0.52193431744644
  N   1.00226999021305      1.37858633303711     -0.11214082128456
  O   0.73617328717460      1.73814382359006      1.02846431613697
  O   1.29517009794684      2.07349572118265     -1.06993846509188
  N   1.53582236630165     -0.78782003984868      0.87485381493290
  O   0.98460277057352     -1.77885290429826      1.33558247066960
  O   2.60030004115477     -0.29834831949778      1.21757878064415
  C   -1.16983298201647      0.08592845508063     -1.64524240972036
  N   -1.65740568838825      0.56764569228545     -2.59880199265890
  C   -1.49319525320559     -0.09347237940079      0.78077418935538
  H   -2.48374666884453     -0.52900919587320      0.63809471599747
  H   -1.07834375404580     -0.47529625230192      1.71125242108173
  H   -1.60087887503505      0.98749728769105      0.85041612187663
