16
Coordinates from ORCA-job run
  C   0.81733597189467     -0.16801154252327     -0.23163266150948
  C   -0.69012877184491     -0.15649326613876     -0.48888554316590
  Cl  1.52544891601901     -1.69453236675206     -0.67876458287347
  H   -0.81515534180175     -0.49834293502939     -1.52076670460880
  N   1.54935780116307      0.91136610435107     -1.02986878948312
  O   2.63080326995931      1.26454014843496     -0.58620552372338
  O   1.01040352944859      1.25887621508574     -2.07137307906432
  N   1.07344201576802      0.15671928171398      1.24073763395454
  O   0.77820829162968      1.30786344384804      1.53625268447359
  O   1.46805184688866     -0.73160484801876      1.97657415256667
  C   -1.25811711446196      1.19038439192055     -0.40432607447558
  N   -1.80353740685453      2.22803130070358     -0.33491951965007
  C   -1.42684653627736     -1.09727031084293      0.47338983952293
  H   -2.47642347046976     -1.14966701852106      0.18236681636366
  H   -1.00434123020022     -2.10131935392392      0.44081192938700
  H   -1.37850177086052     -0.72153924430778      1.49660942228573
