16
Coordinates from ORCA-job run
  C   0.86825100879399     -0.10966142871242     -0.31290397132525
  C   -0.60702563754070     -0.50509224112219     -0.43699049194185
  Cl  1.78222956040129     -0.59626974443605     -1.71214623684190
  H   -0.59797453050966     -1.59375279492896     -0.55253369773736
  N   0.97860219159132      1.39806103805157     -0.07228916043238
  O   1.27763809439441      2.11158440445415     -1.01447223678211
  O   0.68440296228856      1.73738168760002      1.06773719811517
  N   1.53113530495769     -0.77115076302140      0.89750272254815
  O   0.98856928352272     -1.77781938205804      1.33394714671832
  O   2.57902824946896     -0.26728201947712      1.26903294889130
  C   -1.13639355845957      0.08215028502581     -1.67012170643735
  N   -1.61246059733743      0.56437019657531     -2.62918528671144
  C   -1.50776469532249     -0.12898771098493      0.74666176292711
  H   -1.10426782183725     -0.51126053888196      1.68193895383305
  H   -1.63888059801208      0.94883773560147      0.82428482193340
  H   -2.48608921639978     -0.58310872368526      0.57953723324314
