16
Coordinates from ORCA-job run
  C   0.86707407415811     -0.10012580762003     -0.32108059847144
  C   -0.60863561087247     -0.49386996741106     -0.44740371003581
  Cl  1.77292340154141     -0.54755529435149     -1.73866454584957
  H   -0.59924522026530     -1.57844065192027     -0.59658439074694
  N   0.97612446751680      1.40109789753022     -0.04160165812584
  O   1.26755234370654      2.13938775587684     -0.96681731537962
  O   0.68670949639463      1.70970401792399      1.10817568744980
  N   1.53808842327137     -0.79266593198684      0.86675362214848
  O   1.00057420770759     -1.81273540740607      1.27754883323276
  O   2.58662389061904     -0.29630206931929      1.24664052064399
  C   -1.14643679340087      0.13191662469306     -1.65780473080298
  N   -1.62871553821501      0.64737348905742     -2.59627169607660
  C   -1.50237701974389     -0.15535764329301      0.75287289896280
  H   -2.48276201793334     -0.60095777946930      0.57553599154076
  H   -1.09525203596694     -0.57005062656453      1.67259962579576
  H   -1.63024606851767      0.91958139426035      0.86710146571445
