16
Coordinates from ORCA-job run
  C   0.62726125798840      0.48078385465740      0.07219322912137
  C   -0.63761089942549     -0.22887091240136     -0.40257464983219
  Cl  0.33646610216545      2.03753773500415      0.76809885426168
  H   -0.30288561219425     -1.10954775039409     -0.95859425469001
  N   1.32465551025601     -0.46368857211146      1.06418763367176
  O   1.40044294195098     -0.14184530842840      2.23568290751159
  O   1.70019560178439     -1.50693168118988      0.54177067592580
  N   1.66016152983222      0.62291652201253     -1.05546606310576
  O   2.74337019579119      1.06845374134128     -0.70917864723765
  O   1.31623819649645      0.26760582480936     -2.17397397616567
  C   -1.37936121958610      0.63802623016897     -1.31645544344577
  N   -2.03644099313517      1.31710538844472     -2.01322035035910
  C   -1.51968189426741     -0.65979182738226      0.77522612148898
  H   -1.00681790004651     -1.40054291012844      1.39053909302387
  H   -2.43135726734851     -1.11515575985846      0.38721038672892
  H   -1.79563555026163      0.19394542545595      1.39455448310218
