16
Coordinates from ORCA-job run
  C   0.60586879885991      0.50416708248710      0.09607453130312
  C   -0.61960458264034     -0.24411007128089     -0.42137725239183
  Cl  0.23809175216554      2.03032469847692      0.82277417227071
  H   -0.23806199519058     -1.09671145718549     -0.99085910082625
  N   1.32016548319139     -0.43606754683778      1.07995557291553
  O   1.34731442011152     -0.14640430255339      2.26213941546355
  O   1.75688554500615     -1.44588831066171      0.53977879515300
  N   1.65446557578899      0.71489028975577     -1.00530277951054
  O   2.71175356547536      1.19434640943109     -0.62563875525360
  O   1.34835552279509      0.37311261186159     -2.13894967456472
  C   -1.37702423891847      0.61490318918679     -1.32960978056897
  N   -2.04481088506452      1.28649316495032     -2.02340557185517
  C   -1.50625142263838     -0.73932195528895      0.72727210854299
  H   -2.39159249459642     -1.21994307435960      0.30985454513930
  H   -1.82736419904151      0.08642658772739      1.36250954011266
  H   -0.97619084530373     -1.47521731570914      1.33378423407021
