16
Coordinates from ORCA-job run
  C   0.61805069398726      0.48940544989774      0.08663092644203
  C   -0.63026724516033     -0.23205136139001     -0.41375066333341
  Cl  0.29567935043323      2.03072329393127      0.80251936129069
  H   -0.27514046362696     -1.09893479470923     -0.97883140684344
  N   1.31793267694493     -0.45965696056427      1.07338871534565
  O   1.71935746133203     -1.48709406533551      0.53925293409089
  O   1.37192576194666     -0.15540105609464      2.25075686226500
  N   1.66230404293748      0.66320724420147     -1.02547119660688
  O   2.73393680669289      1.12070618871733     -0.65935699796550
  O   1.33859556852977      0.31692540365694     -2.15284478970252
  C   -1.37287534932849      0.63777226899642     -1.32401804848937
  N   -2.02604025290728      1.32032914264313     -2.02116709356449
  C   -1.51877185636592     -0.69467619801501      0.74691661224902
  H   -1.81066155288692      0.14391375074423      1.37991213814959
  H   -2.42146835825748     -1.15327511497277      0.34189597228109
  H   -1.00255728427086     -1.44089319170710      1.35316667439167
