16
Coordinates from ORCA-job run
  C   0.87548357728956     -0.10921586357090     -0.32035021457536
  C   -0.60403734812961     -0.47835738636232     -0.46709846048547
  Cl  1.83039552468450     -0.79096555672210     -1.60528536441026
  H   -0.58776748438359     -1.56190091237204     -0.63453549576099
  N   1.14347896610759      1.39467990198231     -0.24845048672985
  O   0.16226692962382      2.12431666503373     -0.18214066875744
  O   2.31853891880680      1.72278432406515     -0.23440309666051
  N   1.32543200140585     -0.67066146728014      1.03492598307988
  O   1.43596858379647      0.13388457505133      1.94938752277254
  O   1.42708587350647     -1.88591579351833      1.08814255443323
  C   -1.14470472012113      0.13879555232047     -1.67793311871786
  N   -1.61987913247806      0.59991086351894     -2.64740164656493
  C   -1.47149266831171     -0.19493702572607      0.76487452440018
  H   -1.12635819934560     -0.78163573760472      1.61771166987859
  H   -2.49457081935165     -0.50204208879587      0.54265690339473
  H   -1.47084000309971      0.86125994998056      1.02189939470350
