16
Coordinates from ORCA-job run
  C   0.63769792411157      0.38733683790305      0.20678646021596
  C   -0.64817925300959     -0.23608694673467     -0.33278352116905
  Cl  0.36947920867432      1.68734004630880      1.31357200500468
  H   -0.33655418870451     -1.10317827441552     -0.92226668704549
  N   1.54487185091670     -0.66795629309272      0.86212607287175
  O   1.17536777041069     -1.83360709755801      0.81366878418075
  O   2.58465574718209     -0.23627215145893      1.33562873947299
  N   1.48965915547380      0.84518852721746     -1.00006822664659
  O   1.82061358537763     -0.08754973216817     -1.72247465923130
  O   1.72663210384628      2.02946383142806     -1.14106813691570
  C   -1.27063148928860      0.73299562248485     -1.23720986737914
  N   -1.79579829989721      1.50505211999968     -1.94954666087843
  C   -1.63695524160861     -0.67041539064251      0.75281923237991
  H   -1.16497151616275     -1.37264454554299      1.43772859547049
  H   -2.01232016570844      0.18870264956293      1.30711391716045
  H   -2.48256719161337     -1.16836920329129      0.27597395250874
