16
Coordinates from ORCA-job run
  C   0.82954242893927     -0.12404605538947     -0.21604485348090
  C   -0.67051911225898     -0.17692604615325     -0.50979913037174
  Cl  1.61990448142446     -1.60300013746365     -0.68509269836764
  H   -0.75522051797127     -0.50121385171341     -1.55140523376652
  N   1.52642261150591      1.00930726631350     -0.96897804925585
  O   1.00288826079206      1.34686470428094     -2.02143871956345
  O   2.57170747684972      1.41274584432847     -0.48374698650097
  N   1.03606626302133      0.17271666284322      1.26959901080755
  O   1.46755882658610     -0.71102117391509      1.99007897685992
  O   0.66766676083776      1.29600622502140      1.58953667127286
  C   -1.30313244424952      1.13988397686767     -0.41083513176546
  N   -1.89872918547154      2.14883724120370     -0.33253887238113
  C   -1.38366971703460     -1.17199579542845      0.41504862339403
  H   -1.38189149288572     -0.81284992413543      1.44531557385923
  H   -2.42114087045931     -1.27280149235058      0.09474534688784
  H   -0.90945376962567     -2.15250744430957      0.37655547237224
