16
Coordinates from ORCA-job run
  C   0.84569044139557     -0.01711470760811     -0.18112474857044
  C   -0.62357543061218     -0.24931528573956     -0.53634705550564
  Cl  1.82995403573822     -1.38163409767624     -0.62964483633451
  H   -0.62736239540454     -0.56019783375100     -1.58545351716274
  N   1.42817487313948      1.20339708435936     -0.89436719078025
  O   0.90236723641004      1.49747063363721     -1.95873811763979
  O   2.40267680743958      1.71693216330270     -0.36744292580885
  N   0.95500952110258      0.28306904059197      1.31438796768504
  O   1.45468303720002     -0.55485506442201      2.04547118319637
  O   0.44833721253037      1.35322434301662      1.62695476254210
  C   -1.41778022116354      0.97739752825856     -0.44433578901784
  N   -2.13287725310861      1.90753368011442     -0.39464965837817
  C   -1.24297757666745     -1.34366609260256      0.34253935507882
  H   -0.65450936488574     -2.26001967303232      0.30082902370533
  H   -1.31786230466774     -1.01314959015383      1.37969650099552
  H   -2.24994861844604     -1.55807212829522     -0.01677495400495
