16
Coordinates from ORCA-job run
  C   0.83603169680072     -0.14675661086983     -0.17077001898694
  C   -0.64582024987929     -0.14556279630317     -0.54880958348056
  Cl  1.60430642468550     -1.64331687545451     -0.61914047500754
  H   -0.68123056640618     -0.44481784121525     -1.60068460957659
  N   1.61102873517901      0.97455184742957     -0.86397914329171
  O   1.15128198267605      1.35726457769033     -1.93081276320045
  O   2.64664014017367      1.32477267481176     -0.32027213515624
  N   0.96751703446363      0.12111228161956      1.32915791835559
  O   0.63184202394940      1.25552314693969      1.64541460896463
  O   1.31554490906376     -0.79166867748155      2.05870665110353
  C   -1.24145605610602      1.18883017815003     -0.45515737924942
  N   -1.80821412400955      2.21509852810139     -0.38753799120580
  C   -1.44148849642201     -1.13623304266667      0.31096178426960
  H   -1.00021046885489     -2.13196290303301      0.27140772727889
  H   -1.48286264111289     -0.80363448224007      1.34930225847244
  H   -2.46291034420092     -1.19120000547829     -0.06678684928943
