16
Coordinates from ORCA-job run
  C   0.62604423690781      0.39231156458267      0.23628591345063
  C   -0.63520698687479     -0.23836040229393     -0.35235207105255
  Cl  0.30678556022042      1.62464517466597      1.40583494386715
  H   -0.29146876681123     -1.06732976477634     -0.97823066502888
  N   1.55543403852421     -0.66761199745521      0.84837276162684
  O   1.21025189961602     -1.83819021934500      0.75633124267701
  O   2.58548527626970     -0.23264171508243      1.33963096718927
  N   1.47499235182433      0.93768550195505     -0.93506061555624
  O   1.87144854082056      0.05050815603704     -1.68154766613044
  O   1.64140069772302      2.13800590953109     -1.03420501559989
  C   -1.27219649146516      0.75616754070479     -1.21823902619823
  N   -1.80972660736671      1.54673252561878     -1.90049762516747
  C   -1.62757011418581     -0.75131454921118      0.69517579977790
  H   -2.03769564101884      0.07009247187793      1.28152949621286
  H   -2.45036014453909     -1.25074166013564      0.18117291532193
  H   -1.14561784964444     -1.46995853667359      1.35579864461013
