16
Coordinates from ORCA-job run
  C   0.64727135239446      0.45393850088651      0.05953241969377
  C   -0.65363758773874     -0.20461999017768     -0.39143372733524
  Cl  0.43589787625286      2.03858556714101      0.72025750138389
  H   -0.36683333453733     -1.11036228706235     -0.93376355648609
  N   1.30346844546335     -0.49994473007126      1.07000778675353
  O   1.63583577763433     -1.56774923346239      0.56852002239402
  O   1.38716138180370     -0.16062202251834      2.23621604966713
  N   1.67930408154366      0.51949788345605     -1.07623976018206
  O   1.31540360553314      0.14578965859951     -2.18227187852907
  O   2.78250893261273      0.92734824386467     -0.74714486369615
  C   -1.35908077179603      0.67829046504449     -1.31872524736811
  N   -1.94847069468643      1.35903081606183     -2.07202773667158
  C   -1.54406111866293     -0.57116845666540      0.80192704634120
  H   -1.77158225902727      0.30547907542889      1.40889447563711
  H   -2.48067086919510     -0.98804355927526      0.43026266749246
  H   -1.06251481759440     -1.32544993125027      1.42598880090520
