16
Coordinates from ORCA-job run
  C   0.81381600976487     -0.15335982996083     -0.25323991248125
  C   -0.70001230541909     -0.16442946471404     -0.47165669298346
  Cl  1.53364468469726     -1.66603916483138     -0.73135698403987
  H   -0.84763515177339     -0.50197589045749     -1.50179962272781
  N   1.50765969887041      0.94209056664650     -1.06164334282435
  O   0.94300562596432      1.27731796548150     -2.09344581754418
  O   2.58786028099064      1.31999082175623     -0.63602675300586
  N   1.09997158652022      0.16171180036641      1.21478425420154
  O   1.52255793040902     -0.72862529215819      1.93255442183797
  O   0.79642531250072      1.30577402563089      1.52887129826253
  C   -1.28276003456827      1.17480686541987     -0.36504642966764
  N   -1.83735486774937      2.20729158657914     -0.29279391173488
  C   -1.39693274478470     -1.12022896257228      0.50542183838925
  H   -2.44784692879293     -1.20553840061102      0.22733028491774
  H   -0.94558061364904     -2.11173742848754      0.47335431254569
  H   -1.34681848298065     -0.73704919808777      1.52569305685457
