16
Coordinates from ORCA-job run
  C   0.62093056097527      0.39655969040458      0.24024976137456
  C   -0.63023145983916     -0.24253953748762     -0.36010114567647
  Cl  0.28325313718987      1.64973541830206      1.38136947772893
  H   -0.27661847602138     -1.08092791232224     -0.96728717086707
  N   1.53719575320896     -0.65514303669083      0.88692584678814
  O   2.55230015850757     -0.21246884211737      1.40243025321601
  O   1.19933130104706     -1.82770035409920      0.79298357391431
  N   1.49391776912471      0.91935555166543     -0.92495660612916
  O   1.88269506107847      0.02053323187799     -1.66128021328899
  O   1.68735811930197      2.11532011599922     -1.02690985656731
  C   -1.25143709834090      0.73908044154123     -1.25181400181052
  N   -1.77654498720933      1.52033193901426     -1.95393445652960
  C   -1.64013573544303     -0.73887254585398      0.67849436014860
  H   -2.45561651108065     -1.24381239382905      0.15846798212811
  H   -1.17014246835465     -1.44975078167319      1.35610827271224
  H   -2.05725512414478      0.09129901526871      1.24725392285821
