16
Coordinates from ORCA-job run
  C   0.83134106285436     -0.15453678345393     -0.18562973918881
  C   -0.65761012163096     -0.14809740409731     -0.53465144147999
  Cl  1.58042575736298     -1.66202894957071     -0.63107871237355
  H   -0.71570985825258     -0.46018715995002     -1.58173296010842
  N   1.59992842664817      0.95271785266864     -0.90821318173565
  O   2.64985512868920      1.30066909958248     -0.39085907632689
  O   1.12039427205792      1.32698171323111     -1.96925798351346
  N   0.99472671260635      0.13079866467173      1.30740614709047
  O   1.35086383717214     -0.77522180493361      2.04142047392344
  O   0.67320534263321      1.27147865732051      1.61592885851841
  C   -1.24319191139378      1.19093054540279     -0.44523477020618
  N   -1.80209977419543      2.22136813109224     -0.37524242561424
  C   -1.44223594445070     -1.12242504651901      0.35372240717139
  H   -1.46350609119018     -0.77337931356233      1.38740363478851
  H   -1.00587391076702     -2.12073415626066      0.32208071756814
  H   -2.47051292814369     -1.17833404562191     -0.00506194851317
