16
Coordinates from ORCA-job run
  C   0.80950028997816     -0.11793487690093     -0.28170319496174
  C   -0.70781566499219     -0.11751053988947     -0.47318018013734
  Cl  1.53027953798567     -1.56257621864478     -0.93424903573705
  H   -0.87117994548876     -0.33965564455663     -1.53207081211327
  N   1.48132599172581      1.06584704102195     -0.97814282568856
  O   0.89248566357392      1.51189118169325     -1.95281787468348
  O   2.56954502290998      1.39986231824639     -0.53624481378878
  N   1.12322599467931      0.04008136658585      1.20645609138000
  O   1.57579465439363     -0.91458173031156      1.81486530702757
  O   0.81098983955464      1.13872245797178      1.64825154861934
  C   -1.30068530845910      1.19510447561146     -0.20918267303515
  N   -1.86245268958927      2.20804619594871     -0.01586559939144
  C   -1.37982501052628     -1.18351192974713      0.40195568817318
  H   -2.43972682644985     -1.23125092337570      0.15016986744128
  H   -1.29506706590762     -0.92764491872148      1.45926030540182
  H   -0.93639448338803     -2.16488825493169      0.23449820149363
