16
Coordinates from ORCA-job run
  C   0.84200015705558     -0.08293357044102     -0.40240941019435
  C   -0.64307403991886     -0.45739008075910     -0.43555623532329
  Cl  1.67993419867072     -0.68530456540000     -1.80351553030009
  H   -0.63678046932377     -1.53015059624983     -0.66231286292918
  N   1.10847583270597      1.41754505737915     -0.27307030247348
  O   2.27796995388560      1.75653384144498     -0.35248215607633
  O   0.13456848925525      2.13251624672097     -0.07335120429484
  N   1.41660022709482     -0.71294350551845      0.87374129290389
  O   1.61625199459500      0.04244853905458      1.81433088371377
  O   1.52312352025587     -1.92864061629602      0.85129665636570
  C   -1.29156484302238      0.21821813945311     -1.55891852971539
  N   -1.84618552191029      0.72258837684802     -2.46249303816598
  C   -1.39690685113117     -0.24970264011595      0.88314208229162
  H   -0.97267005434339     -0.87883057355132      1.66739290220779
  H   -1.37835623290283      0.79074610269701      1.19737530053958
  H   -2.43438636096611     -0.55470015526615      0.73783015145059
