16
Coordinates from ORCA-job run
  C   0.86475705611842     -0.09549679733696     -0.32790201792200
  C   -0.60722363591293     -0.50901085529474     -0.43195164562105
  Cl  1.76186307081555     -0.55703821528234     -1.74639067113597
  H   -0.58620599008420     -1.59621735765884     -0.55898915314634
  N   0.95857589203122      1.41152452391961     -0.07547546439874
  O   0.67751824851039      1.73646786115993      1.07195063065441
  O   1.23214507934293      2.13715205447299     -1.01608791588258
  N   1.55580405802007     -0.75866131925072      0.86538828256001
  O   1.03369723638453     -1.77628310717931      1.30141422036404
  O   2.60315263828480     -0.24434012607429      1.22402720108343
  C   -1.16436310190224      0.08410229596117     -1.65000222834106
  N   -1.66206117368269      0.57011589843787     -2.59605215649409
  C   -1.49326423491783     -0.15656311296448      0.76988361207490
  H   -1.63568529631642      0.91875341342335      0.86164070292934
  H   -2.46884799207256     -0.62009830652457      0.61310711810656
  H   -1.07086185461904     -0.54440684980866      1.69443948516915
