16
Coordinates from ORCA-job run
  C   0.86518969698844     -0.10052231624354     -0.31761500658598
  C   -0.60914095503414     -0.49934156491528     -0.44603973580524
  Cl  1.77878891826330     -0.55664385346512     -1.72712834172693
  H   -0.59605597393553     -1.58471050521824     -0.58835744195742
  N   0.97132785100430      1.40290577178036     -0.04783710412983
  O   1.27811237797703      2.13448883985288     -0.97336532054060
  O   0.66784662499576      1.71969062544012      1.09612071195567
  N   1.53194072193938     -0.78341555207622      0.87852203052325
  O   2.57438167541453     -0.27890422824571      1.26431845135087
  O   0.99773305054823     -1.80489235997979      1.29017104847340
  C   -1.14255177453811      0.11807868135084     -1.66260894479867
  N   -1.58156494306011      0.64523234909781     -2.61565734200725
  C   -1.50783364582005     -0.15676696317853      0.74949247243718
  H   -2.48383513264045     -0.61313206106309      0.57502262494453
  H   -1.64516861715371      0.91811233852714      0.85255017515098
  H   -1.09916987494888     -0.55817920166363      1.67441172271604
