16
Coordinates from ORCA-job run
  C   0.82892025395437     -0.22696560354812     -0.35454348984802
  C   -0.68528311353511     -0.46392006757119     -0.35965564317097
  Cl  1.58902463855856     -0.90982714763782     -1.76396638315910
  H   -0.80027719400283     -1.55214596022063     -0.39328957770961
  N   1.11345293118012      1.27230097618627     -0.23965315481235
  O   0.93511219561233      1.72246238490607      0.88586139759959
  O   1.41920731914818      1.87957025946503     -1.25159852393929
  N   1.49804359562380     -0.87090710182326      0.86161561368248
  O   0.88313081550169     -1.77934956631965      1.40456180484459
  O   2.61570095423632     -0.46045610334660      1.13076035207811
  C   -1.23118179628762      0.09312596532355     -1.59969408677816
  N   -1.71578335057007      0.55876688800945     -2.56263760406230
  C   -1.45860904225206      0.09017292916689      0.84392369301879
  H   -1.04010860862851     -0.27525534029058      1.77947535720963
  H   -1.46299577561515      1.17877875406954      0.85158073922714
  H   -2.49035382292402     -0.25735126636897      0.76625950581948
