16
Coordinates from ORCA-job run
  C   0.82570767173459     -0.11663231271089     -0.23119911475559
  C   -0.67905140283553     -0.17361066651584     -0.49838631877646
  Cl  1.61380829194956     -1.58807660374439     -0.72728059509985
  H   -0.78095689359242     -0.48253468666710     -1.54309456377896
  N   1.50517883966923      1.02614264347697     -0.98632103047191
  O   2.56604097707644      1.41645533950140     -0.52462449615030
  O   0.95280340568028      1.38412387496826     -2.01711273034044
  N   1.05783334826670      0.16874348857742      1.25269825121921
  O   1.49315349374378     -0.72395276292416      1.95983332933638
  O   0.70407350557003      1.29272273839119      1.58625897451204
  C   -1.31649186711020      1.13808695723977     -0.36763717752412
  N   -1.91485403306646      2.14322006140123     -0.26412054704286
  C   -1.37082023619505     -1.18690401668008      0.42295809924525
  H   -2.41528328142379     -1.28112004938709      0.12413398571193
  H   -0.89758610008364     -2.16620877081060      0.35361286734784
  H   -1.34555571938354     -0.84945523411608      1.46028106656782
