16
Coordinates from ORCA-job run
  C   0.84447959000457     -0.06151538367456     -0.40518039732496
  C   -0.63554918873672     -0.45468415609580     -0.45006792992979
  Cl  1.69081606851584     -0.61160619656938     -1.82235585717338
  H   -0.61583492241456     -1.52002349093927     -0.70885017051395
  N   1.09100043720404      1.43812295114898     -0.23201104803380
  O   0.10670492254131      2.13524267641656     -0.02137283265822
  O   2.25643070684343      1.79321629151111     -0.29556257464532
  N   1.42545939878837     -0.71990585073551      0.85317353446655
  O   1.60245536606327      0.00979101567458      1.81859667291985
  O   1.55474878239766     -1.93229828247040      0.79490004820808
  C   -1.29465207802832      0.24744388930394     -1.55097581384409
  N   -1.86140838935906      0.78130962342472     -2.42975428902311
  C   -1.39226535953994     -0.29450758526814      0.87367414270026
  H   -0.96009324594254     -0.93857122789535      1.64103520497086
  H   -2.42536771018153     -0.60926121624700      0.71898793328137
  H   -1.38792437815582      0.73724694241555      1.21576337659966
