16
Coordinates from ORCA-job run
  C   0.83925961980277     -0.20980333188171     -0.34141255179731
  C   -0.67043610358069     -0.47031496618391     -0.37876813566076
  Cl  1.63676868776449     -0.85960942369684     -1.74552975624854
  H   -0.76762821001675     -1.55968152125053     -0.42837063892659
  N   1.09762444371877      1.29235599759460     -0.19904142433966
  O   0.88915425522551      1.72248655780144      0.92913226215392
  O   1.41551771608900      1.91907503265323     -1.19518224419361
  N   1.49561236729349     -0.85939606451644      0.87822500755830
  O   0.88375933378139     -1.78208525021109      1.40038458625548
  O   2.60251771807085     -0.43684384118916      1.17214770691978
  C   -1.20168527092313      0.09367680789305     -1.62215637444879
  N   -1.67727558821596      0.56257322844222     -2.58803579001370
  C   -1.47559984451178      0.05758714933197      0.81570749248846
  H   -2.49722083789126     -0.31442782859737      0.72071468750269
  H   -1.50732686458404      1.14545915536974      0.82711078398478
  H   -1.06304142202266     -0.30105170155920      1.75607438876556
