16
Coordinates from ORCA-job run
  C   0.78783711924404     -0.16404048314653     -0.31998043271741
  C   -0.73586787962797     -0.09585276893488     -0.43503205153307
  Cl  1.40531211609904     -1.65960854778612     -0.96413772878116
  H   -0.96374301659619     -0.34031742894891     -1.47694134031500
  N   1.47759045386653      0.96579347465937     -1.08422542946404
  O   2.60439297929814      1.25392663683177     -0.71202353012013
  O   0.85839876326833      1.41800991487150     -2.03715311013917
  N   1.18484698352040      0.01921362944287      1.14481405141711
  O   1.61545593854505     -0.94142438187541      1.75968305352640
  O   0.95236363670062      1.14486563303587      1.56742462634441
  C   -1.25199570039533      1.25059958487988     -0.18025275898827
  N   -1.75610993599964      2.29007609711223      0.03021072483174
  C   -1.41121375441767     -1.10294372888492      0.50488871768574
  H   -2.48390745280107     -1.10507438638002      0.30925156216440
  H   -1.25884451972459     -0.82311958469989      1.54840132694411
  H   -1.02451573097968     -2.10910366017682      0.34407231914434
