16
Coordinates from ORCA-job run
  C   0.87504423297894     -0.14289772553762     -0.30861043281421
  C   -0.61224271796422     -0.48090454518382     -0.45276258880253
  Cl  1.82195809928253     -0.89725287220627     -1.55823101028371
  H   -0.62167621726878     -1.57033047602220     -0.57717190423775
  N   1.17955741865158      1.35576341329207     -0.29274830795633
  O   0.21620771278234      2.11111182522614     -0.26220774966091
  O   2.36225611057669      1.65538593708192     -0.28365560669573
  N   1.30083356445883     -0.66237988992637      1.07098412689068
  O   1.37186923570051     -1.87682583841361      1.17148214875766
  O   1.42586773820463      0.17396685313329      1.95466605127323
  C   -1.12899973497632      0.10029811927125     -1.69146121342551
  N   -1.58335353359549      0.53201415314227     -2.68420813579395
  C   -1.48179031029220     -0.12770485370108      0.75957981254805
  H   -1.46120700367026      0.93830931722985      0.97115102211147
  H   -1.15497471962853     -0.68407476911558      1.63945258164045
  H   -2.50934987524024     -0.42347864827026      0.54274120644909
