16
Coordinates from ORCA-job run
  C   0.87176422088413     -0.09793838034435     -0.30834306587733
  C   -0.59891063862541     -0.50594005700738     -0.44625445620713
  Cl  1.79917966530609     -0.56037966946607     -1.70693925858794
  H   -0.57909340779886     -1.59289126510362     -0.57573690451384
  N   0.96516555706098      1.40813648765032     -0.05122726795694
  O   1.26333945549490      2.13455710686917     -0.98373658461178
  O   0.65856332481699      1.73209575616168      1.08995351018017
  N   1.53329557454414     -0.76583254421044      0.89901651102782
  O   2.57365598327670     -0.25557173351345      1.28284689739987
  O   0.99809822461931     -1.78272839272893      1.32063377648938
  C   -1.12630437275074      0.09178153910901     -1.67533576661239
  N   -1.60080383708429      0.58153436737897     -2.63134335415214
  C   -1.51076078461409     -0.15288971579096      0.73593641888134
  H   -1.11064205451605     -0.54414184970540      1.66892594960372
  H   -1.65135514729926      0.92274588457911      0.82658103791550
  H   -2.48419176331454     -0.61253753387767      0.55602255702168
