16
Coordinates from ORCA-job run
  C   0.83931468042285     -0.19955565542256     -0.34643514359680
  C   -0.66910765221719     -0.46617745734897     -0.38669017836040
  Cl  1.63826542194395     -0.82151481554840     -1.76235074392586
  H   -0.76146754385364     -1.55489511947511     -0.45559454509823
  N   1.09190526060894      1.30160990249968     -0.17909482286983
  O   1.40656637045617      1.94616746897256     -1.16473650829705
  O   0.88235922389204      1.71187662877375      0.95620417529791
  N   1.50017025888065     -0.86715272337357      0.86100622353281
  O   2.60478007219488     -0.44365174496083      1.16213968699440
  O   0.89413569147155     -1.80316304855905      1.36601675839606
  C   -1.20433860624968      0.11785748125739     -1.61893972669063
  N   -1.68206566136915      0.60275809358400     -2.57583431134199
  C   -1.47502114828290      0.03475340783156      0.81895811326210
  H   -2.49625474667889     -0.33636525437240      0.71596961446082
  H   -1.50784657942740      1.12218145023284      0.85586042898492
  H   -1.06139504179219     -0.34572861409091      1.75052097925178
