16
Coordinates from ORCA-job run
  C   0.65463821533587      0.44097050435146      0.08926902348921
  C   -0.64344980711776     -0.18308152928434     -0.41572289773877
  Cl  0.44718499501808      1.99940080890357      0.81081483511580
  H   -0.35395610529086     -1.07139391385799     -0.98486161002613
  N   1.27809564415533     -0.56200274662473      1.07263673454364
  O   1.34192490598964     -0.27172790015535      2.25328633344682
  O   1.60736086168163     -1.61286158885355      0.53468669353630
  N   1.71022871242677      0.54156109490269     -1.02132906196942
  O   1.36092339832501      0.23111496210821     -2.15143788408945
  O   2.81369299795673      0.91239126135756     -0.65175541003025
  C   -1.31959620421630      0.74412231009967     -1.32123782993704
  N   -1.92372842102709      1.47681363088373     -2.01152829006016
  C   -1.56630117964485     -0.58254848767077      0.74173213382037
  H   -1.10678850493217     -1.36236114548647      1.35093088470918
  H   -2.49690925302154     -0.97734096521631      0.33284577659844
  H   -1.80132025563847      0.27494370454261      1.37267056859147
