14

C	-0.553681	-0.019763	-1.408765
C	0.0	0.0	0.0
Br	0.211411	1.442236	-2.466814
H	1.091321	0.0	0.0
H	-0.324256	0.941768	0.456884
N	-0.181015	-1.31913	-2.124564
O	0.799071	-1.917332	-1.713307
O	-0.882473	-1.627873	-3.085914
C	-2.005627	0.102735	-1.456728
N	-3.171065	0.258708	-1.424708
N	-0.511479	-1.182979	0.687912
H	-1.072145	-0.924665	1.487468
H	0.293283	-1.707365	1.013955
H	2.832639	0.0	0.0
