14

C	-0.522499	0.051915	-1.429519
C	0.0	0.0	0.0
Br	0.216745	-1.365483	-2.516839
H	1.096913	0.0	0.0
H	-0.34592	0.917301	0.489394
N	-2.057912	-0.084925	-1.36852
O	-2.618227	0.883681	-0.856619
O	-2.598091	-1.114364	-1.735227
C	-0.247266	1.331343	-2.074556
N	-0.042738	2.363447	-2.599632
N	-0.470058	-1.213822	0.6522
H	0.352335	-1.703559	0.989713
H	-1.055222	-0.992986	1.44756
H	2.784474	0.0	0.0
