14

C	-0.567698	0.032236	-1.403183
C	0.0	0.0	0.0
Br	0.342882	1.375257	-2.51323
H	1.089641	0.0	0.0
H	-0.343018	-0.927642	0.472337
N	-0.385925	-1.306341	-2.115125
O	0.432946	-2.080503	-1.636136
O	-1.058815	-1.492316	-3.126279
C	-1.992794	0.339738	-1.4247
N	-3.146026	0.563218	-1.363383
N	-0.423633	1.21406	0.692169
H	0.408774	1.621906	1.10457
H	-1.081245	1.009042	1.430002
H	2.770102	0.0	0.0
