14

C	-0.532898	-0.002418	-1.437195
C	0.0	0.0	0.0
Br	0.092411	1.52899	-2.433096
H	1.097139	0.0	0.0
H	-0.352253	-0.932645	0.452413
N	-0.073282	-1.312741	-2.106317
O	-0.574876	-2.314618	-1.602168
O	0.72725	-1.28553	-3.023366
C	-1.991446	-0.004668	-1.475031
N	-3.167659	0.009275	-1.468659
N	-0.482651	1.186941	0.688943
H	-1.059385	0.937736	1.479614
H	0.33269	1.685049	1.031255
H	2.821489	0.0	0.0
