14

C	-0.434901	-0.142674	-1.455486
C	0.0	0.0	0.0
Br	0.257754	-1.792441	-2.219035
H	1.09294	0.0	0.0
H	-0.383458	-0.873049	0.538839
N	-1.960449	-0.191059	-1.486816
O	-2.52288	0.901746	-1.609865
O	-2.518162	-1.255824	-1.251611
C	-0.007119	0.979312	-2.281864
N	0.348902	1.872339	-2.958438
N	-0.398962	1.249254	0.610822
H	0.335928	1.929754	0.45488
H	-1.278665	1.615888	0.27074
H	2.725336	0.0	0.0
