17
Coordinates from ORCA-job run
  C   -0.83339407816227      0.06848989650176      0.29787825315243
  C   0.62181920982665     -0.16347181766973     -0.19976226813875
  Br  -0.86867473071897      1.51229293693601      1.62962899891887
  H   0.52173081825899     -1.02270549885244     -0.88074454076451
  C   -1.32659047347716     -1.14166311422536      0.94670706954224
  N   -1.71336471047966     -2.14991878873310      1.41196247144977
  C   -1.75040515648559      0.46323906972323     -0.85441721695512
  H   -1.37349244991372      1.38392432849860     -1.29839416610746
  H   -1.74877387266926     -0.33660898752996     -1.60233507860607
  H   -2.77162223406391      0.61448925718672     -0.50394521821040
  C   1.58235131223788     -0.53863179218226      0.91736807697256
  H   1.20012267011035     -1.35533532319897      1.53200876016276
  H   1.75849238645564      0.32176747660086      1.56629611360089
  H   2.53614605649622     -0.85012532442738      0.48475425438351
  N   1.06968979036080      1.01260441762791     -0.92867245986962
  H   1.96627336519513      1.33752337786406     -0.59765299401880
  H   1.12769209702887      0.84312988588005     -1.92168005551232
