17
Coordinates from ORCA-job run
  C   -0.83913459037579     -0.35306291982404      0.32901267877631
  C   0.69859756692388     -0.43499165641822      0.14122554807159
  Br  -1.26502221850001     -0.61699384346344      2.23515004957282
  H   1.02309508672909     -1.35227778927963      0.65411592412759
  C   -1.44233587031760     -1.48050312496603     -0.37974268657634
  N   -1.88246696360006     -2.38472496942521     -0.98879958581149
  C   -1.44746297037825      0.96025257139764     -0.14377333259900
  H   -1.14157922266869      1.12443316270209     -1.17849299807539
  H   -1.09776243371229      1.78436648014290      0.47817657271439
  H   -2.53560878320688      0.91932663243390     -0.08432116610151
  C   1.42826082476559      0.75544951041364      0.74270694843017
  H   2.50514616078641      0.56680401878767      0.72495224497392
  H   1.13712693998477      0.92932980964379      1.77855140195776
  H   1.23351572938978      1.65575856058198      0.15641667006473
  N   0.94138246063292     -0.46490236204757     -1.29883422454928
  H   1.90272962247715     -0.21295077280275     -1.49309402595078
  H   0.78151866106999     -1.39331330787672     -1.67225001902548
