17
Coordinates from ORCA-job run
  C   -0.84699811673957     -0.34112894747944      0.06679956374289
  C   0.67858119974219     -0.33862646482443      0.28136142574715
  Br  -1.57293450352017     -2.01334295921571      0.84131998899655
  H   0.82131481542826     -0.39566962009572      1.37338238621702
  C   -1.16189328040154     -0.35611727694115     -1.35907465930310
  N   -1.43747670759171     -0.28145162471520     -2.49916490449680
  C   -1.55810032731729      0.81807035496855      0.75804007421735
  H   -1.28791766470704      1.76108694717252      0.27918490266375
  H   -1.27508143669072      0.85042199654283      1.81236926400360
  H   -2.63902201751098      0.69561247475420      0.68817165505250
  C   1.30072263596568      0.95327949497724     -0.23765461298514
  H   1.09524405385135      1.07344439811435     -1.30381727879025
  H   2.38545201495073      0.90725317765923     -0.10665769706599
  H   0.94684485726469      1.83012498102830      0.30470460412463
  N   1.26381668745912     -1.45298661632172     -0.44621372852939
  H   1.01304783609031     -2.33425701087103     -0.01519213231341
  H   2.27339995372670     -1.37671330475282     -0.43755885128137
