16

C	-0.530432	0.040885	-1.429738
C	0.0	0.0	0.0
Br	-0.163773	-1.85942	-2.111229
H	1.088466	0.0	0.0
H	-0.397186	-0.852065	0.547591
N	-1.916175	0.326886	-1.444488
H	-2.440272	-0.310599	-0.857384
H	-2.289859	0.307142	-2.384851
C	0.251347	0.963017	-2.340871
H	0.082205	1.990389	-2.01475
H	-0.080678	0.84624	-3.376109
H	1.316493	0.740302	-2.265245
N	-0.484942	1.204743	0.729263
O	-1.338629	1.028568	1.603345
O	-0.026104	2.297902	0.410358
Br	3.534212	0.0	0.0
