16

C	-0.445021	-0.077389	-1.47311
C	0.0	0.0	0.0
Br	-0.328094	1.803413	-2.100686
H	1.089984	0.0	0.0
H	-0.421147	0.841385	0.543068
N	0.42939	-0.852025	-2.314065
H	1.391536	-0.570279	-2.124645
H	0.357549	-1.815673	-1.999614
C	-1.886692	-0.521302	-1.645672
H	-2.558715	0.087179	-1.036602
H	-1.983577	-1.567684	-1.339937
H	-2.167968	-0.437854	-2.695468
N	-0.447914	-1.220394	0.715418
O	-1.140314	-1.075292	1.725706
O	-0.125512	-2.31458	0.247456
Br	3.486223	0.0	0.0
