16

C	-0.427443	-0.056255	-1.456849
C	0.0	0.0	0.0
Br	-2.471756	-0.536659	-1.484763
H	1.091804	0.0	0.0
H	-0.38897	0.890106	0.491004
N	-0.228529	1.220596	-2.001764
H	-0.427688	1.255604	-2.991452
H	-0.726297	1.949876	-1.510107
C	0.271752	-1.111766	-2.283519
H	0.040302	-2.109442	-1.92327
H	1.347606	-0.934842	-2.1821
H	-0.029618	-1.025534	-3.330966
N	-0.452063	-1.143799	0.823807
O	-0.191118	-2.278355	0.432739
O	-1.037396	-0.880372	1.8745
Br	3.49819	0.0	0.0
