16

C	-0.482011	-0.022972	-1.446321
C	0.0	0.0	0.0
Br	-0.13723	1.832991	-2.25223
H	1.088904	0.0	0.0
H	-0.37067	-0.910386	0.476047
N	0.287305	-1.025497	-2.07771
H	1.285014	-0.891461	-1.911815
H	0.101222	-1.072924	-3.07145
C	-1.969675	-0.250491	-1.636755
H	-2.21078	-0.281177	-2.702004
H	-2.234991	-1.208858	-1.180183
H	-2.548983	0.541455	-1.16632
N	-0.549046	1.124673	0.793878
O	-1.735147	1.029234	1.133403
O	0.186374	2.065848	1.072838
Br	3.542621	0.0	0.0
