16

C	-0.327408	-0.00406	-1.485863
C	0.0	0.0	0.0
Br	-2.308449	0.15328	-1.735653
H	1.092496	0.0	0.0
H	-0.391413	0.900817	0.464433
N	0.268531	1.219595	-1.972283
H	0.243741	1.22505	-2.985939
H	1.247539	1.220948	-1.679558
C	0.122087	-1.24853	-2.233994
H	-0.404736	-2.145445	-1.916952
H	-0.042072	-1.096756	-3.304391
H	1.191923	-1.376956	-2.041107
N	-0.519343	-1.146066	0.769709
O	-1.281555	-0.894993	1.706028
O	-0.154333	-2.277277	0.452495
Br	3.462472	0.0	0.0
