15
Coordinates from ORCA-job run
  C   -0.86725407033734      0.27156817470338     -0.09893266490385
  C   0.57266787537113     -0.06820260243796     -0.48792026361933
  F   -1.25430504624599      1.23930793348187     -1.03588944360703
  H   0.60350504809338     -0.43622460368814     -1.51275423406833
  C   -1.01424506464079      0.86080565757611      1.24153877744097
  N   -1.24375212807087      1.28993095463778      2.30987831776713
  N   -1.62352277142931     -0.91330482913291     -0.15640124432447
  H   -2.56628745995260     -0.79059413276900      0.18777689589981
  H   -1.62524126507559     -1.33371454207602     -1.07704248268332
  N   1.11876355122079     -1.14163974942819      0.39907977690782
  O   1.16790601698907     -2.26665958323171     -0.08173951842975
  O   1.44365207429942     -0.78970258207305      1.52777677903444
  N   1.52164510660399      1.09128467892431     -0.41848364616074
  O   2.59702460620656      0.88596764340415     -0.97206665364636
  O   1.16944352696816      2.10217758210937      0.17417960439301
