15
Coordinates from ORCA-job run
  C   -0.81033221894476      0.39382896944017      0.21440650636360
  C   0.72192963771051      0.29884400641207      0.09928504973414
  F   -1.10294361069147      1.66115719560815     -0.32383870987880
  H   1.21128167762093      1.01081865107877      0.76070543107991
  C   -1.19824484502380      0.45409706686004      1.63489309409102
  N   -1.54369182980609      0.53871089982006      2.75382557074474
  N   -1.45523778564579     -0.67856889733884     -0.40839114107562
  H   -2.45130116285716     -0.68767980241874     -0.23753010425037
  H   -1.23701916863607     -0.73169126993020     -1.39465252213093
  N   1.20873717790480      0.58935258302029     -1.28555589336983
  O   2.29980229944639      1.14644199190320     -1.34355118113203
  O   0.51770885679029      0.22780815186579     -2.23171279304312
  N   1.17974264438883     -1.08114348261725      0.48444013410686
  O   1.14844607361561     -1.29928581207861      1.68829376914930
  O   1.51112225412776     -1.84469025162491     -0.41061721038888
