15
Coordinates from ORCA-job run
  C   -0.78591733613388      0.42981458296437      0.23231889301694
  C   0.73832384256149      0.25142492361348      0.10993161584622
  F   -1.00432497217450      1.73337385817309     -0.25326117274759
  H   1.26773254329840      0.90468976998355      0.80048115738082
  C   -1.17095269509961      0.45521587669795      1.65472054536527
  N   -1.51087410920275      0.51367239327485      2.77706226259498
  N   -1.49144536213980     -0.57697167657869     -0.43253138437379
  H   -1.27539837885307     -0.60333067896354     -1.42032609643136
  H   -2.48655315545757     -0.53549495009050     -0.26091455388358
  N   1.24062856159186      0.57391716702602     -1.26215290942043
  O   0.53224439721960      0.28821083245913     -2.22136012301868
  O   2.35845157751107      1.07745990907918     -1.29882742311140
  N   1.11548125351887     -1.16710452675499      0.43584161905180
  O   1.07347790799514     -1.43214957420303      1.62989561458748
  O   1.39912592536476     -1.91172790668088     -0.49087804485669
