15
Coordinates from ORCA-job run
  C   -0.88969692552305      0.35733524022874     -0.13947294479964
  C   0.54279106295948     -0.03283977082010     -0.51760465500732
  F   -1.15251087976220      1.45865021698651     -0.95821604851490
  H   0.55543168237912     -0.38751152706334     -1.54770682059633
  C   -1.01785847055151      0.81204554726738      1.25680982544126
  N   -1.19688604249170      1.07380224762701      2.38745155851158
  N   -1.75990204256371     -0.70620126518281     -0.41879024621550
  H   -1.34168582781532     -1.56793927129719     -0.73122109547990
  H   -2.51013092759235     -0.84528303074176      0.23794795948102
  N   1.04828093630707     -1.14062198862204      0.35715037241017
  O   1.67218188192399     -0.82701901021999      1.36229617395160
  O   0.74839248097596     -2.27260674969628     -0.01335923509264
  N   1.51915106413327      1.09732881334541     -0.43927257445149
  O   2.47909164441987      0.98426141068808     -1.19779854655071
  O   1.30235036320107      1.99759913750037      0.36078627691280
