15
Coordinates from ORCA-job run
  C   -0.85963958580434      0.41438220716985      0.06402285545830
  C   0.67632543075849      0.42726905394500      0.14656695921223
  F   -1.23521852498754      1.69249033360325     -0.28744499768090
  H   1.01857977222614      1.31216669000616      0.68056400015510
  C   -1.40022303904148      0.18443237750520      1.42922493482182
  N   -1.85220953957777     -0.01358387359831      2.49593699452685
  N   -1.31713983061785     -0.46333966889427     -0.95134962571016
  H   -1.00690876525218     -1.41175527869419     -0.77870536602463
  H   -2.32770098958311     -0.43386354443932     -1.01430866762146
  N   1.25102939639204      0.48018379628493     -1.24570731529382
  O   1.61077714047376     -0.57774005211479     -1.74247868136986
  O   1.26837207572973      1.59442646333721     -1.74764620955867
  N   1.24153205932647     -0.77469090712971      0.82721604779760
  O   0.59181045621355     -1.81622861234937      0.77579495763329
  O   2.33861394374410     -0.61514898463165      1.35031411365431
