15
Coordinates from ORCA-job run
  C   -0.85324565623349      0.30620114186717     -0.08369634794778
  C   0.53514437281640     -0.11278394249040     -0.57873695562541
  F   -1.22287796499010      1.34045842692102     -0.91747193585845
  H   0.44959850951536     -0.43317135682261     -1.61596516013615
  C   -0.84721854162930      0.84442996255282      1.29452023421267
  N   -0.95048515406415      1.25150800770236      2.39208667450235
  N   -1.77190427206851     -0.76807660615105     -0.31112373034892
  H   -1.65350384239621     -1.48584815528145      0.39374707704222
  H   -2.71722199349982     -0.40321420117457     -0.25626593232990
  N   1.14538302019151     -1.22829889729871      0.21044263512764
  O   0.49921350338728     -1.69390372639750      1.14513438918909
  O   2.25332996963767     -1.58258817390769     -0.16856670982233
  N   1.48879481036520      1.04076939596273     -0.51914289192298
  O   1.72357847012543      1.60499220026281     -1.58043192303905
  O   1.92241476884273      1.31852592425507      0.59447057695702
