12

C	-0.536281	0.017624	-1.388294
C	0.0	0.0	0.0
F	-1.918826	-0.076678	-1.423431
H	1.089049	0.0	0.0
H	-0.356491	0.890637	0.522863
H	-0.374586	-0.898353	0.494791
C	-0.170984	1.208251	-2.167803
N	0.018471	2.208477	-2.750982
N	-0.057285	-1.224266	-2.147582
O	0.673512	-1.06614	-3.117105
O	-0.470499	-2.288077	-1.707166
H	2.872986	0.0	0.0
