12

C	-0.531999	-0.007981	-1.391884
C	0.0	0.0	0.0
F	-1.914224	-0.072808	-1.431796
H	1.089041	0.0	0.0
H	-0.3799	-0.887751	0.509912
H	-0.356935	0.901243	0.504076
C	-0.132661	1.150221	-2.203964
N	0.11988	2.124607	-2.807813
N	-0.064988	-1.279874	-2.10689
O	0.769841	-1.167984	-2.994751
O	-0.577406	-2.316886	-1.702384
H	2.86435	0.0	0.0
