12

C	-0.527926	0.023252	-1.392573
C	0.0	0.0	0.0
F	-1.910886	-0.034683	-1.439012
H	1.08912	0.0	0.0
H	-0.355891	0.891887	0.521256
H	-0.380335	-0.897483	0.49181
C	-0.121278	1.197094	-2.178248
N	0.099639	2.182126	-2.777229
N	-0.06896	-1.235727	-2.135706
O	0.728392	-1.10743	-3.054748
O	-0.552316	-2.282597	-1.725126
H	2.872757	0.0	0.0
