17

C	-0.465122	-0.089043	-1.463606
C	0.0	0.0	0.0
Cl	-2.24786	-0.449991	-1.50568
H	1.092544	0.0	0.0
C	-0.30753	1.240316	-2.061553
N	-0.167699	2.265576	-2.617441
C	0.287887	-1.105714	-2.310718
H	1.357959	-0.929765	-2.170569
H	0.054319	-2.115971	-1.986557
H	0.015681	-0.979584	-3.360062
N	-0.399557	-1.288632	0.721738
O	-1.146973	-1.186809	1.693654
O	0.060492	-2.344892	0.300901
N	-0.493375	1.159227	0.645294
H	0.122616	1.409035	1.407386
H	-1.428661	1.012587	1.002174
Cl	3.251388	0.0	0.0
