17

C	-0.46097	-0.065192	-1.465608
C	0.0	0.0	0.0
Cl	-2.246932	-0.4087	-1.520745
H	1.092586	0.0	0.0
C	-0.287414	1.269855	-2.045444
N	-0.160058	2.290443	-2.613081
C	0.285768	-1.079852	-2.321457
H	0.016388	-0.941583	-3.370053
H	0.043256	-2.091925	-2.008103
H	1.357469	-0.913859	-2.177141
N	-0.404565	-1.297998	0.699494
O	-1.18202	-1.214473	1.650376
O	0.077384	-2.345129	0.279773
N	-0.49267	1.150673	0.661528
H	-1.424141	0.996377	1.024805
H	0.129562	1.395018	1.419936
Cl	3.251842	0.0	0.0
