17

C	-0.381722	-0.048546	-1.501586
C	0.0	0.0	0.0
Cl	-2.177735	-0.257431	-1.684935
H	1.092017	0.0	0.0
C	-0.075373	1.272845	-2.055689
N	0.144327	2.332522	-2.513422
C	0.346983	-1.124581	-2.293061
H	0.148212	-0.99817	-3.358996
H	0.018541	-2.111276	-1.973863
H	1.416856	-1.025174	-2.086526
N	-0.482241	-1.281231	0.637063
O	-1.471357	-1.225217	1.362637
O	0.134552	-2.308148	0.358299
N	-0.473647	1.109768	0.742694
H	-1.401614	1.411676	0.482834
H	0.19411	1.86526	0.695175
Cl	3.267501	0.0	0.0
