17

C	-0.494154	0.039905	-1.460437
C	0.0	0.0	0.0
Cl	-0.254535	-1.542965	-2.273752
H	1.090919	0.0	0.0
C	-1.926907	0.347382	-1.518637
N	-3.063455	0.639715	-1.584596
C	0.320916	1.095539	-2.201666
H	0.145516	2.064752	-1.73451
H	1.378933	0.839255	-2.107007
H	0.026814	1.126361	-3.252208
N	-0.508598	-1.260596	0.674507
O	0.232176	-2.233162	0.736951
O	-1.663582	-1.213577	1.112147
N	-0.453117	1.178608	0.667174
H	-1.394163	1.053772	1.020739
H	0.182516	1.401119	1.422583
Cl	3.318654	0.0	0.0
