17

C	-0.463428	-0.076759	-1.46369
C	0.0	0.0	0.0
Cl	-2.25073	-0.410228	-1.510869
H	1.092558	0.0	0.0
C	-0.279685	1.25094	-2.056822
N	-0.116546	2.275934	-2.60762
C	0.273471	-1.10512	-2.31237
H	1.346557	-0.94672	-2.171299
H	0.003771	-0.971793	-3.361616
H	0.022031	-2.112771	-1.992353
N	-0.404996	-1.291271	0.712742
O	0.062383	-2.345214	0.293009
O	-1.164504	-1.194887	1.676127
N	-0.48948	1.157268	0.653149
H	0.135181	1.407026	1.407963
H	-1.420285	1.006687	1.020116
Cl	3.250889	0.0	0.0
