17

C	-0.38471	-0.034444	-1.499936
C	0.0	0.0	0.0
Cl	-2.184161	-0.180549	-1.683498
H	1.092026	0.0	0.0
C	-0.028839	1.275432	-2.053293
N	0.229403	2.32675	-2.511064
C	0.303667	-1.136529	-2.291626
H	0.106871	-1.00342	-3.357026
H	-0.061744	-2.110467	-1.97261
H	1.376549	-1.076768	-2.088749
N	-0.484659	-1.284155	0.626587
O	-1.494652	-1.236147	1.324481
O	0.151068	-2.305848	0.3693
N	-0.469836	1.104724	0.752945
H	0.201164	1.85803	0.714572
H	-1.397653	1.411722	0.497232
Cl	3.267894	0.0	0.0
