17

C	-0.42737	0.063673	-1.485511
C	0.0	0.0	0.0
Cl	-0.164467	-1.530407	-2.269831
H	1.090743	0.0	0.0
C	-1.841311	0.414895	-1.643626
N	-2.943161	0.793517	-1.800671
C	0.451235	1.094716	-2.190353
H	0.220908	1.118407	-3.256388
H	0.265086	2.083337	-1.76463
H	1.49826	0.827964	-2.027673
N	-0.563667	-1.247516	0.619714
O	0.204783	-2.098683	1.048292
O	-1.794603	-1.301183	0.663145
N	-0.440982	1.106075	0.787062
H	-1.336356	1.488637	0.518784
H	0.279148	1.808218	0.857019
Cl	3.333234	0.0	0.0
