17

C	-0.49511	0.048631	-1.45979
C	0.0	0.0	0.0
Cl	-0.247138	-1.525036	-2.288595
H	1.09096	0.0	0.0
C	-1.929707	0.347174	-1.513403
N	-3.069312	0.628407	-1.572122
C	0.312486	1.115184	-2.19306
H	1.371985	0.864864	-2.101163
H	0.017546	1.152018	-3.243156
H	0.131249	2.079489	-1.718655
N	-0.506811	-1.265097	0.668019
O	-1.656248	-1.217798	1.120213
O	0.2299	-2.241803	0.710453
N	-0.453772	1.174295	0.674337
H	0.184306	1.394315	1.428231
H	-1.392663	1.044551	1.031403
Cl	3.316136	0.0	0.0
