17

C	-0.497232	0.017652	-1.45657
C	0.0	0.0	0.0
Cl	-0.099553	-1.537	-2.259693
H	1.090935	0.0	0.0
C	-1.951713	0.192532	-1.529224
N	-3.107731	0.392472	-1.602118
C	0.215867	1.149167	-2.189698
H	1.293162	0.998093	-2.088938
H	-0.073636	1.147328	-3.241746
H	-0.061178	2.096512	-1.727083
N	-0.47798	-1.27807	0.670775
O	0.322148	-2.189258	0.849671
O	-1.671236	-1.299113	0.994771
N	-0.493158	1.155206	0.678633
H	-1.441801	1.003431	1.003398
H	0.117032	1.372243	1.457318
Cl	3.325307	0.0	0.0
