13

C	-0.576087	-0.042251	-1.396574
C	0.0	0.0	0.0
Br	-0.068088	1.501062	-2.476096
H	1.089738	0.0	0.0
H	-1.667217	-0.06194	-1.392334
H	-0.169329	-0.91995	-1.89312
N	-0.504701	-1.145044	0.708318
H	-1.462092	-0.993284	1.005646
H	0.088596	-1.319079	1.509713
N	-0.513943	1.275129	0.659223
O	-1.745059	1.382335	0.772301
O	0.284046	2.111089	1.068279
F	2.595686	0.0	0.0
