13

C	-0.32898	-0.053674	-1.449946
C	0.0	0.0	0.0
Br	-2.250099	-0.267277	-1.871774
H	1.10288	0.0	0.0
H	-0.012766	0.859866	-1.940457
H	0.172659	-0.909539	-1.898044
N	-0.53992	-1.110158	0.771342
H	-0.39242	-1.944834	0.213411
H	0.055718	-1.205347	1.585954
N	-0.432314	1.273033	0.612851
O	-0.65744	1.274585	1.823634
O	-0.445869	2.287471	-0.092248
F	2.543575	0.0	0.0
