13

C	-0.537074	-0.123664	-1.407721
C	0.0	0.0	0.0
Br	-0.234207	1.465242	-2.504892
H	1.089432	0.0	0.0
H	0.003168	-0.934705	-1.893914
H	-1.615928	-0.294145	-1.423111
N	-0.380108	-1.146747	0.793372
H	-1.18576	-1.645381	0.438745
H	0.428502	-1.750852	0.855163
N	-0.638347	1.197437	0.641115
O	-1.874648	1.217378	0.654834
O	0.071048	2.070671	1.12852
F	2.592123	0.0	0.0
