14
Coordinates from ORCA-job run
  C   0.28685196996449      0.57755011447410     -0.71558314620320
  C   0.06256352453031     -0.39920932215038      0.46912814601173
  Cl  -0.96697548745269      1.85838712972923     -0.68815003912436
  H   0.79860613603535     -1.20172036222994      0.38116418879827
  C   1.60303970355301      1.19480058759506     -0.53660224279694
  N   2.67219168073714      1.66895581615530     -0.42281860775460
  C   0.25000216854432     -0.09068619098057     -2.01783565503514
  N   0.26187911852081     -0.59078348904763     -3.08161265445934
  N   -1.29017335775036     -1.09684597290903      0.24596530813491
  O   -2.22890072042862     -0.72388593933347      0.94052174851802
  O   -1.30758952100193     -1.97596702576222     -0.60970563645526
  N   0.17891131099338      0.27667199588393      1.69607632813852
  H   0.30135056106794     -0.36558749097461      2.46659709334814
  H   -0.62275708731315      0.86832014955023      1.87385516887927
