14
Coordinates from ORCA-job run
  C   0.68297363035776      0.40759315760949     -0.63276767825582
  C   0.07669729423231     -0.31188842602013      0.58910880571541
  Cl  2.16124827747184      1.25312000034897     -0.04074652560865
  H   0.80728605924364     -1.05632595896187      0.93827977501889
  C   1.11178653084743     -0.55560794648012     -1.64725839191787
  N   1.51210004082151     -1.33749741201814     -2.42774451914909
  C   -0.23203136114379      1.40400266382695     -1.18592915529109
  N   -0.93308774853091      2.22776487133666     -1.64430012626419
  N   -1.13290158820521     -1.11779042214205      0.16810765722319
  O   -1.67115382523280     -1.73544403598217      1.07954265641712
  O   -1.47742771905325     -1.09643604445905     -1.00829120439233
  N   -0.39961876117797      0.63285690479898      1.55591522279352
  H   0.37146338891840      1.15146419647724      1.95646767044589
  H   -0.87833421854895      0.13518845166523      2.29761581326501
