14
Coordinates from ORCA-job run
  C   0.54884547256369      0.09431086563059     -0.85632873747160
  C   0.06265391208946     -0.45641282321676      0.50910530804834
  Cl  0.55312015420488     -1.20318441042281     -2.08374334665747
  H   0.77187668420138     -1.21142232716792      0.85023765536228
  C   -0.29197649379058      1.20241159297623     -1.31500854613587
  N   -0.94022074332333      2.11777326906124     -1.66633286803292
  C   1.91896461418258      0.57508821770057     -0.66574048518333
  N   3.02807038133908      0.93126977999721     -0.51175296292302
  N   -1.24114449181394     -1.21368207861629      0.28245797677036
  O   -2.21360215601452     -0.52278624002320     -0.01068614928098
  O   -1.21941600538923     -2.42978073273393      0.43921102602995
  N   -0.05109649902928      0.61390084704099      1.42348422408385
  H   -0.85182630846951      1.20138081854484      1.22180897403858
  H   -0.07424852075070      0.30113322122924      2.38428793135181
