14
Coordinates from ORCA-job run
  C   0.28819435543782      0.45109258764861     -0.74927554983652
  C   -0.03853771289655     -0.40121870209310      0.53546940172339
  Cl  -0.92888732121954      1.74280019720205     -0.96043549814391
  H   0.70368935652872     -1.20122477613902      0.57487504346614
  C   1.59367105164000      1.06623326616126     -0.50395488982087
  N   2.64280656967156      1.52820916129460     -0.24316286052731
  C   0.34898398947320     -0.36307471741263     -1.96154361307853
  N   0.42562920733789     -1.00780090706793     -2.94187068414700
  N   -1.36234630543431     -1.08573224660567      0.28532628462410
  O   -2.36123235339734     -0.54843901953692      0.74719937184940
  O   -1.31629767146473     -2.11302335823437     -0.38600703052254
  N   -0.09164281562604      0.29477131193876      1.75980744079686
  H   -0.72692576007342      1.08038156328089      1.74520152525535
  H   0.82289541002274      0.55602563956348      2.09937105836142
