14
Coordinates from ORCA-job run
  C   0.34973100156558      0.44068990536714     -0.78101670911459
  C   0.02020176081996     -0.30424404596896      0.53993794094911
  Cl  -0.91132158621924      1.67209099502617     -1.11001671750560
  H   0.76670478815110     -1.09089222543521      0.67196831042477
  C   1.63753733278962      1.11460018627366     -0.60049389822689
  N   2.68705994651130      1.62938398306592     -0.48069994426228
  C   0.44247672710325     -0.45804431606507     -1.93314761373338
  N   0.55986591565548     -1.14597519677376     -2.87906474488677
  N   -1.30011688415244     -1.06329071138808      0.32682446022904
  O   -1.23024699313162     -2.08452540319840     -0.34954082580496
  O   -2.30304681582052     -0.59156184250476      0.85055058991976
  N   0.01507509582009      0.59070383428224      1.62382093183540
  H   -0.80351447178686      1.18566480811219      1.61274394888867
  H   0.06759418269428      0.10640002920692      2.50913427128772
