14
Coordinates from ORCA-job run
  C   0.72545666273966      0.35197250633945     -0.55854087078153
  C   0.07739182434944     -0.37689041254391      0.67589064561206
  Cl  2.24869415733663      1.08921184110933      0.03668447539947
  H   0.81578653144826     -1.08432104075044      1.05367334634647
  C   1.04418085702584     -0.58884553975647     -1.62927839171813
  N   1.29679166189822     -1.36515334475999     -2.47569085613159
  C   -0.14931539559912      1.41699097035397     -1.04341107280183
  N   -0.85338757289024      2.29252084403178     -1.38955828533393
  N   -1.06163189742358     -1.20257485980400      0.13426774880343
  O   -0.85284022728627     -2.39951026007667     -0.03262060606645
  O   -2.09671548694107     -0.58889201883473     -0.10949110597452
  N   -0.42322758867880      0.44697738238933      1.70882851737170
  H   0.31246182326832      0.87208243980504      2.25383183018369
  H   -1.08464534924726      1.13643149249730      1.37441462509115
