14
Coordinates from ORCA-job run
  C   0.31411419333723      0.52907960852046     -0.74117741416561
  C   0.04372370821466     -0.38113683158341      0.48628507710034
  Cl  -0.86733889625440      1.87679191525056     -0.76600709078424
  H   0.73426469450417     -1.22590837550601      0.43129476301090
  C   1.66316858507621      1.08035428805863     -0.59430219644743
  N   2.75705290764242      1.50054277881415     -0.50643824890502
  C   0.23333150249962     -0.19295225774029     -2.01235696885783
  N   0.21188265636032     -0.73967578027058     -3.05279615590335
  N   -1.34621542453442     -1.01293529224704      0.29815414441602
  O   -1.41582440209653     -1.92734857997571     -0.51688831060209
  O   -2.25983674747152     -0.55777215026988      0.97696097393850
  N   0.20349249014896      0.34057632485076      1.68176412658924
  H   0.29501099873945     -0.27286839520928      2.47960466787018
  H   -0.56382626616618      0.98225274730762      1.83590263274037
