14
Coordinates from ORCA-job run
  C   0.52038592008423      0.08386133421403     -0.83024272817927
  C   -0.01261007272335     -0.53828357958604      0.50446449149930
  Cl  0.62081147269528     -1.16362902163207     -2.10282433081622
  H   0.68339403800949     -1.32329907046428      0.80186677717843
  C   -0.31597416985121      1.19670256505778     -1.28110904568941
  N   -0.95007468707420      2.12811186783154     -1.61635923647576
  C   1.86362308812454      0.58688865496163     -0.53444665298411
  N   2.93193930094573      0.97162759197118     -0.23003329071478
  N   -1.31703608171181     -1.22906079093871      0.20852260134845
  O   -1.33804764005406     -2.45145307061863      0.28522278090102
  O   -2.25532628622984     -0.48646208878287     -0.06605448355778
  N   -0.23456397445943      0.38123726040144      1.55832968326373
  H   0.61714381401434      0.67695778223326      2.01253913545856
  H   -0.81266472176971      1.16680056535174      1.28912429876784
