14
Coordinates from ORCA-job run
  C   0.26749446692710      0.51831323284903     -0.71331038149866
  C   -0.02639249900760     -0.45384944276437      0.49277147826744
  Cl  -0.90801730251660      1.86398632192035     -0.72383884763795
  H   0.68757474208959     -1.27589810486293      0.40986018898369
  C   1.60659811124233      1.05986001842920     -0.47644863741443
  N   2.68476394259389      1.45587460260660     -0.22599351644585
  C   0.23430655702926     -0.16567817098327     -2.00463209437133
  N   0.23357053058390     -0.70615981493072     -3.04888780602361
  N   -1.38493228962106     -1.06578053708681      0.24472308391920
  O   -1.41054930473424     -2.01873737176547     -0.52944001918254
  O   -2.33893924256201     -0.54759623934557      0.81160612508906
  N   0.00758791299927      0.11181667533749      1.78346967496909
  H   -0.60117437926566      0.91200911557948      1.88414134943228
  H   0.94710875424184      0.31283971501699      2.09497940191361
