14
Coordinates from ORCA-job run
  C   0.56086510541177      0.09778473396752     -0.85078328203101
  C   0.06864890359028     -0.44802838781377      0.51477419851362
  Cl  0.62579104757798     -1.21577274023440     -2.05887160882651
  H   0.79384193568007     -1.17684466870589      0.87833170154423
  C   -0.30732066012777      1.17236967620664     -1.33754692075106
  N   -0.98250579176596      2.06093973058362     -1.70617799564834
  C   1.91144703009964      0.62472048004279     -0.64373670920422
  N   3.00442271710739      1.02133726925109     -0.47360042913810
  N   -1.20924079057695     -1.24530113374312      0.27982775096970
  O   -1.15361493924569     -2.45874395480118      0.44912374429662
  O   -2.19880473966820     -0.58641382252336     -0.02990360200280
  N   -0.09042828391408      0.63184993695185      1.41133605100676
  H   -0.11658272215787      0.33250870490161      2.37629810273710
  H   -0.90851881201061      1.18859417591663      1.19192899853401
