14
Coordinates from ORCA-job run
  C   0.53665080766619      0.12935926958381     -0.88789027955095
  C   -0.00690093671428     -0.50338763786327      0.41469900476864
  Cl  0.88973447346394     -1.13501232112380     -2.09933362658286
  H   0.62584103810935     -1.36986646940991      0.65505241286740
  C   -0.37383872564190      1.13830653206273     -1.43016946738659
  N   -1.06039551557903      1.98193005371112     -1.87422984117951
  C   1.80729480412776      0.77067688686750     -0.53173161662530
  N   2.82238329022092      1.25273129103311     -0.18684048997143
  N   -1.39188177843324     -1.08147101446361      0.21336504102374
  O   -1.88382070858444     -1.08000052838336     -0.90690314793068
  O   -1.89905811982280     -1.53301866932954      1.23497762309544
  N   -0.12892738302363      0.51266862811671      1.42134924144003
  H   -0.71510612700875      0.17049245890005      2.17398376081634
  H   0.77902488121991      0.74859152029845      1.80367138521572
