14
Coordinates from ORCA-job run
  C   0.27448316636156      0.59233385221769     -0.70800789132687
  C   0.06963785144668     -0.41734145592114      0.45244168935131
  Cl  -0.93085350789955      1.91279423775187     -0.58023955895683
  H   0.77330921307225     -1.23961707920570      0.30382529927987
  C   1.61831024857408      1.15844211395327     -0.56977638158521
  N   2.70724365337195      1.59289127991081     -0.48976630960232
  C   0.15591717718773     -0.02846560591347     -2.02876592319410
  N   0.10223425016008     -0.49045368686346     -3.10839191902003
  N   -1.31447753120376     -1.06197358905752      0.26782257276979
  O   -2.20862971895668     -0.68159613280704      1.01516835976492
  O   -1.39950128348495     -1.91092388265833     -0.61387464994934
  N   0.26362262797422      0.21132787284673      1.69466151970049
  H   -0.50847663218703      0.82288305146002      1.92767055567855
  H   0.39618048558342     -0.46130097571374      2.43723263708977
