14
Coordinates from ORCA-job run
  C   0.49550433587220      0.13627315967233     -0.88409255752772
  C   0.10051755299544     -0.47481111230159      0.48497597112412
  Cl  0.44403078356345     -1.11228808324730     -2.15987160927159
  H   0.83978028709408     -1.23014745930472      0.75398395922627
  C   -0.38732824902031      1.24761918275319     -1.24637616084405
  N   -1.07026176923491      2.16426312403727     -1.51971211058904
  C   1.86730615042996      0.63267301260919     -0.75657970098442
  N   2.97781853634813      1.00250668114157     -0.65311154500188
  N   -1.20377112217473     -1.24404341462715      0.30704222920162
  O   -2.20260304666363     -0.55812687159137      0.10409638517307
  O   -1.15520225649671     -2.46486497093749      0.41227256297355
  N   0.02616051310067      0.55812120765832      1.44587617215316
  H   0.06625297694200      0.20752531778424      2.39309957263770
  H   -0.79720469275566      1.13530022635350      1.31739683172920
