14
Coordinates from ORCA-job run
  C   0.58296764564801     -0.00373955811995     -0.84026368203805
  C   0.05210144327589     -0.38368081816228      0.56622747784584
  Cl  0.67055535517244     -1.45097722395763     -1.88313262494023
  H   0.76331570831893     -1.06668212237441      1.03212842406929
  C   -0.26451015281006      1.00904337814881     -1.47376197854832
  N   -0.92048880060752      1.85122472979607     -1.96564441326419
  C   1.93161781114603      0.53825599448007     -0.66105222149675
  N   3.02370757350353      0.94492738738420     -0.51051444081668
  N   -1.22334659327561     -1.20045916809838      0.39193388865557
  O   -1.17962562488779     -2.38510928649738      0.70619302286407
  O   -2.19967734800432     -0.58055776045533     -0.02244631263468
  N   -0.12487389260176      0.79426004171134      1.32537595339103
  H   -0.93202081023213      1.32506700768595      1.01839042537591
  H   -0.18072231464562      0.60942739845891      2.31756648153717
