14
Coordinates from ORCA-job run
  C   0.30425221094781      0.55024980868916     -0.72909743049782
  C   0.04999397717442     -0.39466427317885      0.47542615542171
  Cl  -0.89692571987094      1.88064556988694     -0.71637270048286
  H   0.74885592048811     -1.23058427796315      0.39573946988068
  C   1.64504082700091      1.11792408625349     -0.57031242112767
  N   2.73178675844291      1.55390278781805     -0.47082407890381
  C   0.23051763757655     -0.13943294757297     -2.01844268877491
  N   0.21458049858414     -0.65725820024187     -3.07369726479325
  N   -1.33481909563800     -1.03515596235822      0.27772839245610
  O   -2.24823125743671     -0.61024267068215      0.97596308442354
  O   -1.40069087197365     -1.92444848453205     -0.56492229621033
  N   0.20857009169485      0.29748885645544      1.68856713228216
  H   -0.56371295711456      0.92811703294122      1.86238033354006
  H   0.30878198012416     -0.33554132551503      2.46986431278640
