14
Coordinates from ORCA-job run
  C   0.35046465936288      0.57997346682411     -0.73721884489642
  C   0.03356518802218     -0.31997152481143      0.48563838147013
  Cl  -0.59917823454906      2.09480471480432     -0.75115061091640
  H   0.78366128627852     -1.11290185390651      0.51336589403297
  C   1.76837909878167      0.93757311186482     -0.63904020691967
  N   2.91212649290930      1.19539311972020     -0.56020452248538
  C   0.11831342145681     -0.15675358968907     -1.98142237995107
  N   -0.04881417855653     -0.78398781600719     -2.96136841954464
  N   -1.27471452757754     -1.07178745949436      0.25509125726676
  O   -2.22910217533650     -0.43372135650876     -0.17860864637458
  O   -1.27687089339332     -2.24798519349112      0.60960093223855
  N   0.06296678407334      0.42295289506926      1.68575193241909
  H   0.10915849181339     -0.17440015910574      2.49987828064699
  H   -0.70895541328515      1.07281164473149      1.75968695301366
