14
Coordinates from ORCA-job run
  C   0.52020789979535      0.13654399192906     -0.86996233812815
  C   0.08590164460152     -0.47499648494234      0.48749706791554
  Cl  0.50313639575345     -1.11081322486707     -2.14782516639026
  H   0.81733097142346     -1.23062094535524      0.77627693746835
  C   -0.35174440866128      1.24836390333908     -1.25579228414644
  N   -1.02563758315731      2.16664187057174     -1.54576696928499
  C   1.88852964050784      0.63085427136078     -0.70312598785321
  N   2.99701915645448      0.99734200014358     -0.57032446769066
  N   -1.21304655726100     -1.24302844756469      0.27307075928782
  O   -1.16786272208695     -2.46411424974746      0.37743464084273
  O   -2.20564071694696     -0.55682303323409      0.04311339157423
  N   -0.01420289465823      0.55782858644424      1.44610306232366
  H   -0.00063661105909      0.20732543721905      2.39420692528263
  H   -0.83335421470529      1.13549632470335      1.29509442879876
