14
Coordinates from ORCA-job run
  C   0.72114292018598      0.32338046981680     -0.58124986157793
  C   0.08289133264842     -0.40502143226067      0.65836094439535
  Cl  2.31649928267835      0.93670084720437     -0.03634026482420
  H   0.78850123929714     -1.17265721600666      0.97667401850038
  C   0.92622684974506     -0.59711674575562     -1.69649172453866
  N   1.08727771309447     -1.35735241311592     -2.57907456674363
  C   -0.10107158601973      1.46069789471222     -0.98765662370091
  N   -0.76056554780838      2.39231823644172     -1.26919289639612
  N   -1.13294909684979     -1.13435359874584      0.14588091666381
  O   -2.13465135053848     -0.44585581266689     -0.02731123097765
  O   -1.01314266493601     -2.33572824388259     -0.06954998846331
  N   -0.31320756930124      0.41222579570056      1.74075592818098
  H   -0.94160454811599      1.15496747682189      1.46121424601108
  H   0.47365302592020      0.76879474173661      2.26298110347081
