14
Coordinates from ORCA-job run
  C   0.74453318986817      0.40888521017675     -0.49025714074854
  C   0.05236697787998     -0.55452010534036      0.54255553795479
  Cl  2.36744428338284      0.77949038640111      0.17912560831098
  H   0.70855894060498     -1.41630483130908      0.66597879441261
  C   0.90764377392524     -0.23048452968932     -1.79311390441093
  N   1.03291008738701     -0.76721637006525     -2.83194530211599
  C   -0.00519810581393      1.65701507950396     -0.61139579071733
  N   -0.60589722728418      2.66634970040336     -0.66130693292171
  N   -1.19929356598757     -1.06728129781459     -0.12328681120362
  O   -2.15635286464720     -0.29821752449818     -0.12427353626854
  O   -1.14916964004185     -2.18874394835145     -0.61692204253908
  N   -0.30606770056036      0.00346249777146      1.79041338953103
  H   -0.88790512019563      0.82664348402777      1.69820023333289
  H   0.49542697148249      0.17992224878382      2.37822789738343
