14
Coordinates from ORCA-job run
  C   0.49562857276254      0.09822150829561     -0.84311660827444
  C   0.00724267406312     -0.54248474501283      0.50048572699613
  Cl  0.57134612139802     -1.13440782790362     -2.13142759657445
  H   0.72113849679534     -1.32091710629683      0.77166808586386
  C   -0.36481659220866      1.20699004747454     -1.25728670965289
  N   -1.01891925746684      2.13440533404509     -1.56365728431217
  C   1.84200551409457      0.61094878644145     -0.58086007980224
  N   2.91684261879337      0.99874837871300     -0.30439578085655
  N   -1.29604089685449     -1.24663172005914      0.23294487350083
  O   -1.29972443493612     -2.46981042618120      0.29676279603828
  O   -2.24958881037940     -0.51327228872854     -0.01145544170009
  N   -0.19682745840681      0.36517584362773      1.56796125175619
  H   -0.79150797307003      1.14578963956733      1.32157241242686
  H   0.66322142541538      0.66724457601741      2.00180435459068
