14
Coordinates from ORCA-job run
  C   0.30320080226392      0.48154934872678     -0.72348374196974
  C   -0.06428344551068     -0.44769465272717      0.49507680247926
  Cl  -0.70283266585094      1.95895445109652     -0.70029961170071
  H   0.54006953507659     -1.35116200576395      0.39035336799097
  C   1.70452479654693      0.85998766227579     -0.53522982034223
  N   2.83073121346989      1.12363988799163     -0.32489636452444
  C   0.14518769298391     -0.19349202791534     -2.01032263621290
  N   0.04747030725788     -0.73026327742854     -3.05194689564881
  N   -1.49618342014464     -0.88867724570541      0.29650164279946
  O   -2.35884719880431     -0.25942110211163      0.89614829050879
  O   -1.66552530311109     -1.82888066081499     -0.47502901778848
  N   0.08330277182889      0.10826898431818      1.78205204317007
  H   -0.41730353725253      0.97808162585568      1.89989847611046
  H   1.05048845124620      0.19010901220245      2.06117746512828
