14
Coordinates from ORCA-job run
  C   0.64945943579092      0.23669054931981     -0.69585682902445
  C   -0.04600527698147     -0.67720201795838      0.37910216994659
  Cl  2.37133024978680     -0.26458976482138     -0.74256605686684
  H   0.12677519474952     -1.71114610502255      0.07981691687064
  C   0.06586574967290      0.04275540637050     -2.02059002548548
  N   -0.41787290495827     -0.13601890387214     -3.07739119871757
  C   0.58432527133371      1.64084696630826     -0.29731165933209
  N   0.55456375816725      2.75916451993353      0.06417389156906
  N   -1.52879030904011     -0.44008268924242      0.24650898397649
  O   -1.95339757852954      0.58697524363821      0.76843336217347
  O   -2.17362624511722     -1.27422470153060     -0.37989298421003
  N   0.31887122641724     -0.46273799363511      1.72723364514774
  H   0.20152878225604      0.50027526928310      2.01630576952043
  H   1.24697264645224     -0.80170577877085      1.93403401443204
