14
Coordinates from ORCA-job run
  C   0.54514278185821      0.12732863367424     -0.85652201916626
  C   0.07990481916566     -0.46148179899117      0.50003608746045
  Cl  0.59610932860960     -1.15031307006234     -2.10305684932644
  H   0.81526816736838     -1.19634616928190      0.82962426111936
  C   -0.33606731202977      1.21126667260148     -1.29703396501943
  N   -1.01886677067041      2.10776022606135     -1.63101315461124
  C   1.89669031202764      0.65513542204101     -0.65782551653964
  N   2.99208182728997      1.04916190708681     -0.49794153295341
  N   -1.19701643510285     -1.26107939863149      0.26315626373857
  O   -2.19433263075770     -0.60051005054354     -0.01659366275820
  O   -1.13262709544762     -2.47775665378982      0.40365510863515
  N   -0.07156465175066      0.58924671110753      1.43164085412862
  H   -0.08060988871119      0.25990251696982      2.38719546958321
  H   -0.89511245184928      1.14868505175802      1.24167865570926
