14
Coordinates from ORCA-job run
  C   0.64574713702378      0.26554161298791     -0.78898580957850
  C   0.04953955271906     -0.65541821987354      0.30603537276487
  Cl  2.28626670039617     -0.34965299714972     -1.15641725219341
  H   0.17083377304296     -1.69242933293190     -0.00803237856586
  C   -0.15650495392424      0.19720637169297     -2.01125245474151
  N   -0.79886578087696      0.10426322099848     -2.99099774354344
  C   0.76243985097594      1.64681732077114     -0.32078403708946
  N   0.89264203833897      2.74328105134244      0.08093960590625
  N   -1.45932329970143     -0.43483981712601      0.35149652901217
  O   -2.14792047264312     -1.43353628255394      0.53620194752602
  O   -1.84932115558475      0.72955970783877      0.29003669327743
  N   0.67479004569698     -0.42611465347841      1.55125065877925
  H   0.43565523831196      0.47433577043482      1.94937454616206
  H   0.49402132622468     -1.16901375295300      2.21213432228414
