14
Coordinates from ORCA-job run
  C   0.63540468765192      0.09820479790751     -0.82488477499277
  C   0.03918608215899     -0.61652402345390      0.42040761269801
  Cl  2.25633739360353     -0.59424568977928     -1.12256960965550
  H   0.07917038616298     -1.69204815220162      0.24683828600229
  C   -0.18783871391078     -0.11945282022609     -2.01528715100998
  N   -0.84359197436504     -0.29495199093764     -2.97497668807262
  C   0.77093851631480      1.53235208793815     -0.56388320036560
  N   0.88919825707409      2.67667037405895     -0.32281571106734
  N   -1.45645049424022     -0.27607766058842      0.44502737173572
  O   -2.22059066175960     -1.10085363161790     -0.04618102820699
  O   -1.75704305765149      0.80075846539598      0.95440923886562
  N   0.73078046293804     -0.23857294439604      1.58614372728979
  H   0.56753116245742     -0.88126048747604      2.34853513324376
  H   0.49796795356535      0.70600167537635      1.87023679353562
