14
Coordinates from ORCA-job run
  C   0.22235200709330      0.57572335491194     -0.68208360150577
  C   0.00788570276999     -0.48840106008579      0.46034652963041
  Cl  -1.01151298787820      1.86351845370318     -0.56618433152478
  H   0.75069093409735     -1.27252424287727      0.29958672065366
  C   1.54233603390427      1.16232156866706     -0.44570718382016
  N   2.60864265387939      1.59193334886765     -0.19971951747359
  C   0.18091658587008     -0.01737377459354     -2.01744220081720
  N   0.17525366550967     -0.48198415104206     -3.09761065479691
  N   -1.33298003219971     -1.13913435049296      0.20935473422238
  O   -2.28775485058048     -0.70497503160309      0.84135661818291
  O   -1.34548400210281     -2.03231255173670     -0.63325014648682
  N   0.06036887434352     -0.01194157246143      1.78573133231443
  H   -0.57281583831010      0.75600814537484      1.95976620950954
  H   1.00110125360371      0.20014186336818      2.08585549191189
