14
Coordinates from ORCA-job run
  C   0.74011159757445      0.26769514977108     -0.64267444430071
  C   0.02613025719076     -0.27511975240008      0.61166171843865
  Cl  2.30724832389806      0.95587011082030     -0.07610745352985
  H   0.64758619506583     -1.07945403974294      1.03193660567521
  C   1.05439512036860     -0.81484455416102     -1.57565199081426
  N   1.36078941908427     -1.69742987679765     -2.28837550433206
  C   -0.02795284066686      1.33083026271475     -1.28766010731435
  N   -0.60825313960129      2.20242630714208     -1.82027193181058
  N   -1.27160327253921     -0.94694809086437      0.21912651572408
  O   -1.59308299179506     -0.96631989690791     -0.96379495916325
  O   -1.89936246147721     -1.42177680232321      1.15847126823277
  N   -0.33766243795721      0.79256474191703      1.49614265299312
  H   -0.88725351836235      0.41717451064053      2.26031346144230
  H   0.48890974921721      1.23533193019139      1.87688416875895
