14
Coordinates from ORCA-job run
  C   0.54298308800806      0.08501991741092     -0.86226014124546
  C   0.06252716709810     -0.45293662605851      0.51073518237022
  Cl  0.52373892928205     -1.21822804638328     -2.08273379591912
  H   0.76876696549164     -1.21040765745712      0.85261081049136
  C   -0.29084892027694      1.19922664599523     -1.31857949398925
  N   -0.93450147570730      2.11821979163873     -1.66870964272826
  C   1.91940011039312      0.55196998912472     -0.68387493268683
  N   3.03402047868002      0.89399531951435     -0.53753745469252
  N   -1.24825536595711     -1.20202855976779      0.29890167468595
  O   -2.21785158284500     -0.50621101988795      0.00763217265091
  O   -1.23393571419640     -2.41718012461375      0.46392037010638
  N   -0.03680749576646      0.62495408946854      1.41806388367929
  H   -0.83746565932738      1.21435845360176      1.22052635135472
  H   -0.05177052487641      0.31924782741412      2.38130501592262
