14
Coordinates from ORCA-job run
  C   0.59388583826077     -0.03835051774889     -0.85960252878680
  C   -0.05327691082742     -0.42613621268278      0.49070691887049
  Cl  0.96478326223659     -1.49921743736687     -1.81847541028369
  H   0.52748684685077     -1.25897317665507      0.91246864077701
  C   -0.23838956066559      0.89345558170374     -1.62112435773973
  N   -0.86041091261824      1.67220033360737     -2.24313976111399
  C   1.86681599950843      0.61285851963628     -0.53073296662018
  N   2.87899733315763      1.11301216901404     -0.20372939221778
  N   -1.44639145170748     -0.98650544984987      0.29663668681173
  O   -2.03130869430022     -1.24664657961297      1.34314592509604
  O   -1.87131360588259     -1.15405930544522     -0.83842964651782
  N   -0.19382453128483      0.74781484533629      1.30505141949177
  H   -0.83655894083139      0.55345885176318      2.06427788992377
  H   0.69850532810358      1.01708837830077      1.70194658230918
