14
Coordinates from ORCA-job run
  C   0.75348052701407      0.37713016522223     -0.56819979108770
  C   0.01283292915463     -0.34814934907176      0.57352674955801
  Cl  2.26016823665107      1.05383467484886      0.15460214495649
  H   0.65309559744568     -1.17248065769242      0.92044808347488
  C   1.15896307544206     -0.56573369812343     -1.61099678269837
  N   1.53751706274688     -1.33828840820859     -2.41150952110442
  C   -0.03600610514776      1.47951234718551     -1.11368142281599
  N   -0.63394054508210      2.38578802983032     -1.56238186311640
  N   -1.23360752368021     -1.01883237864453      0.03890260203231
  O   -1.87838911004707     -1.63258541144347      0.88125174718790
  O   -1.50183894926862     -0.90517708567627     -1.15196375613257
  N   -0.43844343629854      0.58417337844780      1.56446499308309
  H   -1.00306422732602      0.09338298387215      2.24816373537919
  H   0.34923246839592      1.00842540945359      2.03737308128361
