14
Coordinates from ORCA-job run
  C   0.56460850041190      0.00469012999646     -0.87992509190739
  C   -0.02848257602668     -0.44480742471654      0.47620883898614
  Cl  0.92838419159497     -1.41199759403296     -1.90503181418273
  H   0.58166199313473     -1.28113071906235      0.84649892587832
  C   -0.31012396914213      0.94766201235654     -1.57742353629274
  N   -0.96736278549904      1.73563346177841     -2.14959479415407
  C   1.83612248127633      0.66777902548249     -0.56960078566844
  N   2.85006358816465      1.17483216986323     -0.25923245207199
  N   -1.41714004284272     -1.02485781103299      0.30840801791623
  O   -1.96091079775628     -1.33473502736957      1.36345672316149
  O   -1.87785843475977     -1.15856346626984     -0.81713777129791
  N   -0.16210993151692      0.69544278236871      1.33803601758031
  H   0.73828409693074      0.96672978386022      1.71481124968017
  H   -0.77513631396978      0.46132267677819      2.11052647237263
