17

C	0.0	0.0	0.0
C	-0.505902	-0.091381	-1.434978
Cl	1.853964	0.0	0.0
H	-1.593758	0.008226	-1.312662
H	-0.256303	0.976208	0.411673
N	-0.528885	-1.004694	0.820041
H	-0.151311	-1.922341	0.648654
H	-0.53755	-0.77984	1.799866
C	-0.227545	-1.447525	-2.072035
H	-0.729053	-2.246494	-1.52259
H	0.845755	-1.657482	-2.121414
H	-0.623956	-1.462954	-3.09085
C	0.004143	1.053122	-2.302249
H	1.070869	0.95436	-2.518382
H	-0.540236	1.070264	-3.249972
H	-0.156338	2.018295	-1.812201
Cl	-4.094529	0.0	0.0
