17

C	0.0	0.0	0.0
C	-0.491896	0.004788	-1.452907
Cl	1.798659	0.0	0.0
H	-1.581177	0.035804	-1.336268
H	-0.287405	0.950753	0.453852
N	-0.502188	-1.04418	0.849039
H	-0.373155	-1.939162	0.391553
H	-1.510687	-0.878935	0.910244
C	-0.126726	-1.255352	-2.228381
H	-0.57292	-1.213252	-3.226247
H	0.956093	-1.361957	-2.342512
H	-0.5177	-2.154736	-1.746036
C	-0.057203	1.259082	-2.203021
H	-0.294077	2.157525	-1.625481
H	1.016716	1.257023	-2.409558
H	-0.590604	1.329762	-3.155737
Cl	-3.691515	0.0	0.0
