17

C	0.0	0.0	0.0
C	-0.409328	-0.462055	-1.429595
Cl	1.805552	0.0	0.0
H	0.442406	-0.268251	-2.088464
H	-0.26662	1.05268	0.114032
N	-0.538175	-0.691418	1.131906
H	-1.527382	-0.45469	1.200848
H	-0.468777	-1.692516	0.998995
C	-1.586861	0.356059	-1.947512
H	-1.82793	0.049482	-2.971202
H	-2.485524	0.232519	-1.339423
H	-1.330294	1.421101	-1.97384
C	-0.70569	-1.956173	-1.477126
H	-1.620542	-2.185217	-0.92561
H	0.12299	-2.551094	-1.076489
H	-0.86235	-2.268093	-2.51347
Cl	-4.442076	0.0	0.0
