19

C	-0.224525	0.04831	-1.53052
C	0.0	0.0	0.0
Br	-0.084952	-1.82136	-2.267771
H	1.096453	0.0	0.0
C	-1.577152	0.564181	-1.982821
H	-1.619972	0.591994	-3.072972
H	-1.704396	1.573059	-1.583093
H	-2.383889	-0.071581	-1.61243
N	0.853132	0.794886	-2.143975
H	1.70445	0.550734	-1.606884
H	0.660716	1.768748	-1.922078
C	-0.65322	-1.100752	0.806963
H	-1.750126	-1.078804	0.721185
H	-0.393389	-0.963735	1.862387
H	-0.307151	-2.087768	0.502209
N	-0.354624	1.352519	0.489264
H	0.406509	1.649928	1.088825
H	-1.199631	1.316059	1.049997
F	2.721916	0.0	0.0
