14

C	0.0	0.0	0.0
C	-0.305713	0.085747	-1.562888
Cl	1.78585	0.0	0.0
H	-1.388981	0.221951	-1.614232
C	-0.450738	1.223645	0.673644
N	-0.509888	2.275716	1.205914
C	-0.78494	-1.153401	0.494906
N	-0.776818	-2.281156	0.888927
N	0.046305	-1.109736	-2.298654
H	1.018855	-1.340381	-2.128397
H	-0.517103	-1.869798	-1.929664
C	0.329258	1.260623	-2.163048
N	0.802754	2.198938	-2.688067
H	-2.119295	0.0	0.0
