14

C	0.0	0.0	0.0
C	-0.313135	-0.000238	-1.534993
Cl	1.78658	0.0	0.0
H	-1.408901	-0.003088	-1.552908
C	-0.635756	1.160067	0.639983
N	-0.622327	2.211631	1.193324
C	-0.495938	-1.239268	0.612455
N	-0.545002	-2.277619	1.172831
N	0.183181	-1.203025	-2.173772
H	1.178786	-1.137946	-2.343911
H	-0.290816	-1.327224	-3.058813
C	0.166327	1.244777	-2.1593
N	0.521622	2.182771	-2.773588
H	-2.195251	0.0	0.0
