14

C	0.0	0.0	0.0
C	-0.470125	-0.027689	-1.435094
F	1.406326	0.0	0.0
H	-0.169237	-0.994448	-1.854058
H	-0.267487	0.965831	0.454507
H	-1.566502	0.008058	-1.38217
N	-0.525158	-1.125663	0.709131
H	-0.381766	-0.970795	1.703858
H	-1.546962	-1.034042	0.561285
C	0.087812	1.125362	-2.260157
H	-0.230408	2.084381	-1.840593
H	-0.274769	1.081917	-3.29151
H	1.180137	1.10997	-2.280234
H	-3.194974	0.0	0.0
