14

C	0.0	0.0	0.0
C	-0.46604	-0.034559	-1.439569
F	1.41575	0.0	0.0
H	-0.28887	-1.048335	-1.825878
H	-0.282377	0.940472	0.481231
H	0.193004	0.633027	-2.006929
N	-0.524316	-1.073398	0.750689
H	-0.284114	-1.96442	0.340961
H	-0.24586	-1.04124	1.719352
C	-1.928271	0.375223	-1.602058
H	-2.632929	-0.170147	-0.966701
H	-2.062368	1.430486	-1.348368
H	-2.245882	0.248073	-2.640819
H	-5.014522	0.0	0.0
