14

C	0.0	0.0	0.0
C	-0.476542	0.032692	-1.437393
F	1.394617	0.0	0.0
H	-0.034583	0.915737	-1.916235
H	-0.270291	0.947897	0.486817
H	-1.564618	0.165315	-1.381876
N	-0.529063	-1.149525	0.666716
H	-1.554032	-1.026027	0.533715
H	-0.362642	-1.045573	1.6631
C	-0.110595	-1.232037	-2.202654
H	-0.598189	-2.098331	-1.75731
H	0.968576	-1.406619	-2.183156
H	-0.429126	-1.155767	-3.24734
H	-3.197055	0.0	0.0
