14

C	0.0	0.0	0.0
C	-0.241117	0.081852	-1.520647
F	1.404425	0.0	0.0
H	0.148941	-0.868144	-1.91503
H	-0.319218	0.913755	0.50769
H	0.439806	0.857512	-1.891689
N	-0.56582	-1.108945	0.687924
H	-1.559669	-0.875094	0.816271
H	-0.54993	-1.91879	0.075936
C	-1.642675	0.340458	-2.048874
H	-2.395942	-0.313115	-1.60694
H	-1.987504	1.340414	-1.779806
H	-1.638529	0.254042	-3.143323
H	-3.646327	0.0	0.0
