14

C	0.0	0.0	0.0
C	-0.339082	-0.074218	-1.501975
F	1.404439	0.0	0.0
H	-0.432302	-1.134356	-1.769722
H	-0.303921	0.967724	0.4093
H	0.533379	0.3085	-2.04119
N	-0.543361	-1.013194	0.845267
H	-1.539069	-0.78618	0.949732
H	-0.513914	-1.900857	0.353446
C	-1.589931	0.688381	-1.919777
H	-2.463573	0.395086	-1.317848
H	-1.805641	0.517256	-2.980902
H	-1.443625	1.765762	-1.778289
H	-3.757088	0.0	0.0
