14

C	0.0	0.0	0.0
C	-0.391223	-0.304292	-1.489888
Cl	1.762117	0.0	0.0
H	0.501015	-0.045841	-2.072227
N	-0.357066	1.442313	0.382796
O	-0.503109	1.671717	1.570003
O	-0.310436	2.248277	-0.534545
C	-0.469927	-0.938774	1.007255
N	-0.513887	-1.758061	1.85284
C	-1.465658	0.438971	-2.164916
N	-2.018281	0.977	-3.0562
C	-0.570774	-1.749	-1.653343
N	-0.622098	-2.906117	-1.850616
Cl	-2.904153	0.0	0.0
