14

C	0.0	0.0	0.0
C	-0.368565	-0.19765	-1.512563
Cl	1.762374	0.0	0.0
H	0.495447	0.197254	-2.058464
N	-0.367575	1.413492	0.465197
O	-0.336338	2.270641	-0.406022
O	-0.509228	1.574738	1.664437
C	-0.473666	-1.002542	0.93926
N	-0.54911	-1.872836	1.729096
C	-1.507855	0.493916	-2.133734
N	-2.081676	1.035218	-3.011026
C	-0.407592	-1.634297	-1.796145
N	-0.357743	-2.775585	-2.069807
Cl	-2.918179	0.0	0.0
