15

C	0.0	0.0	0.0
C	-0.411084	-0.012615	-1.453965
F	1.420332	0.0	0.0
H	-1.505937	0.061121	-1.483344
H	-0.326008	0.909867	0.49752
N	-0.477247	-1.143396	0.641631
H	-0.208286	-1.97949	0.145282
H	-0.240246	-1.172679	1.619638
N	0.10158	-1.169306	-2.10029
H	1.110101	-1.102049	-2.151509
H	-0.263377	-1.255505	-3.037551
N	0.148796	1.286553	-2.059929
O	-0.188774	2.33874	-1.531385
O	0.90688	1.192872	-3.024343
Cl	-3.621232	0.0	0.0
