15

C	0.0	0.0	0.0
C	-0.271615	0.299315	-1.495288
F	1.402605	0.0	0.0
H	0.217239	1.245735	-1.736698
H	-0.337743	0.861276	0.581299
N	-0.529654	-1.179689	0.567738
H	-0.507429	-1.933251	-0.106607
H	-1.492655	-1.013831	0.846438
N	-1.600639	0.226865	-1.953486
H	-2.298873	-0.06988	-1.26826
H	-1.913159	1.094851	-2.357813
N	0.57705	-0.697126	-2.30346
O	1.394773	-0.238584	-3.09906
O	0.356741	-1.895764	-2.139948
Cl	-4.033355	0.0	0.0
