15

C	0.0	0.0	0.0
C	-0.408295	-0.082863	-1.481282
F	1.396148	0.0	0.0
H	0.433871	0.262525	-2.090646
H	-0.330436	0.976849	0.354696
N	-0.573707	-1.004895	0.790093
H	-0.120779	-1.8992	0.697062
H	-0.762966	-0.73982	1.740648
N	-1.569759	0.655693	-1.745384
H	-1.852992	0.560145	-2.710684
H	-2.364946	0.394067	-1.145675
N	-0.483108	-1.580008	-1.896819
O	0.406017	-2.326602	-1.482189
O	-1.365952	-1.910057	-2.678658
Cl	-4.23244	0.0	0.0
