15

C	0.0	0.0	0.0
C	-0.333777	0.8341	-1.300355
F	1.415242	0.0	0.0
H	0.630584	1.224001	-1.646698
H	-0.326877	0.614984	0.840758
N	-0.484773	-1.310928	0.201824
H	-0.360196	-1.856244	-0.641622
H	-1.482608	-1.237981	0.396952
N	-1.272854	1.913075	-1.182365
H	-2.149398	1.525415	-0.815662
H	-0.904526	2.579927	-0.514269
N	-0.765415	-0.076316	-2.433626
O	-1.735937	0.225575	-3.111806
O	-0.060471	-1.078966	-2.612797
Cl	-3.558757	0.0	0.0
