13
Coordinates from ORCA-job run
  C   0.77826801126239      0.10256357137250      0.44186535661346
  C   -0.55584891867658     -0.09158441909348      0.20757810759463
  N   1.37292171193564      0.16544672694993      1.68596671953674
  H   2.21916042027601      0.71063738346375      1.73964844621137
  H   0.74155993263836      0.31414255607355      2.46103202844630
  C   1.68683452946519      0.15219825231828     -0.66899295435232
  N   2.43789979274880      0.21219149206291     -1.57299079698833
  C   -1.17550977581121     -0.29586589595671     -1.14636653069570
  H   -1.63922227446061     -1.28369666638522     -1.21227631030795
  H   -1.95334124106205      0.45007873110010     -1.32776801309936
  H   -0.42731108649896     -0.21422775455990     -1.93592204283661
  C   -1.40488140852629     -0.11148639860956      1.35171743757944
  N   -2.07852969329070     -0.11139757873613      2.31950855229833
