13
Coordinates from ORCA-job run
  C   0.64443777018784      0.26712497607304      0.62185273832669
  C   -0.30027655467084     -0.15686259965366     -0.27263275867560
  N   1.95553290537765      0.57463415233965      0.31823068884980
  H   2.61773936492693      0.45207363201066      1.06830639371688
  H   2.28396029379698      0.23606542734124     -0.57554919777533
  C   0.26231231468194      0.51863736842926      1.98305258161752
  N   -0.02695813137943      0.71200614958982      3.10736026741615
  C   -1.75712096687880     -0.35671111274486      0.03833805678598
  H   -2.37370725808373      0.32635619569924     -0.55194017330315
  H   -2.06443844389695     -1.37692901691923     -0.20474626308578
  H   -1.96024975264990     -0.17754758234694      1.09504796849201
  C   0.15167938772098     -0.40804478959682     -1.60039839059048
  N   0.56708907086732     -0.61180280022140     -2.68492191177471
