13
Coordinates from ORCA-job run
  C   0.79708338382172      0.07571743558856      0.38185157371858
  C   -0.56232867420302      0.02880993320741      0.23221323606967
  N   1.46504941975787      0.47923050717294      1.52074978661691
  H   0.90476433422031      0.51242789710238      2.36145858543939
  H   2.37912875019603      0.07639711915734      1.65647309242170
  C   1.64023318839533     -0.21964641352364     -0.74260537722986
  N   2.34528009487857     -0.47815571095523     -1.64894590745031
  C   -1.28055411072165     -0.27529966290515     -1.05226384913261
  H   -1.95939395505381     -1.12171628978222     -0.92071055488593
  H   -0.57457011008638     -0.51806786738633     -1.84754884875473
  H   -1.87701162013169      0.58355300784869     -1.37172221157427
  C   -1.33738314904525      0.31237727046930      1.39366548292191
  N   -1.94129755202803      0.54437277400596      2.37938499183955
