13
Coordinates from ORCA-job run
  C   0.78770229069244      0.09949732094496      0.40592462096678
  C   -0.44545515903542     -0.09190002623177     -0.15549672562287
  N   1.99275847457858      0.01659500223201     -0.26394085402230
  H   2.78745351264938     -0.23844976605552      0.29685377533218
  H   1.95809912415596     -0.45057390025031     -1.16097316868755
  C   0.88042089208432      0.51958910928767      1.77559632083649
  N   0.97324545213142      0.84139339369567      2.90316611949104
  C   -1.75758499731682      0.14357651963687      0.53880811061872
  H   -2.34713033614801      0.89313768115424      0.00310114572862
  H   -2.34467440276499     -0.77838343778151      0.57420537671182
  H   -1.60246430972108      0.49328574276934      1.56014621982641
  C   -0.46083018858152     -0.53425420676490     -1.50984589740951
  N   -0.42154035272426     -0.91351343263674     -2.62554504376983
