13
Coordinates from ORCA-job run
  C   0.70523882697211      0.27800311044418      0.54416841754651
  C   -0.46958680671811      0.25146909308112     -0.15242219416492
  N   1.37482464729393     -0.86126023233371      0.95070694934420
  H   2.05982773423495     -0.72565001268774      1.67731977933085
  H   0.80124948934091     -1.67893933231359      1.09011831564882
  C   1.37223538513626      1.51910762262869      0.80983152540128
  N   1.94328099620396      2.51926397230460      1.05352306121953
  C   -1.14882980511070     -1.05407258539289     -0.46851321622534
  H   -1.98630301043891     -0.90090044719346     -1.14789575691992
  H   -1.53939180162205     -1.53001369389543      0.43841482770453
  H   -0.44629985080826     -1.74677010249674     -0.94293169097355
  C   -1.06589220218149      1.47073274125292     -0.57589961644699
  N   -1.60235360230261      2.45702986660205     -0.93442040146500
