13
Coordinates from ORCA-job run
  C   0.78337142690458      0.07709387630120      0.43235946565913
  C   -0.56307973884914      0.03882827030354      0.19203582301154
  N   1.37787474583682      0.52977783340473      1.59372275936729
  H   2.27375422319937      0.12229071916810      1.81168625562898
  H   0.76149656550510      0.60749600658876      2.39109011587271
  C   1.69644852092754     -0.27887416320726     -0.61708027866264
  N   2.45881478623954     -0.58498684568317     -1.45992176472739
  C   -1.19684991875566     -0.32292705155591     -1.12209748878313
  H   -0.44170080511951     -0.60811579170718     -1.85561466959971
  H   -1.76364049418173      0.52238994039867     -1.52116888973416
  H   -1.88956897979999     -1.15858536722131     -0.99557956653750
  C   -1.41292929505983      0.38538251089143      1.28193129253005
  N   -2.08399103684709      0.67023006231841      2.20863694597482
