13
Coordinates from ORCA-job run
  C   0.61643401174502      0.32032448779023      0.66100619489413
  C   -0.41613824378703      0.22375109307201     -0.22892713269158
  N   1.02526855528813     -0.72769553618809      1.46503120070695
  H   1.94556155188457     -0.63547151556583      1.86507736048262
  H   0.84032367660084     -1.65022430894110      1.10244726787710
  C   1.27057169121498      1.57586308750798      0.88723642903193
  N   1.82943809913802      2.59162556465087      1.08987466006811
  C   -1.14191035821571     -1.07980363854498     -0.42967488000439
  H   -1.45510893131170     -1.49605036650077      0.53296301113816
  H   -2.03121668075397     -0.93750141688985     -1.04197220758682
  H   -0.50496343267127     -1.81736455850020     -0.93165138836757
  C   -0.80830835794063      1.36199825096786     -0.98478263502253
  N   -1.16995158119126      2.26954885714187     -1.64462788052613
