13
Coordinates from ORCA-job run
  C   0.78791930248118      0.22984099219124      0.41422905383717
  C   -0.51508455024049      0.23210832684310      0.00355984295520
  N   1.58583720921322     -0.89383147087450      0.54614983597909
  H   1.09506491766175     -1.75427002194893      0.73014098190052
  H   2.40024975611647     -0.77370275703806      1.12742277929816
  C   1.46770473877440      1.47788457810628      0.62286684185070
  N   2.08056115440722      2.46692990188911      0.80070683206290
  C   -1.31690619738161     -1.00033489957174     -0.31122122940839
  H   -0.70879034243105     -1.90562282050011     -0.29986932840429
  H   -1.75491076676427     -0.91608846506146     -1.30819700841796
  H   -2.13852746351228     -1.12981403702535      0.39852905964433
  C   -1.18964706532907      1.48152567311093     -0.12906882957449
  N   -1.79347069299547      2.48537499987950     -0.25624883172294
