13
Coordinates from ORCA-job run
  C   0.78433692131449      0.28242215600698      0.29625645563556
  C   -0.56667191857236      0.25560136285979      0.09412830859410
  N   1.58633954825591     -0.84260244173950      0.22750555692880
  H   2.48866887293575     -0.75766151894359      0.66850664191602
  H   1.12487925016787     -1.71619827823750      0.43261649425972
  C   1.47440390126399      1.52292357174319      0.49789576861150
  N   2.07839175496666      2.51645189353681      0.68096938696553
  C   -1.28474365647333     -1.04274677192880     -0.15836427257432
  H   -1.28263765260117     -1.68302895557054      0.73108739563160
  H   -2.32380123397012     -0.86386879228969     -0.43305462235569
  H   -0.80733843291917     -1.58793494883438     -0.97897205758835
  C   -1.30709562649740      1.46936048216136      0.12995544655593
  N   -1.96473172787113      2.44728224123586      0.15346949741958
