13
Coordinates from ORCA-job run
  C   0.77830783212465      0.04146670281912      0.45352633866758
  C   -0.56489789748497      0.01133218181870      0.19406292656712
  N   1.35069062870942      0.19955644638435      1.70013376211094
  H   2.26480774003098     -0.20960712077174      1.81520690463454
  H   0.73159788072738      0.04108986661535      2.48302192471945
  C   1.70794099238305      0.00721597182812     -0.64038244380761
  N   2.48341570777326     -0.03980914873846     -1.52450560718756
  C   -1.18048763748396     -0.02363313251162     -1.17652353618062
  H   -1.77990746235242      0.87364083605205     -1.35228836466851
  H   -1.83932137921677     -0.88972453762234     -1.27779594748600
  H   -0.41283326385554     -0.08063239152064     -1.94944578218397
  C   -1.42899937955252      0.03000677765863      1.32699943554162
  N   -2.10931376180258      0.03809754798848      2.28999038927303
