13
Coordinates from ORCA-job run
  C   0.75470280385895      0.27320802351434      0.43952139119731
  C   -0.50744731060377      0.25458491898986     -0.08230557613820
  N   1.31445556634486     -0.79672218945249      1.11369941421945
  H   2.31759937517460     -0.77180244394006      1.20801361871859
  H   0.96140326288076     -1.70617338855172      0.85775070653017
  C   1.54661835051591      1.46741669449854      0.39763089773161
  N   2.22574490932232      2.42817808970775      0.36306476128618
  C   -1.35612855223797     -0.98657263103124     -0.00694854719491
  H   -0.95739205692826     -1.77992892672866     -0.64973301047787
  H   -2.37471620449951     -0.77884709337318     -0.33313139000314
  H   -1.39368809323015     -1.36275970157370      1.02007802087170
  C   -1.02589740556022      1.41403237917629     -0.72251913383446
  N   -1.50525464503751      2.34538626876426     -1.26312115290643
