13
Coordinates from ORCA-job run
  C   0.78039401753033     -0.05759076063966      0.44500858260897
  C   -0.56352052857039      0.03414347069230      0.20473985805414
  N   1.37367540289767     -0.06280650436327      1.69182705763907
  H   0.78911236831246      0.26255117406150      2.44949142693840
  H   2.31752682199752      0.28955308220044      1.72690313490781
  C   1.68010040756697     -0.26320070022843     -0.65525980816758
  N   2.43310898647162     -0.41014726486948     -1.54782847033715
  C   -1.21177034058580     -0.10078344951933     -1.14450420712941
  H   -1.88017730977093     -0.96564070825431     -1.16508747869238
  H   -1.80764435861341      0.78621622047230     -1.37339492782372
  H   -0.46331108308292     -0.22621816520190     -1.92797255150069
  C   -1.39630571192832      0.25885514972043      1.33875879887507
  N   -2.05018867222478      0.45406845592943      2.30031858462747
