13
Coordinates from ORCA-job run
  C   0.76973481952630      0.17946726363499      0.41806169061877
  C   -0.41757928950537     -0.21643630187289     -0.13631291639303
  N   2.02009598974700     -0.04594288806844     -0.11974985188793
  H   2.73252910814653      0.62079495936404      0.13298806467394
  H   2.03330053333583     -0.31249973122972     -1.09412893653389
  C   0.76793085211771      0.80666888842775      1.70974852614178
  N   0.78302565419386      1.34255581796300      2.75733390027531
  C   -1.76132792666226     -0.09285782103042      0.52761795117508
  H   -2.49049064390380      0.33389646985445     -0.16543792025664
  H   -1.70496549839710      0.55038320190297      1.40520608786781
  H   -2.13250419374549     -1.07271041398222      0.84229140911349
  C   -0.34794006721565     -0.81060179135764     -1.42946205632758
  N   -0.25180933763756     -1.27971765360585     -2.50715594846709
