13
Coordinates from ORCA-job run
  C   0.75822571411500      0.16754967754815      0.46368154058784
  C   -0.55941903309476     -0.07595848595445      0.18633070449126
  N   1.27727679249086      0.44273257653481      1.71309917895037
  H   2.24054074279915      0.17996235936658      1.85228962296166
  H   0.67538971001882      0.21146299618971      2.49141700480250
  C   1.70092060749067      0.24820903128534     -0.61663635450340
  N   2.48781115157640      0.29683974579806     -1.49041343873268
  C   -1.13781745710563     -0.23593835616956     -1.19151163514200
  H   -1.86682975401050      0.55252546129627     -1.39689194726796
  H   -1.65193049239019     -1.19636823867872     -1.28070450050397
  H   -0.35737902481379     -0.18942302462593     -1.95218951180521
  C   -1.43710955598077     -0.16398243959400      1.30541046384598
  N   -2.13067940109524     -0.23761130299626      2.25611887231562
