13
Coordinates from ORCA-job run
  C   0.76954753813992      0.28688389138872      0.36007392524919
  C   -0.57115204052168      0.24874081878499      0.10075189627536
  N   1.53652633036845     -0.84423541747132      0.56979313786564
  H   2.53199812374591     -0.71620267919169      0.47833485208719
  H   1.20124423715853     -1.68747892446499      0.12986583928446
  C   1.44794832856328      1.53863416789348      0.53078779543865
  N   2.03941487891182      2.54711516084974      0.66839500192611
  C   -1.29219755995699     -1.06559288163472     -0.03691008102869
  H   -2.36919618777760     -0.91189699213955     -0.08864763552096
  H   -1.07926319688251     -1.71076394067039      0.82130476226080
  H   -0.98746125249968     -1.59428174966006     -0.94747094267372
  C   -1.29426993404903      1.46323327822399     -0.05214124293218
  N   -1.93313926520042      2.44384526809179     -0.19113730823187
