13
Coordinates from ORCA-job run
  C   0.78432695121367      0.09381780617443      0.42408270565304
  C   -0.43559988396939     -0.09552050741806     -0.16607878246342
  N   2.00752907038931     -0.04106925296116     -0.20139871017172
  H   1.99084599757004     -0.53965551810564     -1.08033072663176
  H   2.77838864662515     -0.29580547434068      0.39606196284161
  C   0.84452651341688      0.56751955750418      1.77844533239173
  N   0.90998113958890      0.93651381561443      2.89409941667975
  C   -1.76259597919693      0.18725777432129      0.48043577785019
  H   -2.29775376514166      0.96870718532729     -0.06568947584314
  H   -2.38822278312531     -0.70883598246539      0.47804447671105
  H   -1.63353253336596      0.51643424893694      1.51235540997562
  C   -0.42380943013293     -0.58772391674217     -1.50320001908700
  N   -0.37508394387176     -1.00263973584545     -2.60582736790595
