13
Coordinates from ORCA-job run
  C   0.79285503137680      0.07839654077237      0.39938642670308
  C   -0.54397009783015     -0.14828772568598      0.21507191916454
  N   1.51123309159367     -0.24079713445789      1.53431899046660
  H   0.95669525890365     -0.43418780861424      2.35685352727974
  H   2.32034258433301      0.33271853055354      1.71475457175206
  C   1.57411606708975      0.60180997379617     -0.68591795814537
  N   2.22307944806939      1.04953828960172     -1.55968524389346
  C   -1.28946387476300      0.07410637808083     -1.07087662120950
  H   -2.12766247887437      0.75759853987605     -0.91402407576770
  H   -0.63574244428459      0.49800729210191     -1.83420549688403
  H   -1.69428490671532     -0.86842183054985     -1.44893212839607
  C   -1.26295521579786     -0.64778124257120      1.33930992165287
  N   -1.82424246310097     -1.05269980290344      2.29394616727726
