13
Coordinates from ORCA-job run
  C   0.78402964355886     -0.02099980912903      0.43921038429293
  C   -0.53871535841811      0.16698651452180      0.14314303268789
  N   1.49255692739902      0.65892955987941      1.40933678801313
  H   2.27604707389842      0.16444533849345      1.80632128567572
  H   0.93174639869088      1.15167070681775      2.09051605271418
  C   1.56417221736026     -0.92064787485311     -0.36334579738606
  N   2.21194383935867     -1.66932639580024     -0.99972950890105
  C   -1.26785796505383     -0.47519401861599     -1.00354070879885
  H   -1.62344848037697      0.28302924095018     -1.70634703055069
  H   -0.61836174855329     -1.16588607602403     -1.54298295603769
  H   -2.13798809807339     -1.02887786818961     -0.64204804114231
  C   -1.25696275673145      1.05911683329840      0.99083246497786
  N   -1.81816169305909      1.79675384865101      1.71963403445492
