13
Coordinates from ORCA-job run
  C   0.77830659195711     -0.14370743484449      0.41841222128085
  C   -0.55923005017061      0.06794969223509      0.22167305182323
  N   1.38596074994162     -0.35123834214033      1.64064217951366
  H   0.83524730149582     -0.08945458713910      2.44679924905190
  H   2.35295101303861     -0.07260608455216      1.70044827912537
  C   1.64652138227212     -0.26145904861110     -0.71933531682319
  N   2.37278035776452     -0.33768750486480     -1.64239257844647
  C   -1.23303485525103      0.15412178473857     -1.11902506741278
  H   -1.95879771859533     -0.65489469503831     -1.23704764786549
  H   -1.77025380765988      1.10061875004067     -1.21772966296424
  H   -0.50532258150139      0.08368407404585     -1.92851340351235
  C   -1.35971854468857      0.19722707875988      1.39324627921788
  N   -1.98640983860300      0.30844631737023      2.38582241701164
