13
Coordinates from ORCA-job run
  C   0.79983231786943      0.06587601804278      0.37596589121611
  C   -0.55771882950379     -0.05502754699627      0.25383327749110
  N   1.49208401839690      0.16329646045952      1.56645666914183
  H   2.36971217534203      0.65722106272522      1.52203396387433
  H   0.93221726005686      0.39769689736036      2.37458672051051
  C   1.62157510954154     -0.00611987790779     -0.79945827759729
  N   2.30678520925828     -0.04337337767623     -1.75559107408758
  C   -1.29172868658685     -0.29758984457840     -1.03503233421852
  H   -1.81899301165530     -1.25480384884831     -1.00335495812791
  H   -2.03401866472462      0.48607608706742     -1.20621052668188
  H   -0.60323748724351     -0.31232426113549     -1.88097333536789
  C   -1.31353641360155      0.04863433810094      1.45724519372755
  N   -1.90297299714943      0.14943789338624      2.47349879011965
