13
Coordinates from ORCA-job run
  C   0.79634352286640      0.03396770767735      0.39649115314062
  C   -0.54613112531307      0.14427351186533      0.15580099285234
  N   1.52426378611249      0.82876326934878      1.25930360066313
  H   0.97804060008531      1.36074677473431      1.92280565882138
  H   2.34520069888076      0.40108099648747      1.65854155090234
  C   1.57190891461077     -0.90895843965295     -0.35957423053602
  N   2.21758645887424     -1.69081358249246     -0.95709112966927
  C   -1.30458058609616     -0.63173249081221     -0.88420786858361
  H   -1.73236193607286      0.04267308423547     -1.63086593840509
  H   -2.12737389540348     -1.18520202784506     -0.42473897059316
  H   -0.65334117608430     -1.34185750253356     -1.39547671885746
  C   -1.25819748687097      1.08338129292746      0.95663028123890
  N   -1.81235777558914      1.86367740606007      1.64538161902590
