13
Coordinates from ORCA-job run
  C   0.78401753447390      0.19987098343249      0.34506994526177
  C   -0.55267247150572     -0.08283127794070      0.26699941993494
  N   1.45621251836297      0.58522934628749      1.48796469624997
  H   2.43640252573496      0.35204056249688      1.51744892933422
  H   0.96862644192769      0.40923927962204      2.35569775365077
  C   1.57443955264510      0.20313553255662     -0.85382552729601
  N   2.23944474931034      0.18898703335496     -1.82472737112826
  C   -1.30389599247648     -0.36427127301861     -1.00367988764679
  H   -0.63112491871486     -0.37214125830255     -1.86234763545108
  H   -1.80408845507068     -1.33416693302432     -0.94745081045683
  H   -2.07014022056856      0.39685316690518     -1.17396670927505
  C   -1.27108581745801     -0.08969261749225      1.49752693081540
  N   -1.82713544666065     -0.09325254487722      2.53729026600695
