13
Coordinates from ORCA-job run
  C   0.78291913677943     -0.06323001750439      0.43618798585480
  C   -0.55780451904793      0.08547479735838      0.20659877074752
  N   1.41769551040844      0.14825345860338      1.64396512929288
  H   2.38687975371395      0.41910069333632      1.58632231406605
  H   0.88721153854774      0.67372924987386      2.32506974991171
  C   1.62413189950053     -0.57264525951939     -0.61024542152956
  N   2.32996086118935     -0.97024604039695     -1.46400942243177
  C   -1.26263627047577     -0.28052845981448     -1.06930220847143
  H   -1.79486622090267      0.58337645390549     -1.47512163690260
  H   -0.55455901372943     -0.63429387591508     -1.81983855354864
  H   -1.99729530783657     -1.06999395803502     -0.88937171125243
  C   -1.32959945210485      0.61598038976455      1.28054580056845
  N   -1.93203791604224      1.06502256834333      2.18919920369502
