13
Coordinates from ORCA-job run
  C   0.78279400801269     -0.00517055791584      0.44399898845897
  C   -0.55918310280960      0.08188282093765      0.19124563700505
  N   1.39209771770847      0.28182228407889      1.64921912462194
  H   0.77331018754040      0.32806948262645      2.44702437264873
  H   2.25393244072579     -0.20901961874762      1.82947365123669
  C   1.68184226641218     -0.32787473701773     -0.62811951541183
  N   2.42964037279513     -0.61158372003884     -1.49151342011713
  C   -1.19874384423879     -0.10023590176498     -1.15669843347431
  H   -1.95561084530429     -0.88760489198887     -1.11756993390764
  H   -0.45674312552388     -0.36999722956458     -1.90933679047307
  H   -1.69261122105044      0.82160924968484     -1.47547284389134
  C   -1.39556948974439      0.37996825992142      1.30558340365356
  N   -2.05415536452327      0.61813455978923      2.25416575965041
