13
Coordinates from ORCA-job run
  C   0.76375373216750      0.19071432420797      0.42550201292656
  C   -0.41738863958620     -0.17406657274629     -0.16185272766622
  N   2.00670870870557      0.14058470353054     -0.17092160781007
  H   2.68698031792148      0.79605363351192      0.17918852109094
  H   2.00349394627409      0.04632823662092     -1.17747077612805
  C   0.77158450529691      0.58085662768271      1.80729505893540
  N   0.79583891770506      0.92748155339439      2.93176776573157
  C   -1.74005761292207     -0.26558566486593      0.54755629499504
  H   -2.51612456173862      0.25343686569286     -0.02001587757116
  H   -1.68412978106070      0.17966034429442      1.54170689006750
  H   -2.04724976930435     -1.31005935626853      0.65234007615474
  C   -0.35742644695004     -0.53949754902608     -1.53705714111069
  N   -0.26398331650862     -0.82590714602891     -2.67703848961556
