17
Coordinates from ORCA-job run
  C   -0.62352732106787     -0.31907162523379     -0.37283326588360
  C   0.88546411938250     -0.02308563448274     -0.32738437976720
  Cl  -1.24567971107088      0.07652493064462     -1.99255841856511
  H   1.34085829191033     -0.58230863151834     -1.14904622801328
  C   -1.43870345574083      0.38062574617825      0.68435756548817
  H   -1.06744198534386      0.12286479936791      1.67809676676247
  H   -1.37317230403295      1.45848940922113      0.53658883699892
  H   -2.48213910999785      0.08028473688094      0.61423798924432
  N   -0.77835465640275     -1.84311401880522     -0.23759853767636
  O   -1.65350157394631     -2.25834013675442      0.51219583975623
  O   -0.01202528377049     -2.52509391989460     -0.90740649648519
  C   1.41996235014864     -0.55952264776705      0.92727095483704
  N   1.83296913583794     -0.95928848781400      1.95167243441144
  C   1.22598915558557      1.46398952880171     -0.45403550028018
  H   0.87136283448818      2.02929582214623      0.40826890358310
  H   0.78937400919269      1.87945167453944     -1.36238321853971
  H   2.30956550482794      1.57929845448992     -0.50944324587107
