17
Coordinates from ORCA-job run
  C   -0.60236776100474     -0.41549059358115     -0.41314086435878
  C   0.79630340595195      0.21074212878759     -0.50835323920525
  Cl  -0.94303219372169     -1.27366967857107     -1.93438132355769
  H   0.73021817738813      0.86776687557908     -1.38457431741198
  C   -1.69366302992333      0.60116410559554     -0.14824185432703
  H   -2.66761245031964      0.12323390321109     -0.23062704996136
  H   -1.59462245357335      1.01385343896040      0.85746714655894
  H   -1.62577009951703      1.40814718034322     -0.87992000466530
  N   -0.67510417984636     -1.46786724381752      0.69577932301800
  O   -1.78911533231788     -1.91231806919826      0.94098585685164
  O   0.36966906537710     -1.78002673033708      1.25834835058754
  C   1.83256187709689     -0.77621157831488     -0.82447517530262
  N   2.71287201459046     -1.50244637556440     -1.09934285715816
  C   1.20241044257577      1.06285299845044      0.70030218453487
  H   0.50650550622434      1.89010209247149      0.84328210811113
  H   1.25140758536016      0.46330291107018      1.60756015140772
  H   2.19133942565921      1.48686463491532      0.51833156487831
