17
Coordinates from ORCA-job run
  C   -0.49811140260926     -0.44660803873412     -0.25522017258404
  C   0.56366463920928      0.62132749122741      0.07057372619721
  Cl  0.04336269844520     -1.48885250168297     -1.56791992093255
  H   0.13724437289446      1.22691206105260      0.87788126000272
  C   -1.85832999720767      0.13734841244739     -0.58287525093094
  H   -2.19511585554854      0.77270477059078      0.23693148996305
  H   -1.78995339730354      0.72488071025821     -1.49889270256653
  H   -2.58000802919964     -0.66667458416879     -0.73764701125813
  N   -0.64634832654565     -1.26949304011370      1.03298415048138
  O   -0.40355701136630     -2.46588296648151      1.02732902256726
  O   -1.00608693037932     -0.60433281758428      2.00144118264603
  C   0.73620159082863      1.49138341162638     -1.09233925599396
  N   0.88833857497368      2.19644913253208     -2.01900413190378
  C   1.90239582436298      0.04368971838372      0.53546858622078
  H   2.59522085858485      0.85826846799770      0.75168524962200
  H   2.34280345635310     -0.59294234951442     -0.23166905434942
  H   1.76827893450774     -0.53817787783649      1.44927283281891
