17
Coordinates from ORCA-job run
  C   -0.60542629073990     -0.32324966005046     -0.39780694940961
  C   0.89391754157019      0.00723301355494     -0.30418033589424
  Cl  -1.19489729396531      0.10494856631295     -2.02181199559529
  H   1.38395658909951     -0.51676997530806     -1.12908842923527
  C   -1.46506481651699      0.32581465332366      0.65645703449036
  H   -1.42409857071589      1.40875525656618      0.53955561730147
  H   -2.49807771659670      0.00099851672895      0.55061810270310
  H   -1.11250180895115      0.05040656406927      1.65236699953162
  N   -0.72667645797483     -1.85357786668237     -0.31123506419390
  O   -1.61112115363863     -2.31147652254376      0.40202331929151
  O   0.07321243407026     -2.49731646508730     -0.97960602160391
  C   1.40998275175295     -0.55162962631448      0.94835753035040
  N   1.80709271277106     -0.96994508451993      1.97155240616824
  C   1.20076162491649      1.50518017211134     -0.37932160969712
  H   0.77917917498968      1.93617427186022     -1.28751803998521
  H   0.80849547819545      2.03650892810829      0.48829813617562
  H   2.28226580173382      1.64794525787057     -0.40066070039778
