17
Coordinates from ORCA-job run
  C   -0.57292933751862     -0.35690124097485     -0.41674257091281
  C   0.91384690281444     -0.00608212723137     -0.23724556786731
  Cl  -1.04231773334389     -0.05214671363751     -2.10649910809528
  H   1.46644340999058     -0.58211163520202     -0.98436555547636
  C   -1.51048189575488      0.35864622157424      0.52179938326010
  H   -2.53204890632409      0.01983931313086      0.36297208020672
  H   -1.46277953624580      1.43082279290820      0.33153061340003
  H   -1.23280325444860      0.15700409155026      1.55829208395536
  N   -0.69459074373090     -1.87770455423349     -0.22897239483183
  O   0.15693428286503     -2.56060524072229     -0.78539221595874
  O   -1.62979135629470     -2.29133610745079      0.44548041799962
  C   1.33836652290855     -0.46980417011798      1.08649409381356
  N   1.65906138890293     -0.81048209781999      2.16374890807190
  C   1.21900413771153      1.48581289410685     -0.39691328027330
  H   0.86023126233141      1.84711192163412     -1.36077179689778
  H   2.29885351594987      1.63610336413189     -0.35355921867445
  H   0.76500134018716      2.07383328835388      0.40114412828058
