14

C	-0.585793	0.016211	-1.403943
C	0.0	0.0	0.0
Cl	0.117657	-1.263719	-2.411058
H	1.089726	0.0	0.0
H	-0.30927	0.920542	0.51046
N	-1.997304	-0.105305	-1.412293
H	-2.346729	0.031102	-2.353404
H	-2.40907	0.592183	-0.800384
N	-0.117393	1.334574	-2.101312
O	0.93561	1.828353	-1.731438
O	-0.85179	1.759577	-2.992697
C	-0.50941	-1.144312	0.746272
N	-0.902767	-2.056702	1.370795
Br	3.493742	0.0	0.0
