14

C	-0.566288	0.008031	-1.405834
C	0.0	0.0	0.0
Cl	0.214149	-1.358565	-2.31226
H	1.089465	0.0	0.0
H	-0.29426	-0.952756	0.455113
N	-1.97644	-0.013247	-1.434931
H	-2.312883	-0.030928	-2.389469
H	-2.332876	-0.804217	-0.916597
N	-0.164294	1.266995	-2.172679
O	0.654884	2.013446	-1.65828
O	-0.724905	1.421873	-3.254862
C	-0.538527	1.090548	0.805604
N	-0.961954	1.958249	1.472836
Br	3.489424	0.0	0.0
