14

C	-0.541889	0.058995	-1.415747
C	0.0	0.0	0.0
Cl	0.19069	-1.197239	-2.421616
H	1.089681	0.0	0.0
H	-0.317357	0.89393	0.544895
N	-1.954554	-0.062579	-1.474256
H	-2.280976	0.068229	-2.424027
H	-2.394673	0.605533	-0.852344
N	-0.119834	1.417751	-2.0562
O	-0.489594	1.589594	-3.214402
O	0.448729	2.241513	-1.351647
C	-0.503611	-1.184733	0.684599
N	-0.907678	-2.1199	1.267399
Br	3.470542	0.0	0.0
