14

C	-0.327744	-0.062155	-1.49476
C	0.0	0.0	0.0
Cl	-0.04713	1.502223	-2.24776
H	1.092926	0.0	0.0
H	-0.318634	-0.946557	0.447906
N	0.425826	-1.061961	-2.193283
H	0.258117	-1.953635	-1.738197
H	1.412444	-0.83436	-2.059289
N	-1.810585	-0.450729	-1.645307
O	-2.049661	-1.613788	-1.323601
O	-2.635621	0.373354	-2.009269
C	-0.599569	1.108944	0.720428
N	-1.109502	1.984177	1.314317
Br	3.430632	0.0	0.0
