14

C	-0.593597	-0.121596	-1.409198
C	0.0	0.0	0.0
Cl	-0.018684	-1.633474	-2.109303
H	1.091947	0.0	0.0
H	-0.299265	-0.903135	0.543006
N	-2.025157	-0.071062	-1.52572
H	-2.353629	0.799055	-1.121223
H	-2.419999	-0.850758	-1.013987
N	-0.07955	1.061811	-2.246192
O	-0.691436	2.10843	-2.036851
O	0.865771	0.909829	-2.999147
C	-0.53722	1.152168	0.713279
N	-0.993665	2.070818	1.285296
Br	3.449247	0.0	0.0
