16

C	0.0	0.0	0.0
C	-0.53233	0.322134	-1.398751
F	1.392499	0.0	0.0
H	-1.629259	0.24881	-1.300078
C	-0.482771	0.991224	1.034155
H	-0.152549	1.986573	0.739579
H	-0.058232	0.723726	2.003776
H	-1.573735	0.952149	1.074999
C	-0.381375	-1.380869	0.361621
N	-0.582145	-2.506809	0.627742
C	-0.063392	-0.675734	-2.376705
N	0.336625	-1.395642	-3.215143
N	-0.165589	1.681989	-1.776548
H	-0.807986	2.014257	-2.484413
H	0.772624	1.69475	-2.157787
Br	-3.828609	0.0	0.0
