16

C	0.0	0.0	0.0
C	-0.366613	0.076547	-1.519592
F	1.38791	0.0	0.0
H	0.300119	-0.661417	-1.983574
C	-0.574076	1.100998	0.852612
H	-0.247942	2.069985	0.470053
H	-1.667099	1.035882	0.827451
H	-0.233494	0.986751	1.883632
C	-0.402672	-1.33321	0.489324
N	-0.648432	-2.416925	0.868859
C	0.0741	1.393584	-2.014693
N	0.441945	2.441067	-2.396504
N	-1.710683	-0.200635	-1.94266
H	-2.420792	0.31888	-1.423724
H	-1.93476	-1.173767	-1.768995
Br	-4.357496	0.0	0.0
