16

C	0.0	0.0	0.0
C	-0.550287	0.227717	-1.409307
F	1.39265	0.0	0.0
H	-1.644669	0.139442	-1.288044
C	-0.478724	1.055649	0.971187
H	-0.053805	0.84849	1.955432
H	-0.144738	2.028692	0.613971
H	-1.569619	1.027103	1.017822
C	-0.373758	-1.356156	0.457501
N	-0.562105	-2.458288	0.81587
C	-0.073919	-0.821982	-2.327975
N	0.346594	-1.587971	-3.114076
N	-0.222831	1.567376	-1.877666
H	0.682915	1.572197	-2.329249
H	-0.921473	1.866198	-2.545082
Br	-3.828638	0.0	0.0
