17

C	-0.463209	-0.011334	-1.447402
C	0.0	0.0	0.0
F	-1.833323	-0.105405	-1.524517
H	1.092831	0.0	0.0
C	-0.002716	1.162871	-2.267914
H	-0.333243	1.036371	-3.303358
H	1.085205	1.22795	-2.215225
H	-0.44822	2.074797	-1.866846
N	0.069735	-1.283677	-2.102475
O	-0.748438	-2.075957	-2.558838
O	1.29159	-1.365398	-2.17517
N	-0.475782	-1.222099	0.622048
H	-1.477468	-1.184133	0.787229
H	0.000834	-1.361133	1.506003
C	-0.480257	1.232311	0.63841
N	-0.882625	2.196766	1.180798
F	2.525334	0.0	0.0
