17

C	-0.275766	0.069111	-1.485039
C	0.0	0.0	0.0
F	-0.13967	1.369908	-1.924764
H	1.095532	0.0	0.0
C	0.658228	-0.82829	-2.247631
H	0.40173	-1.869512	-2.05254
H	1.652726	-0.623352	-1.833724
H	0.59364	-0.618802	-3.314724
N	-1.738644	-0.25277	-1.819161
O	-2.004027	-0.486128	-2.997485
O	-2.566108	-0.208871	-0.909638
N	-0.380055	-1.315968	0.506377
H	-1.288071	-1.290992	0.951082
H	0.32417	-1.598415	1.176277
C	-0.542034	1.128761	0.744919
N	-0.9688	2.001547	1.407533
F	2.592612	0.0	0.0
