17

C	-0.37239	0.120459	-1.47
C	0.0	0.0	0.0
F	-1.690728	0.483351	-1.657689
H	1.092829	0.0	0.0
C	0.561163	1.066314	-2.182463
H	1.577114	0.816523	-1.859076
H	0.321091	2.083062	-1.860205
H	0.441328	0.999004	-3.265984
N	-0.241382	-1.271568	-2.067202
O	-1.268681	-1.874198	-2.356301
O	0.903201	-1.685388	-2.206968
N	-0.463386	-1.240749	0.604188
H	-1.322162	-1.123138	1.124453
H	0.266511	-1.566628	1.225075
C	-0.453954	1.200002	0.696065
N	-0.839369	2.13728	1.293803
F	2.572622	0.0	0.0
