17

C	-0.497604	0.019105	-1.439503
C	0.0	0.0	0.0
F	0.021345	-1.064963	-2.08301
H	1.095711	0.0	0.0
C	-1.998127	0.012374	-1.612939
H	-2.435097	0.92456	-1.202625
H	-2.380288	-0.855521	-1.074163
H	-2.242268	-0.074121	-2.674387
N	0.028467	1.235686	-2.186842
O	0.258558	1.099549	-3.382873
O	0.09965	2.286844	-1.563103
N	-0.384895	-1.314066	0.56709
H	-0.898084	-1.185207	1.432082
H	0.498127	-1.7681	0.792843
C	-0.563032	1.068292	0.804102
N	-1.060357	1.844259	1.538463
F	2.533361	0.0	0.0
