13

C	-0.068972	-0.402558	-1.488892
C	0.0	0.0	0.0
Br	-0.331964	1.570797	-2.526681
H	1.1025	0.0	0.0
H	-0.445427	0.968691	0.202573
N	1.089583	-1.020064	-1.817896
H	1.935852	-0.678516	-1.256399
H	1.204054	-1.329211	-2.77078
C	-1.277897	-1.035943	-1.997116
N	-2.233959	-1.608751	-2.374377
C	-0.529884	-1.041619	0.859197
N	-0.959652	-1.871217	1.572584
F	2.667085	0.0	0.0
