13

C	-0.456212	0.225934	-1.433786
C	0.0	0.0	0.0
Br	0.16621	-1.299487	-2.52063
H	1.101733	0.0	0.0
H	-0.373092	-0.972484	0.332521
N	-1.898432	0.27575	-1.563706
H	-2.248311	0.965983	-0.904829
H	-2.154901	0.564897	-2.501489
C	0.200146	1.415937	-2.006916
N	0.587403	2.412315	-2.496938
C	-0.536083	1.048583	0.844779
N	-0.98455	1.909617	1.510723
F	2.51447	0.0	0.0
