13

C	-0.531034	-0.125949	-1.427169
C	0.0	0.0	0.0
Br	0.325159	-1.683344	-2.27928
H	1.102826	0.0	0.0
H	-0.320593	0.975397	0.390281
N	-1.969069	-0.306823	-1.608749
H	-2.233399	-1.147863	-1.103161
H	-2.429073	0.476078	-1.150305
C	-0.13781	1.064032	-2.190464
N	0.091844	2.059297	-2.771504
C	-0.563541	-1.0454	0.827237
N	-1.043054	-1.902374	1.475784
F	2.510919	0.0	0.0
