13

C	-0.49748	0.267071	-1.419429
C	0.0	0.0	0.0
Br	0.024733	-1.291767	-2.512628
H	1.102441	0.0	0.0
H	-0.353322	-0.984706	0.31865
N	-1.927983	0.455725	-1.622891
H	-2.40607	-0.330632	-1.192804
H	-2.195735	1.293257	-1.110038
C	0.175457	1.437413	-1.998577
N	0.589262	2.429191	-2.470389
C	-0.52386	1.016401	0.889536
N	-0.946454	1.85264	1.602003
F	2.513633	0.0	0.0
