18

C	-0.558144	-0.005162	-1.427304
C	0.0	0.0	0.0
F	0.199059	0.864951	-2.163259
H	1.086744	0.0	0.0
N	-0.262909	-1.37535	-2.045274
O	0.724349	-1.96391	-1.625
O	-0.986452	-1.730295	-2.972742
C	-2.005903	0.359461	-1.591888
H	-2.259393	0.298857	-2.648498
H	-2.643625	-0.3122	-1.022166
H	-2.146478	1.386035	-1.251278
N	-0.483746	-1.142987	0.821856
O	-1.347676	-1.883355	0.350413
O	0.023373	-1.242726	1.930961
N	-0.487663	1.246833	0.669161
O	0.089509	2.27927	0.350063
O	-1.456372	1.154799	1.42252
Br	3.330044	0.0	0.0
