18

C	0.0	0.0	0.0
C	-0.526743	0.038378	-1.452751
Cl	1.799289	0.0	0.0
H	-1.626611	0.137837	-1.267687
C	-0.435479	1.265192	0.722386
H	-1.532134	1.279374	0.697066
H	-0.026084	2.155434	0.240918
H	-0.087827	1.214398	1.755581
N	-0.508663	-1.12105	0.741752
H	-1.538761	-0.986871	0.70032
H	-0.28979	-1.984335	0.256571
C	-0.271568	-1.230857	-2.264033
H	-0.639599	-1.101623	-3.284708
H	-0.817887	-2.068017	-1.822805
H	0.79515	-1.471478	-2.305197
C	-0.05202	1.206872	-2.184403
N	0.322145	2.131419	-2.808033
H	-3.091103	0.0	0.0
