18

C	0.0	0.0	0.0
C	-0.594246	0.009954	-1.401926
Cl	1.846525	0.0	0.0
H	-1.698373	0.080342	-1.142945
C	-0.486899	1.203084	0.770454
H	-0.090392	1.191424	1.789857
H	-1.586275	1.111835	0.772924
H	-0.178283	2.12915	0.286467
N	-0.429425	-1.195496	0.648379
H	0.14164	-1.988255	0.388513
H	-0.43145	-1.087662	1.654076
C	-0.36746	-1.267859	-2.19925
H	-0.780884	-1.158069	-3.200786
H	-0.895	-2.08168	-1.703231
H	0.69327	-1.505657	-2.28707
C	-0.171506	1.181124	-2.157672
N	0.144804	2.120611	-2.790863
H	-3.245508	0.0	0.0
