18

C	0.0	0.0	0.0
C	-0.597102	0.012347	-1.404305
Cl	1.846378	0.0	0.0
H	-1.70244	0.087966	-1.143258
C	-0.487517	1.202929	0.773361
H	-1.588741	1.113715	0.776875
H	-0.089841	1.186679	1.792687
H	-0.175536	2.129886	0.289462
N	-0.429537	-1.197878	0.646551
H	-0.427524	-1.091176	1.652886
H	0.144193	-1.988499	0.385106
C	-0.374253	-1.270927	-2.200264
H	-0.898425	-2.08546	-1.696208
H	0.690501	-1.507712	-2.296142
H	-0.797671	-1.168863	-3.201977
C	-0.17595	1.182792	-2.16125
N	0.137561	2.121127	-2.798354
H	-3.245574	0.0	0.0
