18

C	0.0	0.0	0.0
C	-0.282737	-0.065707	-1.550858
Cl	1.805014	0.0	0.0
H	0.479448	-0.755467	-1.939987
C	-0.466634	1.284294	0.649707
H	-1.558531	1.302995	0.525923
H	-0.221966	1.235709	1.712766
H	0.007062	2.162321	0.207148
N	-0.537836	-1.103324	0.727021
H	-1.568945	-0.91376	0.67779
H	-0.379718	-1.96515	0.211951
C	-0.094098	1.263563	-2.287558
H	-0.885158	1.968754	-2.027636
H	-0.114619	1.100237	-3.368391
H	0.87496	1.696852	-2.027641
C	-1.531202	-0.731064	-1.959866
N	-2.243651	-1.427097	-2.59048
H	-3.002888	0.0	0.0
