13
Coordinates from ORCA-job run
  C   -0.30869261149662     -0.13382262847153      0.42132964348323
  C   0.92118864477889     -0.74859566521714     -0.23173525611159
  Br  -0.50924109853562     -1.03823641333371      2.21343512671889
  H   1.77644962380852     -0.65785819927449      0.43677342831075
  H   0.73006489705321     -1.81373861754197     -0.39059114445575
  N   -0.04447338636609      1.32575899470988      0.79461559218677
  O   1.12223966346635      1.65289874275446      0.96193096865983
  O   -1.03288298457949      2.03502437295754      0.92257674024621
  N   -1.43274782158582     -0.16305204079687     -0.39468956954363
  H   -2.22001237985869      0.33250287816607      0.00214301498458
  H   -1.68406986352310     -1.09624352664766     -0.68978358118372
  C   1.21658948964998     -0.10157632998879     -1.50936184050435
  N   1.46658782718847      0.40693843268422     -2.53664312279121
