13
Coordinates from ORCA-job run
  C   -0.16776430457326     -0.04888559482380      0.51128212737232
  C   0.89001020999206      0.09289336073633     -0.60383808002336
  Br  0.56647946723004     -1.12738163025836      1.94563224045184
  H   0.52734067791667      0.84359814450910     -1.31692042638867
  H   1.83719263912151      0.44209161787572     -0.18799457742860
  N   -0.35326562529972      1.39398057319595      1.01512019418860
  O   -1.41432532710320      1.93605114567841      0.72927128796483
  O   0.60671132119776      1.91075789217937      1.56866878955709
  N   -1.43863005492652     -0.56112993985880      0.16149514750247
  H   -1.37442836111807     -1.52064745062167     -0.15223804730211
  H   -1.90530429725745      0.02157275331738     -0.52174048696920
  C   1.06326667376263     -1.17644500461144     -1.29786591052967
  N   1.16071698105756     -2.20645586731818     -1.85187225839555
