13
Coordinates from ORCA-job run
  C   -0.13014398396471      0.02879510048825      0.38726897168476
  C   0.88325970702529      0.11669939130244     -0.74868507583861
  Br  0.73410983246393     -0.95046376282339      1.91364507717895
  H   0.49445162598279      0.81948702749552     -1.49149409262720
  H   1.83541181547044      0.49491191884370     -0.37924549758930
  N   -0.37963614179541      1.42369023354904      0.95758680519218
  O   0.47055038913794      2.27729598580328      0.73933427310910
  O   -1.40878304935534      1.56297645819474      1.60362996258005
  N   -1.36135337063674     -0.47402504348042     -0.03221672550488
  H   -1.28373628889906     -1.40067856745092     -0.43222402135129
  H   -2.05435339932196     -0.45012122104819      0.70491320634027
  C   1.05299416808249     -1.19482218769151     -1.36476849029698
  N   1.14722869581034     -2.25474533318254     -1.85974439287703
