13
Coordinates from ORCA-job run
  C   -0.23548961759725     -0.27831375516305      0.38489594595418
  C   0.44926306437893     -0.50760989172169     -0.95855843878421
  Br  0.57676246641766     -1.37281444591548      1.74983651046275
  H   -0.06336315905436      0.07837455256346     -1.72499392773930
  H   0.33889539355891     -1.56724697979608     -1.19736227039590
  N   -0.04710302708625      1.21847336309751      0.78234016066948
  O   -0.03554524876353      1.52017295396139      1.96552091063996
  O   -0.07006613933792      1.99544355456708     -0.17019745579652
  N   -1.61606425034387     -0.58704952955532      0.28562221910635
  H   -2.07051061108034      0.00643163123077     -0.40024425849642
  H   -2.08447623176161     -0.51441442122088      1.18067870119951
  C   1.86099620191908     -0.14077962606734     -0.94752347186835
  N   2.99770115875055      0.14933259401963     -0.95001462495152
