13
Coordinates from ORCA-job run
  C   -0.30619184417494     -0.14206316251696      0.42040132401743
  C   0.86786709694415     -0.78234702145895     -0.30625907449276
  Br  -0.52253076397398     -1.15912224956608      2.14866826401106
  H   1.74311369614857     -0.78640237711149      0.34226449685227
  H   0.60904493470566     -1.82184949288803     -0.52723365532469
  N   0.05451719231724      1.26860944752204      0.88800455629104
  O   -0.88761731886373      2.01550133531114      1.11451258765631
  O   1.24357432842527      1.52253426252908      1.02263936960966
  N   -1.44780490694686     -0.04392870872857     -0.36567810668840
  H   -1.75865500015563     -0.93516449808729     -0.72617573228200
  H   -2.19675190470145      0.46106979668551      0.08949939987964
  C   1.17153006254674     -0.07373165710568     -1.54878839981606
  N   1.42790442772896      0.47789432541530     -2.55185502971350
