13
Coordinates from ORCA-job run
  C   -0.26890954425724     -0.10131670377711      0.34801701746971
  C   0.42331550862992     -0.47186039068609     -0.95733063928399
  Br  0.64483524951935     -1.03078362775307      1.85869134616331
  H   0.16337987767839     -1.51106964111113     -1.18146659164344
  H   0.00135201190566      0.15915992612675     -1.74385831599472
  N   -0.11142014172879      1.38763473187535      0.65158869140482
  O   -0.81549252164221      1.82223967049033      1.55282639805937
  O   0.68121508779961      2.02127948107745     -0.03299150380099
  N   -1.65188016921218     -0.33005055562100      0.26117565736150
  H   -2.12867078816859     -0.00085137877314      1.09246109797151
  H   -1.86250094937704     -1.30649522183397      0.10094620029813
  C   1.87662102801790     -0.34907135411893     -0.95101544266724
  N   3.04715535083523     -0.28981493589544     -0.99904391533796
