13
Coordinates from ORCA-job run
  C   -0.29484012037956     -0.13372733404304      0.43146674409444
  C   0.88922643175028     -0.76700442173528     -0.28525922663832
  Br  -0.44813506808501     -1.07543721875074      2.20821628158716
  H   0.66190982770919     -1.82309178831051     -0.45654616583857
  H   1.77324352749449     -0.71377259959511      0.34910477761562
  N   0.02376992635905      1.30894756391358      0.82633366046768
  O   -0.94041442114349      2.03128817583908      1.03939691150235
  O   1.20511186099304      1.61145847632266      0.92135554323930
  N   -1.45142947249009     -0.11100266810068     -0.33860537964457
  H   -1.73799653713071     -1.02837136211695     -0.65052756982509
  H   -2.20938170488118      0.39037373680306      0.10567639502146
  C   1.15191257712204     -0.10370021975690     -1.56158846105087
  N   1.37702317268198      0.41403965953083     -2.59002351053058
