13
Coordinates from ORCA-job run
  C   -0.11712821856783      0.02129604754696      0.53219296370024
  C   0.83787463030653      0.05655330692456     -0.67910906646311
  Br  0.76348109663281     -0.82795645024613      2.02052944690422
  H   0.36070546531242      0.65455777385977     -1.46278522238330
  H   1.78532762864788      0.53038576178495     -0.40717630698544
  N   -0.38840566072039      1.50809372032680      0.83702453670206
  O   0.18446451497491      2.06171153881871      1.76016480439488
  O   -1.15920206802603      2.02642190133496      0.03338419991904
  N   -1.39249063837136     -0.58071699740783      0.33932611792841
  H   -1.31230471392783     -1.58539857727885      0.25364335002097
  H   -1.85606681986348     -0.18664244151120     -0.47057305205138
  C   1.07101185100609     -1.29227026028514     -1.17922064645586
  N   1.22073293259629     -2.38603532386758     -1.57740112523074
