13
Coordinates from ORCA-job run
  C   -0.16456352621946      0.01437289191047      0.51455613113820
  C   0.88556258029189      0.02730855040918     -0.61655024074723
  Br  0.59225320772002     -0.86107839674404      2.07012254338812
  H   0.50875043789138      0.67567250524399     -1.41729286255579
  H   1.82940335609667      0.44010289949916     -0.25482033410193
  N   -0.36889252207373      1.50742131329168      0.83081759440394
  O   -1.43859999844349      1.99374947000337      0.48353721710984
  O   0.58545861702651      2.10404094653505      1.30856840798979
  N   -1.42954144113166     -0.55591121137371      0.24165849410896
  H   -1.35297140195808     -1.54679950207088      0.05314092689887
  H   -1.90767732460801     -0.07212573125166     -0.50762764472237
  C   1.07462599124859     -1.31781736820691     -1.14362124619816
  N   1.18519202415937     -2.40893636724568     -1.56148898671223
