13
Coordinates from ORCA-job run
  C   -0.27803331448188     -0.18447429476583      0.57618074775338
  C   0.87793794966385     -0.71782013933941     -0.29111009833312
  Br  -0.24119329785434     -1.15673324543716      2.25946818039120
  H   1.83059128752226     -0.57603921946613      0.22261305965018
  H   0.72622960019797     -1.78821203623888     -0.45226446003970
  N   0.07386059746625      1.28920254421337      0.86275449871720
  O   -0.69864420619981      2.13540762457304      0.43203009800913
  O   1.13491423731747      1.48823521630808      1.43753172091580
  N   -1.58665067628790     -0.22765558575566      0.04623396583136
  H   -1.69174679537330      0.38205892136224     -0.75531535201713
  H   -1.87075387478736     -1.17428824498698     -0.16588790643530
  C   0.88343048777868     -0.02338032430232     -1.57668821664709
  N   0.83905800503812      0.55469878383564     -2.59754623779590
