13
Coordinates from ORCA-job run
  C   -0.17901176093133     -0.33876909157052      0.49407963911033
  C   0.87594433762366     -0.68831346500365     -0.55078394770742
  Br  0.05129323749791     -1.48402046296147      2.04971625602513
  H   0.72393266285987     -1.72848480868693     -0.84609353717868
  H   1.87216699040684     -0.57652956440346     -0.12501261641873
  N   0.14175626496418      1.09872138449767      1.03016403731280
  O   1.32091706662179      1.40780988156665      1.13747403330382
  O   -0.82740158722131      1.79206551340110      1.31124920113516
  N   -1.48432043802547     -0.46238180399963      0.00004573356770
  H   -1.61081095544204      0.08743448793955     -0.84325355802630
  H   -2.17219024675029     -0.18776463342414      0.68963874402667
  C   0.73023558095123      0.18475239244794     -1.71426611952635
  N   0.55848884744497      0.89648017019690     -2.63195786562413
