13
Coordinates from ORCA-job run
  C   -0.28428997991088     -0.17196870838921      0.46894465626374
  C   0.42094640486405     -0.51760553155570     -0.85350915988017
  Br  0.42645198414620     -1.25772505692704      1.89004929636519
  H   -0.04159591896774      0.08209222369407     -1.64309479183132
  H   0.24348079698182     -1.57406228947017     -1.06962710368486
  N   0.00438899910408      1.31937708817961      0.72128919229834
  O   -0.51740397847257      2.04090743127441     -0.12604167656246
  O   0.69331094365569      1.67332938881965      1.66118827266074
  N   -1.70823549035356     -0.28380486041565      0.46094252284567
  H   -2.09925763380071      0.21164936987398     -0.33167593261320
  H   -2.00156051107782     -1.25123142508415      0.46377592432813
  C   1.85584447502112     -0.25113109110939     -0.82835400802025
  N   3.00691990881032     -0.02182653889039     -0.81388719216956
