14
Coordinates from ORCA-job run
  C   0.56400151730533      0.87506182481339     -0.58789826297919
  C   -0.16393701910781     -0.02607128723792      0.40841169355108
  F   0.02113718811800      2.14213838281863     -0.47325286405209
  H   0.02992301807820      0.32555448852593      1.42288762779308
  H   0.40960188835275      0.52510782438588     -1.60955758886646
  C   2.00281442593556      0.93904657562266     -0.29961000811060
  N   3.14875187962131      0.98451440277366     -0.04994664334217
  N   0.43077229559696     -1.39747739590908      0.33072318481452
  O   0.71211492661317     -1.81253057863890     -0.79352425045036
  O   0.54539923777308     -2.01818898457541      1.38205584404707
  C   -1.65085470518241     -0.11866829078680      0.11874578723475
  H   -2.13476394256118     -0.76256783768227      0.85482067084387
  H   -1.81733342105409     -0.52913058288325     -0.87932899389801
  H   -2.09662728948885      0.87421145877348      0.17547380341453
