14
Coordinates from ORCA-job run
  C   1.08726386702962      0.48533799802917     -0.20243094812270
  C   -0.18649785575268     -0.04512120113263      0.44671152764296
  F   1.45150060316314     -0.35337097242264     -1.23757226357145
  H   -0.43847707501462      0.61085459575752      1.28559616430478
  H   1.90233084370401      0.49515358980585      0.52419378149248
  C   0.86528141277566      1.84003186346591     -0.72334659036397
  N   0.67260444682385      2.92796691735576     -1.11921565706725
  N   0.19323344024930     -1.35768309751696      1.09983595995244
  O   -0.43364216338843     -2.36424531420329      0.79145319300216
  O   1.11368519067383     -1.30125850283753      1.91135101775813
  C   -1.34036770816471     -0.20814574578989     -0.51603968969969
  H   -1.60788468750861      0.76720483587497     -0.92724966562398
  H   -2.20857200358489     -0.61972003012618     -0.00385909581930
  H   -1.07045831100548     -0.87800493626006     -1.33042773388460
