14
Coordinates from ORCA-job run
  C   1.02466402332364      0.59211723202639     -0.24281887711023
  C   -0.12174369771662     -0.13510093494535      0.45236028028165
  F   1.28977093306112     -0.02856868171485     -1.44758702101266
  H   -0.28953230589854      0.34340910671333      1.42198707960206
  H   1.92768865270627      0.53797804868303      0.36867868247494
  C   0.66432662231563      1.99521817589047     -0.48174113732085
  N   0.36239868602111      3.11688996318235     -0.64800921220534
  N   0.40905458819024     -1.51071811151008      0.79994877098629
  O   1.42630505832190     -1.52977964718413      1.48821765391247
  O   -0.20144850264133     -2.49086502696101      0.39038177414281
  C   -1.38571086450620     -0.21177950384880     -0.37306004883537
  H   -1.19453481558594     -0.70641541423330     -1.32376759744054
  H   -1.75546234387726      0.79806669796713     -0.56179485138167
  H   -2.15477603371403     -0.77045190406519      0.15820450390643
