14
Coordinates from ORCA-job run
  C   0.57596014192625      0.91210139724699     -0.51552182657666
  C   -0.16684932373478     -0.05684095415696      0.40308869155994
  F   0.03938146024607      2.17054251317316     -0.31124675777294
  H   0.02292282752852      0.21231711607084      1.44321155366285
  H   0.43015353216684      0.64079658889880     -1.56204724920965
  C   2.01208008367218      0.94487119948949     -0.20863645101815
  N   3.15505732850857      0.96362721673952      0.05739420681598
  N   0.41660696283833     -1.42361904329048      0.22276318981390
  O   0.70740788595242     -1.75119682727367     -0.92754108788586
  O   0.51354245237328     -2.12661603241891      1.22275765127833
  C   -1.65248351939140     -0.11291332724740      0.09811480857606
  H   -2.09052465577352      0.87574062659049      0.23368888814297
  H   -2.14601949261345     -0.81100624647626      0.77616233725862
  H   -1.81623568369929     -0.43880422734561     -0.93118795464539
