14
Coordinates from ORCA-job run
  C   0.63407120545295      1.07923701496523      0.23448523522329
  C   -0.35441613389478     -0.03872156644408      0.52915584905354
  F   1.54133123057781      1.16505576022624      1.27035955841356
  H   -0.88129318070315      0.21265727913445      1.45091947227694
  H   0.07549736876256      2.02110970363124      0.20240148806052
  C   1.34685974445854      0.93251265917638     -1.04191315011505
  N   1.87508666315067      0.89728391635187     -2.08919105216778
  N   0.39551348325413     -1.29807568811118      0.85212357666905
  O   1.23635178174422     -1.66654562632282      0.03781519842314
  O   0.08149692527827     -1.87738187937070      1.88774969167974
  C   -1.30654849808000     -0.30773286800462     -0.62127254965161
  H   -0.75636455493212     -0.63664910406822     -1.50381219487567
  H   -1.86481946199151      0.59785902116905     -0.86955295517633
  H   -2.02176657307761     -1.08160862233283     -0.33826816781334
