14
Coordinates from ORCA-job run
  C   0.64347217708424      1.07330000803248      0.23646226399554
  C   -0.34410294053283     -0.04425211704816      0.53571494303869
  F   1.57210046923019      1.14001121352607      1.25470022207030
  H   -0.85071088325431      0.19683525642958      1.47148796482518
  H   0.08903863369406      2.01813899672864      0.22953106150118
  C   1.32912769714819      0.94175186886520     -1.05627344523832
  N   1.83596858971762      0.91868167037772     -2.11439495406902
  N   0.40640651738281     -1.31115955915138      0.82646475575733
  O   0.10915195516878     -1.90410819946048      1.85929349479654
  O   1.23016128834252     -1.67124804073019     -0.00879986491577
  C   -1.32036883974515     -0.29377645958030     -0.59876046431608
  H   -0.78899717266406     -0.61353303503183     -1.49612277361987
  H   -2.03339389360866     -1.06815720025479     -0.31167563561225
  H   -1.87885359796340      0.61751559729744     -0.82462756821347
