14
Coordinates from ORCA-job run
  C   1.01862472971713      0.63270696276355     -0.14414950930917
  C   -0.21786468349809     -0.04983191086456      0.43108806340998
  F   1.59128176817898     -0.19108743894879     -1.09267887732128
  H   -0.63890194941448      0.60220684097213      1.20238068034566
  H   1.75476177333388      0.79988781776952      0.64489510984420
  C   0.64913494152302      1.91273206228229     -0.76184642236868
  N   0.33452842666814      2.94078461028412     -1.23231134199313
  N   0.28902954993261     -1.25544393099172      1.19612763766214
  O   1.11653897453232     -1.01954734218351      2.07281885838567
  O   -0.15531402825568     -2.35950558504251      0.90454323093776
  C   -1.24228575211561     -0.43562368033327     -0.61134196752746
  H   -1.61064609542406      0.46489760184717     -1.10674026641851
  H   -2.08459056865396     -0.94637914892341     -0.14733405878016
  H   -0.80329708652419     -1.09879685863100     -1.35445113686703
