14

C	-0.442103	-0.023422	-1.471252
C	0.0	0.0	0.0
Cl	0.208784	1.383589	-2.36161
H	1.095726	0.0	0.0
H	-0.019902	-0.908771	-1.952691
C	-1.899847	-0.038077	-1.611712
N	-3.071271	-0.049094	-1.707029
C	-0.471934	-1.237036	0.618752
N	-0.888842	-2.217565	1.115214
C	-0.497961	1.217839	0.775329
H	-1.590138	1.268304	0.799571
H	-0.12124	1.162889	1.797766
H	-0.099792	2.125774	0.321928
Br	3.442419	0.0	0.0
