14

C	-0.435389	0.002204	-1.474153
C	0.0	0.0	0.0
Cl	0.18661	1.443173	-2.328345
H	1.095749	0.0	0.0
H	0.010658	-0.861452	-1.972447
C	-1.890939	-0.044797	-1.623011
N	-3.060639	-0.087856	-1.724108
C	-0.464704	-1.255969	0.587085
N	-0.873601	-2.255015	1.051566
C	-0.509869	1.196386	0.798473
H	-0.108679	2.116519	0.373252
H	-1.602571	1.24356	0.809355
H	-0.147483	1.117203	1.824534
Br	3.441088	0.0	0.0
