14

C	-0.440029	-0.003285	-1.472332
C	0.0	0.0	0.0
Cl	0.220292	1.410544	-2.343873
H	1.09583	0.0	0.0
H	-0.021978	-0.884946	-1.96368
C	-1.897347	-0.007598	-1.614331
N	-3.069256	-0.013366	-1.702296
C	-0.472663	-1.24516	0.602069
N	-0.883953	-2.23237	1.089809
C	-0.49876	1.208158	0.789687
H	-0.103657	2.122249	0.345864
H	-0.120094	1.142573	1.810727
H	-1.591037	1.255782	0.816589
Br	3.443706	0.0	0.0
