13

C	-0.533756	-0.019071	-1.424235
C	0.0	0.0	0.0
Cl	0.171995	1.287714	-2.384273
H	1.091094	0.0	0.0
H	-0.331042	-0.91017	0.509384
N	-0.144253	-1.345565	-2.114361
O	0.733765	-2.012496	-1.592502
O	-0.757248	-1.597683	-3.144195
C	-1.993493	0.067511	-1.476259
N	-3.166523	0.148288	-1.463845
C	-0.506636	1.167518	0.709462
N	-0.930523	2.098609	1.285473
Br	3.441917	0.0	0.0
