13

C	-0.470851	-0.013875	-1.441472
C	0.0	0.0	0.0
Cl	0.150329	-1.458231	-2.258042
H	1.093186	0.0	0.0
H	-0.337198	-0.919059	0.482852
N	-2.015269	-0.129001	-1.500287
O	-2.527331	-0.854847	-0.659946
O	-2.590236	0.473168	-2.397916
C	-0.087504	1.181757	-2.181332
N	0.22065	2.147602	-2.775635
C	-0.541903	1.15646	0.700331
N	-1.007132	2.082948	1.251923
Br	3.389169	0.0	0.0
