13

C	-0.531141	-0.064867	-1.422817
C	0.0	0.0	0.0
Cl	0.24491	1.185319	-2.403539
H	1.091259	0.0	0.0
H	-0.303589	0.969708	0.408175
N	-0.206164	-1.42239	-2.080705
O	-0.787529	-1.647221	-3.135259
O	0.605183	-2.130946	-1.512254
C	-1.982692	0.094333	-1.495036
N	-3.146139	0.259144	-1.493611
C	-0.569582	-1.056156	0.826002
N	-1.069017	-1.883195	1.493656
Br	3.421889	0.0	0.0
