13

C	-0.465815	-0.016733	-1.442557
C	0.0	0.0	0.0
Cl	0.159623	-1.459912	-2.255769
H	1.093192	0.0	0.0
H	-0.339497	-0.9167	0.485653
N	-2.009268	-0.121931	-1.509233
O	-2.53799	-0.802224	-0.642696
O	-2.569774	0.437901	-2.441875
C	-0.079549	1.179719	-2.180482
N	0.231473	2.14586	-2.77339
C	-0.538031	1.160583	0.694282
N	-0.989155	2.094565	1.244518
Br	3.382929	0.0	0.0
