13

C	-0.509423	-0.032143	-1.435221
C	0.0	0.0	0.0
Cl	-2.288569	-0.132314	-1.496782
H	1.092985	0.0	0.0
H	-0.310417	-0.93602	0.474626
N	-0.08406	1.263079	-2.159719
O	-0.709784	2.270678	-1.86941
O	0.863718	1.164937	-2.924503
C	0.038792	-1.171058	-2.162665
N	0.425362	-2.129944	-2.721061
C	-0.53173	1.115897	0.768921
N	-0.95675	1.984068	1.435293
Br	3.37332	0.0	0.0
