16
Coordinates from ORCA-job run
  C   1.00640606004911      0.11579167518220     -0.19485306096222
  C   -0.37714169349770     -0.53317254676748     -0.35002763685873
  H   1.75977746155335     -0.68399558280589     -0.23044752398531
  H   -0.42529383035490     -1.05486442055209     -1.31102452819425
  N   1.07632016718466      0.93017250402474      1.01434318222509
  H   1.21720633062389      0.31087315907201      1.80277333653257
  H   1.86205494322487      1.56643339981379      0.96346687385014
  C   1.21857834018645      0.96843094353285     -1.37077627837190
  N   1.38584752561019      1.64798969813860     -2.31309848768693
  C   -1.53636145014646      0.43686782730626     -0.21132616144863
  H   -2.47962052879967     -0.08767856116381     -0.35912619599508
  H   -1.51919498590425      0.90695718870824      0.77068133077262
  H   -1.44588350871975      1.21814345619644     -0.96820633933768
  N   -0.53590044360206     -1.63539885994760      0.66929404755477
  O   -1.56226983449735     -2.30020764114656      0.58716928372577
  O   0.35547544708962     -1.80534223959171      1.50215815817978
