16
Coordinates from ORCA-job run
  C   1.01598806173515      0.16102527198501     -0.08045585898918
  C   -0.32095026992252     -0.50803093248946     -0.43342773427866
  H   1.79772545078967     -0.61111076936319     -0.11234019802883
  H   -0.25463500928656     -0.93896975000549     -1.43736477447232
  N   0.93653887504182      0.85973037277743      1.19834357798170
  H   1.69852094750127      1.52045378177796      1.28514796232811
  H   1.02215546172594      0.17351742993351      1.93777651216173
  C   1.31133637220131      1.12558405152827     -1.14689593872692
  N   1.54519589029925      1.89484897610119     -2.00208358476630
  C   -1.52300007647108      0.41238503079400     -0.32587313817129
  H   -1.62044341861845      0.78771193451542      0.69153179232557
  H   -2.42700838468298     -0.12121962120574     -0.61657701502845
  H   -1.38657983815898      1.26413044245002     -0.99459734749892
  N   -0.53857341111510     -1.70479967894667      0.46094611762397
  O   -1.52815491856253     -2.38563616709606      0.21765570479623
  O   0.27388426752378     -1.92862037275620      1.35921392274357
