16
Coordinates from ORCA-job run
  C   1.01161296092816      0.11835430921521     -0.04980423947844
  C   -0.31361083666544     -0.52937144831471     -0.47607568377041
  H   1.78060097599911     -0.65517147520281     -0.11509685285748
  H   -0.19686001600967     -0.94331916728521     -1.48235542512956
  N   0.92566544569075      0.55328562087188      1.33483607214497
  H   0.46997393118284      1.45423344680133      1.40838535301736
  H   1.85027746164552      0.63882213909179      1.73621242438699
  C   1.35273584978840      1.18771801225558     -1.00696340000294
  N   1.60347081218665      2.07377673163536     -1.73690477516618
  C   -1.51078650187326      0.38873990265231     -0.38600045584066
  H   -1.35486731158267      1.25373422899080     -1.03497199968076
  H   -1.66856151302484      0.72047207253561      0.63972771271125
  H   -2.41491313239799     -0.12626084836746     -0.70906069327043
  N   -0.47833635974498     -1.74062882945489      0.41178030785029
  O   0.44189419134488     -2.55369623794327      0.38103112414182
  O   -1.49829595746745     -1.84068845748152      1.08326053094417
