16
Coordinates from ORCA-job run
  C   0.99880535746066      0.09076676745682     -0.18748709594252
  C   -0.38381855835427     -0.53810603928555     -0.40830291862453
  H   1.73746309217158     -0.70289918419370     -0.32388750431603
  H   -0.41184499302885     -0.99011197936208     -1.40453101779651
  N   1.10751199582577      0.57740313671384      1.17827604684186
  H   0.67548510372403      1.48768649960254      1.27734525503033
  H   2.07964263220321      0.66457538534044      1.44532657592495
  C   1.23056049059834      1.11621826223283     -1.22262458067557
  N   1.39846821013913      1.97005350794520     -2.01220592931088
  C   -1.54009804743394      0.41204571255707     -0.19630856643989
  H   -1.45320304335570      1.25032962195053     -0.89153826974688
  H   -1.55624721893651      0.78234996511001      0.82814307222190
  H   -2.48877608651119     -0.09113025314095     -0.38023175422792
  N   -0.45331015386043     -1.71308959106098      0.53875964081301
  O   0.43588770575384     -2.55150182123703      0.41439551415191
  O   -1.37552648639569     -1.76358999062898      1.34387153209675
