16
Coordinates from ORCA-job run
  C   1.07484214288441      0.24983093146554     -0.06954767702825
  C   -0.22732613094750     -0.46055621977888     -0.50182009958016
  H   1.90417531167469     -0.43845151103644     -0.24853095574727
  H   -0.12156446941644     -0.79157334936540     -1.54166396598022
  N   1.16347339455488      0.67654897515448      1.31252253192996
  H   0.40039446167735      1.28708157880578      1.57256403009248
  H   1.18856422458499     -0.12715964524020      1.92573194779545
  C   1.25748569486788      1.40536450792123     -0.95907452894978
  N   1.35838954650571      2.32241366596845     -1.68487674685139
  C   -1.48272461900670      0.37105901306709     -0.33316658959006
  H   -1.66370814303899      0.59745938734797      0.71902970072121
  H   -1.37718865355204      1.30573488042362     -0.88707218856185
  H   -2.35229416375455     -0.16216700581826     -0.71135916147944
  N   -0.34636414928719     -1.74982413665522      0.28469936802387
  O   -1.47012617091327     -2.21700552645319      0.43597330186292
  O   0.69497172316675     -2.26775554580657      0.68659103334253
