16

C	-0.415337	-0.030367	-1.470173
C	0.0	0.0	0.0
Br	-2.549664	-0.087743	-1.517814
H	1.097651	0.0	0.0
N	0.078411	1.042705	-2.189198
H	-0.01684	1.93394	-1.721691
H	-0.19588	1.072565	-3.159457
C	-0.096054	-1.299907	-2.118257
N	0.144616	-2.31956	-2.651397
C	-0.453868	-1.200023	0.825695
H	0.00859	-1.131369	1.81185
H	-1.538794	-1.241323	0.931577
H	-0.095249	-2.118824	0.357399
C	-0.445119	1.260023	0.586571
N	-0.798333	2.284578	1.041706
Cl	3.24342	0.0	0.0
