16

C	-0.263225	0.064245	-1.512508
C	0.0	0.0	0.0
Br	-2.180756	0.465909	-1.90791
H	1.099942	0.0	0.0
N	0.542789	1.110568	-2.056878
H	0.556057	1.077075	-3.06955
H	1.494426	1.013363	-1.690317
C	-0.049116	-1.25735	-2.128661
N	0.162459	-2.29977	-2.631246
C	-0.544562	-1.23263	0.707928
H	-0.279511	-1.181786	1.765251
H	-1.632358	-1.296061	0.61848
H	-0.091166	-2.13311	0.290598
C	-0.456971	1.229931	0.637913
N	-0.821758	2.183169	1.219877
Cl	3.26059	0.0	0.0
