16

C	-0.255546	0.02505	-1.522228
C	0.0	0.0	0.0
Br	-2.19183	0.288816	-1.901197
H	1.09937	0.0	0.0
N	0.479048	1.052791	-2.21849
H	0.222849	1.952041	-1.820336
H	1.469117	0.897805	-2.004125
C	0.081222	-1.280405	-2.102408
N	0.340775	-2.330059	-2.563016
C	-0.548115	-1.200875	0.756948
H	-0.134846	-2.119913	0.337761
H	-1.639404	-1.238491	0.712339
H	-0.235983	-1.13907	1.801012
C	-0.44698	1.262054	0.577362
N	-0.81981	2.273832	1.045116
Cl	3.254514	0.0	0.0
