16

C	-0.543044	0.020968	-1.451687
C	0.0	0.0	0.0
Br	0.162789	-1.541479	-2.412899
H	1.095578	0.0	0.0
N	-1.988231	-0.008682	-1.596638
H	-2.373603	0.807175	-1.12798
H	-2.347482	-0.842973	-1.14701
C	-0.055792	1.21198	-2.15642
N	0.256416	2.195924	-2.718128
C	-0.446092	-1.21754	0.813221
H	-0.008603	-1.139767	1.809923
H	-1.533038	-1.281745	0.919293
H	-0.063931	-2.128824	0.354059
C	-0.497295	1.217899	0.639228
N	-0.977075	2.167209	1.140357
Cl	3.272162	0.0	0.0
