15
Coordinates from ORCA-job run
  C   0.81072148279206      0.42302404544093      0.79111409587612
  C   -0.60810391396229      0.01912055772190      0.39471651434826
  Br  1.41541647481905     -0.55731027905420      2.32375318876579
  H   -1.20790323572862      0.02345570947395      1.30790018930222
  H   0.85856150306606      1.48478743844149      1.02397800710663
  N   1.70750117237696      0.21308799764229     -0.40990709586900
  O   1.46713666440414      1.00701469476576     -1.31692478438610
  O   2.51289233064677     -0.70376000554050     -0.43175399677003
  C   -0.70101631527043     -1.30366347647418     -0.33068607054345
  H   -1.74432624366942     -1.56867521238984     -0.49678273689948
  H   -0.20949155926241     -1.25546563464089     -1.30207279919132
  H   -0.23136178530855     -2.08281950751245      0.27191299615346
  N   -1.20329052892296      1.15338875117092     -0.42209232303784
  O   -1.68017844937876      0.89037410523067     -1.51900464665781
  O   -1.18755759660161      2.25644081572416      0.11484946180255
