15
Coordinates from ORCA-job run
  C   1.00761515410714     -0.22702316763081      0.21709723917870
  C   -0.47882150858684      0.10252441221677      0.17642768098051
  Br  1.54538124023997     -1.42921034890923     -1.17342815050106
  H   -0.62838218481832      0.94887515204722      0.85236535244191
  H   1.23682856555334     -0.70113655856607      1.17211383792542
  N   1.84558426963133      1.05066001443731      0.23492972655367
  O   1.55294267354662      1.79105188104035      1.16801608664244
  O   2.71851630428036      1.22399923024365     -0.59488579681776
  C   -1.36230120989713     -1.06596061383805      0.55291208212691
  H   -1.23507854517928     -1.89820730404174     -0.13773274497524
  H   -2.40916643657514     -0.76548221514799      0.53760303904009
  H   -1.11126476727169     -1.39469861473806      1.56411924208913
  N   -0.81664339102330      0.64458413010718     -1.19025307983613
  O   -1.74034677187031      0.13150968133382     -1.81145362967647
  O   -0.12486339213677      1.58651432144566     -1.56783088517211
