15
Coordinates from ORCA-job run
  C   1.03859685420574     -0.12860221640397      0.13595788043393
  C   -0.47839248163453     -0.01143915119238      0.20461778084833
  Br  1.65741164154527     -0.87068598012942     -1.51769891427301
  H   -0.70287215972282      0.61665863968496      1.07106892605467
  H   1.37774130052810     -0.78290578140176      0.93987514763568
  N   1.70058494555434      1.21142381931276      0.45378938879344
  O   1.36088040292425      1.65563663363946      1.54550016461554
  O   2.49964137454854      1.70103646524214     -0.32242178907732
  C   -1.17945405510463     -1.34840698023876      0.29752732304192
  H   -0.97659309055937     -1.96460328510889     -0.57712930187995
  H   -2.25639254277373     -1.20312718830154      0.37146368728909
  H   -0.83816516680557     -1.87106367285351      1.19417284623225
  N   -0.95525265317644      0.79189350056957     -0.97990101392228
  O   -0.41265106261942      1.88370008671877     -1.12768061574873
  O   -1.83608330690973      0.32048511046256     -1.69014151004354
