15
Coordinates from ORCA-job run
  C   0.86685759685544      0.68901433941185      0.01946302736340
  C   -0.46530632014993      0.03970744835029      0.35096579328605
  Br  1.24167796987422      2.19501508649460      1.15465228928410
  H   -0.52334819571515     -0.16625254611263      1.41940331583696
  H   0.91342368856035      1.01925573110216     -1.01527418612443
  N   1.93172491542296     -0.35690653585632      0.19261167606382
  O   2.03368690675631     -0.87167664728380      1.29992179497897
  O   2.57459589035600     -0.64290672694049     -0.81390379011859
  C   -0.72759899604097     -1.20115514392567     -0.48853856035197
  H   -0.02959897032529     -1.99471958361241     -0.21879960868182
  H   -0.62780694890627     -0.97716522352873     -1.55182412691899
  H   -1.73926531712506     -1.56334306743966     -0.29587851410028
  N   -1.54370773585761      1.04081367036756      0.06052492317189
  O   -1.51868833478509      1.56928898101255     -1.04848951295408
  O   -2.38664614891992      1.22203021796072      0.93316547926497
