15
Coordinates from ORCA-job run
  C   0.80975370425576      0.65816437672828      0.37293046253151
  C   -0.50970637700468     -0.08758900245512      0.27187736958701
  Br  0.93160242461940      1.70189906252460      1.98271302248206
  H   -0.69600187919896     -0.63968975512039      1.19271664269602
  H   0.97229768886774      1.31679265848999     -0.47659687203207
  N   1.90670787645267     -0.36876033821686      0.34492375025505
  O   2.68201185288892     -0.30199157853618     -0.60526077002749
  O   1.90337393724100     -1.21438385344260      1.23168314604430
  C   -0.57580676976742     -0.98094971832619     -0.95701492133412
  H   0.12968478741946     -1.80734658397582     -0.86201095825504
  H   -0.34860605857035     -0.41351826011152     -1.86089443021875
  H   -1.57848898846782     -1.40340855434756     -1.04600593830455
  N   -1.60182402764556      0.93553123200938      0.17140151823259
  O   -1.46617202679132      1.80073883441315     -0.69049658824799
  O   -2.55882614429885      0.80651148036684      0.92803456659148
