16

C	-0.612257	-0.00799	-1.413421
C	0.0	0.0	0.0
Br	-0.006831	1.441399	-2.578461
H	1.092017	0.0	0.0
C	-0.179559	-1.24832	-2.082545
N	0.038754	-2.249307	-2.659971
N	-2.051635	0.085389	-1.289988
H	-2.344517	-0.703186	-0.718418
H	-2.478259	-0.004344	-2.205138
N	-0.48604	-1.183808	0.671817
H	0.313317	-1.668204	1.06321
H	-1.102977	-0.904841	1.426108
N	-0.460169	1.249335	0.719127
O	0.026257	2.311144	0.354414
O	-1.292452	1.126825	1.621609
Cl	3.245989	0.0	0.0
