16

C	-0.307497	-0.012857	-1.523002
C	0.0	0.0	0.0
Br	0.072008	-1.962873	-2.13786
H	1.089833	0.0	0.0
C	-1.716665	0.142567	-1.881592
N	-2.849115	0.274175	-2.170588
N	0.506837	0.935203	-2.135703
H	0.446721	0.94616	-3.144057
H	1.471491	0.87529	-1.801805
N	-0.54187	-1.000816	0.843127
H	0.05523	-1.814569	0.820062
H	-1.491764	-1.245809	0.597766
N	-0.495826	1.341225	0.487219
O	-1.694776	1.395396	0.769165
O	0.297991	2.270793	0.561184
Cl	3.290587	0.0	0.0
