16

C	-0.573931	0.030424	-1.430741
C	0.0	0.0	0.0
Br	-0.128797	1.640282	-2.450187
H	1.090052	0.0	0.0
C	0.032916	-1.087622	-2.174273
N	0.414612	-2.027709	-2.768766
N	-2.018194	-0.065586	-1.363187
H	-2.394644	-0.118093	-2.303482
H	-2.223921	-0.941141	-0.887352
N	-0.473191	-1.212683	0.617216
H	0.302039	-1.63926	1.109571
H	-1.205529	-0.986457	1.279621
N	-0.478844	1.218486	0.759852
O	-1.409648	1.070155	1.556485
O	0.090116	2.278821	0.536035
Cl	3.252021	0.0	0.0
