16

C	-0.484329	0.020477	-1.459293
C	0.0	0.0	0.0
Br	0.190955	-1.687749	-2.308477
H	1.090683	0.0	0.0
C	-1.942778	-0.098274	-1.55096
N	-3.112449	-0.196788	-1.615755
N	-0.022312	1.186155	-2.105264
H	-0.214996	1.168141	-3.098169
H	0.973828	1.306986	-1.935811
N	-0.51285	-1.098764	0.730258
H	-1.441884	-0.901405	1.080907
H	0.114174	-1.322487	1.490842
N	-0.441525	1.342063	0.598558
O	-1.548359	1.363778	1.147388
O	0.317126	2.297568	0.500213
Cl	3.28881	0.0	0.0
