16

C	-0.554478	-0.004833	-1.453115
C	0.0	0.0	0.0
Br	0.115678	1.52073	-2.476078
H	1.092113	0.0	0.0
C	-0.021051	-1.22272	-2.074034
N	0.398676	-2.204031	-2.564608
N	-1.996282	-0.033892	-1.571993
H	-2.373496	0.832677	-1.204756
H	-2.317626	-0.797532	-0.981788
N	-0.538809	-1.167987	0.655903
H	0.226973	-1.701153	1.046144
H	-1.179776	-0.892593	1.388147
N	-0.456532	1.258662	0.680556
O	0.2731	2.240266	0.635197
O	-1.571855	1.233617	1.220727
Cl	3.272112	0.0	0.0
