18

C	0.0	0.0	0.0
C	-0.379856	-0.203662	-1.49578
F	1.395584	0.0	0.0
H	0.245404	0.550806	-1.995144
C	-0.526439	1.291442	0.579376
H	-1.615789	1.235085	0.657005
H	-0.100528	1.457452	1.571366
H	-0.245883	2.121841	-0.074571
C	-0.405317	-1.150765	0.827295
N	-0.661698	-2.093815	1.478704
N	-1.746838	0.028591	-1.879063
H	-2.045116	0.974033	-1.675055
H	-2.412659	-0.552514	-1.373327
C	0.051883	-1.585484	-1.972136
H	-0.610469	-2.348647	-1.554346
H	-0.032972	-1.624928	-3.059035
H	1.078323	-1.814058	-1.678618
Br	-4.509168	0.0	0.0
