18

C	0.0	0.0	0.0
C	-0.356858	-0.012257	-1.519736
F	1.397939	0.0	0.0
H	0.280907	0.79573	-1.90626
C	-0.559913	1.191341	0.733253
H	-0.289343	2.106304	0.198569
H	-1.648938	1.09161	0.766006
H	-0.162029	1.236431	1.749053
C	-0.38288	-1.265875	0.655671
N	-0.580038	-2.310788	1.153701
N	-1.715446	0.271403	-1.902315
H	-2.391662	-0.325163	-1.430752
H	-1.993372	1.207725	-1.631822
C	0.085577	-1.324222	-2.158502
H	0.02201	-1.224109	-3.242917
H	-0.582761	-2.134842	-1.852833
H	1.106908	-1.58991	-1.876381
Br	-4.419861	0.0	0.0
