18

C	0.0	0.0	0.0
C	-0.403538	-0.250391	-1.459733
F	1.401635	0.0	0.0
H	0.065245	-1.213566	-1.721228
C	-0.529719	1.282601	0.593304
H	-0.282921	2.103515	-0.078801
H	-1.61416	1.215462	0.712189
H	-0.072939	1.445317	1.571899
C	-0.372361	-1.167022	0.827506
N	-0.591066	-2.106201	1.497044
N	0.137106	0.853414	-2.254517
H	1.126058	0.711	-2.414525
H	-0.331276	0.872018	-3.151535
C	-1.904276	-0.353544	-1.64428
H	-2.12593	-0.646987	-2.674913
H	-2.371227	-1.085057	-0.985492
H	-2.409403	0.590019	-1.441345
Br	-5.01426	0.0	0.0
