18

C	0.0	0.0	0.0
C	-0.373306	-0.283966	-1.486465
F	1.395622	0.0	0.0
H	0.28458	0.416433	-2.020754
C	-0.532894	1.318689	0.503614
H	-0.113033	1.543143	1.486526
H	-0.253478	2.113017	-0.194237
H	-1.621938	1.258308	0.578008
C	-0.399817	-1.103452	0.892385
N	-0.637475	-2.010009	1.599833
N	-1.725719	-0.024102	-1.904942
H	-2.421838	-0.52043	-1.350419
H	-1.96924	0.952101	-1.795468
C	0.015874	-1.70599	-1.872846
H	-0.678929	-2.419617	-1.421495
H	-0.055641	-1.80606	-2.95744
H	1.030105	-1.951236	-1.549523
Br	-4.471794	0.0	0.0
