18

C	0.0	0.0	0.0
C	-0.568344	0.132225	-1.42174
F	1.388456	0.0	0.0
H	-1.562846	0.5748	-1.291541
C	-0.466377	1.137097	0.891906
H	-0.207796	2.092535	0.429224
H	0.029017	1.067453	1.863054
H	-1.549737	1.07335	1.010669
C	-0.364531	-1.297006	0.61304
N	-0.542198	-2.344172	1.112432
N	-0.657363	-1.186909	-2.054648
H	-0.876286	-1.042599	-3.035819
H	-1.473432	-1.647841	-1.657866
C	0.315926	1.038721	-2.263961
H	1.267531	0.545863	-2.468199
H	-0.182734	1.254699	-3.213543
H	0.511494	1.991498	-1.768552
Br	-3.87619	0.0	0.0
