18

C	0.0	0.0	0.0
C	-0.470799	0.149905	-1.455569
F	1.39978	0.0	0.0
H	-1.562154	0.078218	-1.424636
C	-0.469295	1.092583	0.938282
H	-0.181654	0.856291	1.965754
H	0.008484	2.029608	0.650134
H	-1.555136	1.176367	0.871694
C	-0.356929	-1.344447	0.50945
N	-0.52948	-2.429336	0.923806
N	0.044411	-0.917167	-2.311449
H	1.014869	-1.093582	-2.077972
H	-0.476143	-1.767226	-2.13881
C	-0.061484	1.506245	-2.022324
H	-0.605379	2.321894	-1.543254
H	-0.294779	1.509934	-3.088435
H	1.01347	1.67387	-1.901584
Br	-3.933492	0.0	0.0
