16

C	0.0	0.0	0.0
C	-0.605411	0.164096	-1.418401
Br	1.957821	0.0	0.0
H	-1.523459	0.726595	-1.240415
N	-0.354664	1.216798	0.875325
O	-0.319319	1.043525	2.085687
O	-0.56873	2.268105	0.293302
C	-0.408098	-1.206875	0.702331
N	-0.617556	-2.221711	1.257487
N	-0.87962	-1.175182	-1.933376
H	-1.705419	-1.503342	-1.430559
H	-1.185166	-1.048676	-2.893472
N	0.265473	0.92736	-2.275708
H	-0.290199	1.474508	-2.918084
H	0.873858	0.302483	-2.792146
Cl	-3.433127	0.0	0.0
