16

C	0.0	0.0	0.0
C	-0.593893	0.265118	-1.385353
Br	1.960768	0.0	0.0
H	-1.649857	0.455781	-1.145812
N	-0.38742	1.111675	1.00249
O	-0.099227	0.893473	2.171785
O	-0.923585	2.111208	0.557288
C	-0.408431	-1.275251	0.575794
N	-0.6036	-2.323439	1.070937
N	-0.521317	-0.97661	-2.131224
H	-1.399262	-1.148065	-2.602059
H	0.241772	-0.974345	-2.795455
N	0.017387	1.441795	-1.976352
H	-0.701295	2.039213	-2.362435
H	0.664819	1.182439	-2.708958
Cl	-3.557365	0.0	0.0
