15

C	0.0	0.0	0.0
C	-0.686199	0.327771	-1.290716
F	1.337024	0.0	0.0
H	-1.763142	0.363061	-1.061968
H	-0.346545	1.328486	-1.566851
N	-0.412814	1.003404	1.074118
O	-0.085736	2.157147	0.807429
O	-0.97847	0.608673	2.082008
N	-0.361991	-1.392114	0.520877
O	-1.258327	-2.001427	-0.046735
O	0.32246	-1.791606	1.457561
N	-0.309258	-0.648271	-2.312264
H	-0.272992	-0.181898	-3.207041
H	-1.044776	-1.342367	-2.359682
Cl	-3.91475	0.0	0.0
