15

C	0.0	0.0	0.0
C	-0.640597	-0.349223	-1.333587
F	1.339827	0.0	0.0
H	-1.226934	-1.2581	-1.178458
H	0.198747	-0.57187	-1.999243
N	-0.387149	1.396923	0.48163
O	-1.376007	1.49275	1.187951
O	0.350744	2.289275	0.089618
N	-0.342594	-0.958767	1.147731
O	0.102704	-0.622719	2.239449
O	-0.915065	-2.007304	0.885529
N	-1.416229	0.769202	-1.846718
H	-2.343163	0.705379	-1.408325
H	-1.542497	0.635794	-2.842189
Cl	-3.974469	0.0	0.0
