13

C	0.0	0.0	0.0
C	-0.516762	-0.14886	-1.414859
F	1.359734	0.0	0.0
H	-1.619642	-0.157077	-1.351875
H	-0.190351	0.721002	-1.987458
N	-0.376141	1.371818	0.569825
O	-0.459581	1.448911	1.787503
O	-0.423738	2.295321	-0.23214
C	-0.443423	-1.053269	0.919377
N	-0.588578	-1.971704	1.637596
C	-0.00202	-1.371388	-2.016166
N	0.407455	-2.349834	-2.519679
Br	-3.525916	0.0	0.0
