13

C	0.0	0.0	0.0
C	-0.52316	-0.145658	-1.414478
F	1.345877	0.0	0.0
H	-1.624907	-0.178641	-1.355746
H	-0.222016	0.741899	-1.974438
N	-0.379633	1.370702	0.575208
O	-0.485608	1.441234	1.791182
O	-0.407986	2.300809	-0.219949
C	-0.452794	-1.043853	0.926004
N	-0.640486	-1.938176	1.66394
C	0.027248	-1.340927	-2.038782
N	0.469654	-2.294421	-2.561334
Br	-3.541493	0.0	0.0
