13

C	0.0	0.0	0.0
C	-0.513009	-0.247316	-1.402406
F	1.360041	0.0	0.0
H	-1.615573	-0.260172	-1.345505
H	-0.190519	0.585853	-2.029714
N	-0.375341	1.40791	0.472463
O	-0.421611	2.273879	-0.391314
O	-0.458791	1.569693	1.681605
C	-0.443749	-0.986926	0.989686
N	-0.584624	-1.858925	1.764607
C	0.017343	-1.500126	-1.923385
N	0.447701	-2.497768	-2.368306
Br	-3.514775	0.0	0.0
