18

C	-0.522236	0.011497	-1.425677
C	0.0	0.0	0.0
F	0.062554	-1.058668	-2.107183
H	1.095408	0.0	0.0
N	-1.924089	-0.026691	-1.480493
H	-2.236159	-0.203576	-2.426112
H	-2.217308	-0.759479	-0.842474
N	-0.076293	1.207262	-2.256604
O	-0.577822	1.272057	-3.379665
O	0.741486	1.989668	-1.792032
N	-0.512476	-1.275119	0.560139
H	0.113499	-2.007374	0.239281
H	-0.384925	-1.226897	1.565431
C	-0.526238	1.156471	0.832461
H	-1.615981	1.124666	0.905491
H	-0.094715	1.090049	1.835328
H	-0.21731	2.110709	0.410093
Cl	3.524046	0.0	0.0
