18

C	-0.304005	0.121211	-1.503578
C	0.0	0.0	0.0
F	-1.585351	0.57133	-1.754579
H	1.094664	0.0	0.0
N	0.633127	0.946818	-2.127234
H	1.568809	0.775536	-1.760316
H	0.625729	0.863684	-3.133802
N	-0.341787	-1.312302	-2.1157
O	0.721109	-1.751793	-2.539899
O	-1.404295	-1.927529	-2.082744
N	-0.482994	-1.198349	0.663216
H	-1.407615	-1.447971	0.338473
H	0.143274	-1.968445	0.472379
C	-0.512304	1.245683	0.707198
H	-1.604749	1.236523	0.763967
H	-0.107749	1.247212	1.719997
H	-0.192141	2.151304	0.189993
Cl	3.41426	0.0	0.0
