18

C	-0.354586	0.16366	-1.480908
C	0.0	0.0	0.0
F	-1.612476	0.686522	-1.678153
H	1.094386	0.0	0.0
N	0.5967	0.971166	-2.112909
H	1.534572	0.746239	-1.791103
H	0.539623	0.921386	-3.119296
N	-0.461737	-1.245928	-2.116931
O	0.612855	-1.784942	-2.355988
O	-1.570601	-1.725786	-2.320132
N	-0.474883	-1.26967	0.532383
H	0.247431	-1.669884	1.117816
H	-1.305781	-1.130984	1.089287
C	-0.474389	1.22436	0.772979
H	-0.043591	1.195901	1.776168
H	-0.151629	2.144025	0.283258
H	-1.566023	1.237975	0.851168
Cl	3.409113	0.0	0.0
