18

C	-0.571075	-0.036899	-1.413899
C	0.0	0.0	0.0
F	0.205173	-0.865195	-2.19224
H	1.097781	0.0	0.0
N	-1.921383	-0.414176	-1.478055
H	-2.213209	-0.748764	-0.569945
H	-2.499809	0.32727	-1.838106
N	-0.394424	1.349116	-2.059123
O	0.742443	1.662982	-2.376471
O	-1.396846	2.059369	-2.180887
N	-0.502417	-1.229332	0.653868
H	-0.157899	-1.207001	1.609067
H	-0.018955	-2.011709	0.217538
C	-0.497749	1.211323	0.772156
H	-1.589141	1.269546	0.781506
H	-0.089426	2.133137	0.35564
H	-0.140436	1.143951	1.802011
Cl	3.514054	0.0	0.0
