12
Coordinates from ORCA-job run
  C   0.00071584661022      0.10207349209438      0.40110909547230
  C   1.28155510591247     -0.36084840639582     -0.26784844244469
  F   0.03432947670195     -0.32733626252242      1.72864170828583
  H   1.31861430625852     -1.45172340373447     -0.24481292975958
  H   2.14574990835752      0.03401925119258      0.26787071685084
  H   1.31992165561779     -0.02167094998915     -1.30455272042433
  C   -0.06117977465324      1.57748562834612      0.42120709174475
  N   -0.11139447798398      2.74996960962223      0.40474645507585
  C   -1.25266846229302     -0.46690341131853     -0.23770522829851
  H   -1.19804881356668     -1.55690657985871     -0.21453062654311
  H   -1.34403197696764     -0.13355951390501     -1.27287795508505
  H   -2.13356279399392     -0.14459945353122      0.31875283512570
