12
Coordinates from ORCA-job run
  C   -0.01280092185709      0.11391478951868      0.39749540455898
  C   1.29234796915236     -0.35601168103521     -0.21729007339035
  F   -0.01659821049370     -0.27520173768616      1.73810856848678
  H   1.36067285013927     -0.04637282625244     -1.26154210171799
  H   2.13570208796696      0.06210162082900      0.33351344381773
  H   1.33798684219565     -1.44525267658465     -0.16166332483236
  C   -0.08802172994108      1.58870295467267      0.37214198673806
  N   -0.14717197204852      2.75972810568420      0.31969516867302
  C   -1.24047140791375     -0.48596616632680     -0.26218350309801
  H   -1.30317835264332     -0.18303259819058     -1.30875199399481
  H   -2.14111270301555     -0.15734974689158      0.25772591104906
  H   -1.17635445154123     -1.57426003773714     -0.20624948629012
