15

C	-0.202208	0.00322	-1.501603
C	0.0	0.0	0.0
Br	-2.106572	-0.184415	-2.070774
H	1.107384	0.0	0.0
N	0.194565	1.391266	-2.099866
O	0.347392	2.341735	-1.344553
O	0.365532	1.401388	-3.314646
N	0.591935	-1.014502	-2.031666
H	0.644855	-0.943694	-3.040201
H	1.527328	-0.923567	-1.594417
C	-0.390881	-1.290461	0.543207
N	-0.650449	-2.327335	1.0338
C	-0.616765	1.05974	0.768205
N	-1.132882	1.85841	1.459995
H	2.479211	0.0	0.0
