15

C	-0.17138	-0.247817	-1.490838
C	0.0	0.0	0.0
Br	-2.060585	-0.484893	-2.084528
H	1.091969	0.0	0.0
N	0.259755	1.026072	-2.298889
O	0.051913	2.126601	-1.812295
O	0.762927	0.807102	-3.393507
N	0.609469	-1.355508	-1.810456
H	0.704693	-1.452195	-2.812937
H	1.536179	-1.202019	-1.371536
C	-0.420127	-1.172984	0.746581
N	-0.718915	-2.100656	1.404258
C	-0.577524	1.188405	0.59307
N	-1.028411	2.100201	1.183114
H	2.49519	0.0	0.0
