15

C	-0.371592	-0.013278	-1.43576
C	0.0	0.0	0.0
Br	-2.506788	0.470155	-1.698534
H	1.096605	0.0	0.0
N	0.244647	1.145541	-2.185914
O	0.654796	2.088314	-1.52279
O	0.309594	1.029575	-3.406306
N	-0.034658	-1.172739	-2.085548
H	-0.403526	-2.007078	-1.651781
H	-0.20197	-1.124464	-3.080364
C	-0.417778	-1.241256	0.61846
N	-0.733978	-2.285123	1.060678
C	-0.46268	1.137619	0.767729
N	-0.815329	2.024329	1.45459
H	2.368122	0.0	0.0
