15

C	-0.163953	0.09578	-1.511363
C	0.0	0.0	0.0
Br	0.072548	-1.787024	-2.287506
H	1.106685	0.0	0.0
N	-1.577063	0.427302	-1.995683
O	-1.664707	0.950705	-3.103586
O	-2.506669	0.137665	-1.252246
N	0.733981	1.032877	-1.967739
H	0.769873	1.114134	-2.974034
H	1.654894	0.857829	-1.518614
C	-0.567821	-1.145781	0.673386
N	-0.990613	-2.043394	1.304335
C	-0.416796	1.237373	0.636006
N	-0.69859	2.232784	1.195122
H	2.498348	0.0	0.0
