13
Coordinates from ORCA-job run
  C   0.00310280800110      0.16268843968049     -0.34535595243409
  C   -0.59923114353099      1.07084228334056      0.69819017918270
  F   0.11079510730202      0.84252978596002     -1.52513258382306
  H   0.07095880447291      1.91668760150270      0.85895043262964
  H   -1.56021356398615      1.44819105002059      0.34375581346797
  H   -0.74356153513483      0.53583399588356      1.63528595248688
  C   1.34052123610758     -0.44274895169936      0.00297481868965
  H   2.06487554154538      0.36059636481406      0.14581441584138
  H   1.67919186611140     -1.07753124717270     -0.81791073726158
  H   1.26804258628624     -1.03550992309376      0.91323982805268
  N   -0.97758270281566     -0.98177511405858     -0.58953954319884
  O   -1.18857905192239     -1.69941012470482      0.38447055995898
  O   -1.46931995243661     -1.10039416047275     -1.70274318359231
