14

C	0.019432	-0.045627	-0.049911
C	-0.318227	-0.299624	-1.525893
Cl	1.827421	0.27192	0.077298
H	0.422724	-1.013582	-1.90488
H	-0.087948	-1.009365	0.471119
N	-0.710281	1.049673	0.472163
H	-0.552369	1.110604	1.473552
H	-1.743315	0.851385	0.350338
C	-0.134528	0.932404	-2.314106
N	0.04053	1.871226	-2.995948
N	-1.648219	-0.845729	-1.749983
H	-1.656777	-1.790334	-1.377389
H	-2.347256	-0.326974	-1.178746
H	-3.262773	0.31626	0.164842
