14

C	-0.366061	-0.000275	-1.487969
C	0.0	0.0	0.0
F	-1.75711	0.036862	-1.63581
H	1.097294	0.0	0.0
H	0.026579	0.92744	-1.914924
C	0.194713	-1.205526	-2.202585
H	-0.029027	-1.13966	-3.271521
H	1.279558	-1.237493	-2.054387
H	-0.252702	-2.120137	-1.806352
C	-0.492002	-1.201591	0.672005
N	-0.872825	-2.182682	1.192615
C	-0.497306	1.201933	0.667049
N	-0.882765	2.181951	1.186122
Br	3.371547	0.0	0.0
