14

C	-0.447846	0.070545	-1.475586
C	0.0	0.0	0.0
F	-0.152627	-1.156772	-2.054439
H	1.096873	0.0	0.0
H	-1.53623	0.188724	-1.532509
C	0.289045	1.160338	-2.215705
H	0.027101	1.120531	-3.275359
H	1.364135	1.012741	-2.092916
H	0.018875	2.143793	-1.823564
C	-0.518283	-1.202155	0.649641
N	-0.965228	-2.1613	1.158119
C	-0.468174	1.194197	0.702304
N	-0.852268	2.17549	1.22094
Br	3.396333	0.0	0.0
