14

C	-0.449568	0.002614	-1.473854
C	0.0	0.0	0.0
F	-0.011576	1.193059	-2.033038
H	1.096261	0.0	0.0
H	0.08584	-0.810412	-1.973852
C	-1.945045	-0.093119	-1.672707
H	-2.334513	-1.029747	-1.268855
H	-2.440559	0.744362	-1.175879
H	-2.173145	-0.047302	-2.739749
C	-0.460421	-1.226074	0.650606
N	-0.838178	-2.232352	1.124168
C	-0.515689	1.173694	0.702148
N	-0.945154	2.127103	1.236239
Br	3.367262	0.0	0.0
