14

C	-0.447971	0.04981	-1.474777
C	0.0	0.0	0.0
F	-0.116084	-1.171564	-2.047543
H	1.097081	0.0	0.0
H	-1.539756	0.134992	-1.533321
C	0.25355	1.159651	-2.220644
H	1.332785	1.053522	-2.092121
H	-0.056793	2.136253	-1.84039
H	-0.001051	1.097307	-3.280614
C	-0.513661	-1.197565	0.662282
N	-0.956831	-2.153483	1.179893
C	-0.471449	1.199078	0.690983
N	-0.855699	2.183227	1.20404
Br	3.407379	0.0	0.0
