14

C	-0.444011	0.072877	-1.476708
C	0.0	0.0	0.0
F	-0.140045	-1.151847	-2.055694
H	1.097007	0.0	0.0
H	-1.532227	0.183994	-1.535212
C	0.287794	1.167086	-2.214032
H	0.032717	1.124107	-3.274989
H	1.362572	1.029123	-2.086194
H	0.006596	2.147689	-1.824705
C	-0.518069	-1.203952	0.645596
N	-0.965325	-2.164766	1.150137
C	-0.469316	1.192106	0.704375
N	-0.855291	2.17178	1.224618
Br	3.398547	0.0	0.0
