14

C	-0.445574	-0.062463	-1.474062
C	0.0	0.0	0.0
F	-0.03206	1.115904	-2.075855
H	1.096205	0.0	0.0
H	0.109969	-0.880899	-1.941775
C	-1.937563	-0.200601	-1.674063
H	-2.163003	-0.186858	-2.742473
H	-2.457042	0.634698	-1.199008
H	-2.303078	-1.13732	-1.249362
C	-0.457549	-1.198555	0.702034
N	-0.838094	-2.182956	1.217392
C	-0.520997	1.200649	0.650243
N	-0.956419	2.17384	1.142065
Br	3.366263	0.0	0.0
