14

C	-0.365993	-2.5e-05	-1.487984
C	0.0	0.0	0.0
F	-1.756935	0.037102	-1.635873
H	1.097379	0.0	0.0
H	0.026635	0.927774	-1.91475
C	0.194858	-1.205161	-2.202605
H	-0.252873	-2.119772	-1.806854
H	-0.028288	-1.138971	-3.271511
H	1.279476	-1.237411	-2.053909
C	-0.492029	-1.201747	0.671696
N	-0.873639	-2.183307	1.190844
C	-0.497346	1.201842	0.667153
N	-0.883273	2.182177	1.185276
Br	3.37131	0.0	0.0
