14

C	-0.447305	-0.029083	-1.474449
C	0.0	0.0	0.0
F	-0.02395	1.157361	-2.0533
H	1.096286	0.0	0.0
H	0.100398	-0.843135	-1.95923
C	-1.94079	-0.149571	-1.675019
H	-2.450949	0.684417	-1.187061
H	-2.167169	-0.117616	-2.742904
H	-2.316233	-1.08858	-1.263553
C	-0.458545	-1.213182	0.675797
N	-0.834277	-2.210278	1.16993
C	-0.51853	1.187029	0.677043
N	-0.949908	2.150469	1.191227
Br	3.36593	0.0	0.0
