14

C	-0.484205	0.039457	-1.476557
C	0.0	0.0	0.0
Cl	0.303776	1.402479	-2.31287
H	1.094468	0.0	0.0
C	-0.166059	-1.202869	-2.184009
N	0.061772	-2.193302	-2.773239
C	-1.936511	0.249432	-1.504667
N	-3.099336	0.418744	-1.488462
C	-0.493545	-1.232579	0.623565
N	-0.9204	-2.17841	1.176932
N	-0.435453	1.202752	0.678228
H	-1.256106	1.046948	1.249085
H	0.326163	1.547678	1.249927
Br	3.355417	0.0	0.0
