14

C	-0.458655	0.035572	-1.473084
C	0.0	0.0	0.0
Cl	-2.26795	0.091882	-1.543162
H	1.096003	0.0	0.0
C	0.044229	1.245967	-2.123405
N	0.432059	2.22405	-2.645563
C	-0.027326	-1.156259	-2.205733
N	0.295494	-2.106307	-2.817402
C	-0.478894	-1.231669	0.633979
N	-0.878598	-2.1812	1.200204
N	-0.416949	1.216436	0.664154
H	0.3368	1.529365	1.263953
H	-1.261191	1.090665	1.205619
Br	3.328513	0.0	0.0
