14

C	-0.416728	-0.02607	-1.516375
C	0.0	0.0	0.0
Cl	0.345833	1.364744	-2.341893
H	1.095804	0.0	0.0
C	-0.00168	-1.262596	-2.175862
N	0.303054	-2.25223	-2.731457
C	-1.870837	0.122925	-1.625097
N	-3.03738	0.266205	-1.643972
C	-0.531188	-1.218365	0.614663
N	-1.002481	-2.186046	1.085775
N	-0.430606	1.161289	0.726615
H	0.182738	1.939997	0.526862
H	-1.40002	1.403409	0.561668
Br	3.362236	0.0	0.0
