14

C	-0.48674	0.068419	-1.469955
C	0.0	0.0	0.0
Cl	0.053072	-1.378984	-2.369759
H	1.094519	0.0	0.0
C	-1.953299	0.125146	-1.499291
N	-3.127667	0.169866	-1.482735
C	0.045266	1.27153	-2.114177
N	0.439478	2.250705	-2.629834
C	-0.494168	-1.228848	0.6268
N	-0.92032	-2.166114	1.194115
N	-0.4411	1.20958	0.667612
H	-1.253939	1.059453	1.24971
H	0.322009	1.576637	1.222709
Br	3.350346	0.0	0.0
