13

C	0.0	0.0	0.0
C	-0.439328	-0.192614	-1.515387
Cl	1.779875	0.0	0.0
H	0.485513	-0.343472	-2.08437
H	-0.365979	0.93348	0.412835
C	-0.448918	-1.118384	0.823592
N	-0.603793	-2.073075	1.490857
C	-1.005108	1.078998	-1.983034
N	-1.382009	2.089972	-2.44464
N	-1.341162	-1.275742	-1.832944
H	-0.889966	-2.147934	-1.575269
H	-2.117467	-1.081186	-1.169853
F	-2.458123	0.0	0.0
