13

C	0.0	0.0	0.0
C	-0.553048	-0.133954	-1.410458
Cl	1.78336	0.0	0.0
H	-1.674184	-0.113593	-1.103109
H	-0.358624	0.953119	0.379045
C	-0.44267	-1.082812	0.880894
N	-0.607146	-1.966111	1.636809
C	-0.164318	-1.396198	-2.036749
N	0.147676	-2.369481	-2.621024
N	-0.180198	1.041284	-2.190898
H	0.75807	0.937473	-2.56538
H	-0.818959	1.130958	-2.970726
F	-2.638554	0.0	0.0
