13

C	0.0	0.0	0.0
C	-0.527294	0.072602	-1.443764
Cl	1.781098	0.0	0.0
H	-1.630501	-0.061298	-1.206704
H	-0.37318	0.870746	0.531551
C	-0.436499	-1.211186	0.698033
N	-0.614661	-2.192407	1.318474
C	0.012162	-1.006533	-2.264167
N	0.426566	-1.872314	-2.942774
N	-0.307293	1.359076	-2.083323
H	-0.948161	2.018824	-1.658069
H	0.643848	1.677173	-1.924689
F	-2.593187	0.0	0.0
