13

C	0.0	0.0	0.0
C	-0.550904	0.057851	-1.433413
Cl	1.780849	0.0	0.0
H	-1.651173	-0.098259	-1.17295
H	-0.369736	0.874234	0.529004
C	-0.431292	-1.205017	0.714148
N	-0.6111	-2.180953	1.342168
C	-0.003551	-1.006657	-2.265677
N	0.412628	-1.863855	-2.954117
N	-0.387942	1.351915	-2.072924
H	0.550155	1.711006	-1.924613
H	-1.053633	1.98123	-1.639364
F	-2.619065	0.0	0.0
