19

C	-0.48615	0.05152	-1.427679
C	0.0	0.0	0.0
F	-1.818015	0.394303	-1.516179
H	1.089273	0.0	0.0
C	0.350711	1.012769	-2.243822
H	0.119586	0.886961	-3.304719
H	1.408657	0.816023	-2.035569
H	0.111424	2.036697	-1.954622
N	-0.348037	-1.293801	-2.130973
O	0.710263	-1.88081	-1.955896
O	-1.250925	-1.629629	-2.888559
N	-0.512954	-1.158654	0.740973
O	-1.22561	-1.989397	0.16114
O	-0.178009	-1.24955	1.924968
C	-0.347717	1.266065	0.770194
H	-1.426866	1.425968	0.843516
H	0.088366	1.17936	1.764637
H	0.12003	2.124679	0.284683
H	2.623656	0.0	0.0
