19

C	-0.491657	0.051071	-1.42587
C	0.0	0.0	0.0
F	-1.826227	0.38557	-1.502109
H	1.089288	0.0	0.0
C	0.332733	1.019898	-2.245889
H	1.392131	0.82862	-2.04897
H	0.088956	2.041668	-1.953808
H	0.094418	0.894572	-3.304493
N	-0.349848	-1.290735	-2.136221
O	0.721583	-1.861267	-1.98759
O	-1.264363	-1.637737	-2.874119
N	-0.506444	-1.159185	0.745024
O	-1.177847	-2.018627	0.156663
O	-0.197937	-1.227377	1.939381
C	-0.343372	1.267912	0.768579
H	0.08305	1.176915	1.766579
H	-1.420957	1.435954	0.834557
H	0.135401	2.122543	0.288584
H	2.623075	0.0	0.0
