19

C	-0.379427	0.007667	-1.469364
C	0.0	0.0	0.0
F	0.114649	1.169788	-1.998162
H	1.092612	0.0	0.0
C	0.087329	-1.133987	-2.331489
H	-0.424522	-2.056509	-2.078946
H	1.157973	-1.250793	-2.152157
H	-0.096055	-0.864045	-3.37537
N	-1.905341	0.133452	-1.58363
O	-2.387115	1.172264	-2.024781
O	-2.543159	-0.839146	-1.186465
N	-0.371249	-1.239219	0.685838
O	0.029118	-2.304874	0.201916
O	-0.952112	-1.159889	1.778831
C	-0.502063	1.220339	0.736057
H	-0.021406	1.262869	1.713821
H	-1.584719	1.208754	0.882873
H	-0.215294	2.110063	0.174764
H	2.585356	0.0	0.0
