19

C	-0.371535	-0.009583	-1.471826
C	0.0	0.0	0.0
F	0.10257	1.157907	-2.007148
H	1.092593	0.0	0.0
C	0.126078	-1.149119	-2.318355
H	-0.367211	-2.079987	-2.06027
H	-0.053415	-0.89442	-3.366757
H	1.196999	-1.239539	-2.126967
N	-1.897964	0.086355	-1.597451
O	-2.396085	1.115673	-2.041917
O	-2.519913	-0.898104	-1.204604
N	-0.374493	-1.235558	0.692191
O	-0.98718	-1.150532	1.767511
O	0.050687	-2.301487	0.230856
C	-0.510489	1.224307	0.722584
H	-1.595594	1.218112	0.850633
H	-0.210279	2.110346	0.162855
H	-0.047052	1.269006	1.70856
H	2.589767	0.0	0.0
