19

C	-0.507036	-0.022193	-1.438769
C	0.0	0.0	0.0
F	0.281341	-0.788909	-2.241724
H	1.091367	0.0	0.0
C	-1.95045	-0.428346	-1.64597
H	-2.217984	-0.296987	-2.697321
H	-2.614194	0.177358	-1.031964
H	-2.041247	-1.478644	-1.379101
N	-0.351471	1.405317	-1.990433
O	0.682145	1.676515	-2.586965
O	-1.284007	2.182243	-1.786401
N	-0.368609	-1.218878	0.678646
O	-0.377806	-2.276687	0.015588
O	-0.483458	-1.198237	1.920056
C	-0.350545	1.230437	0.810044
H	0.064789	1.090596	1.806323
H	-1.424755	1.416804	0.889282
H	0.139031	2.100893	0.370752
H	2.462986	0.0	0.0
