19

C	-0.490389	0.081262	-1.443536
C	0.0	0.0	0.0
F	0.297386	-0.641459	-2.287056
H	1.091335	0.0	0.0
C	-1.936109	-0.289384	-1.693896
H	-2.599468	0.290054	-1.054448
H	-2.186209	-0.092458	-2.739318
H	-2.046756	-1.352092	-1.491161
N	-0.303319	1.539303	-1.895519
O	-1.234113	2.314233	-1.676321
O	0.756723	1.836189	-2.429857
N	-0.3871	-1.259645	0.584682
O	-0.381194	-2.269237	-0.149714
O	-0.549084	-1.323637	1.819872
C	-0.355226	1.172854	0.888256
H	0.139452	2.07055	0.514428
H	-1.429753	1.35572	0.971037
H	0.049337	0.964461	1.87717
H	2.464426	0.0	0.0
