19

C	-0.37212	0.007884	-1.471467
C	0.0	0.0	0.0
F	0.101959	1.182543	-1.991565
H	1.09261	0.0	0.0
C	0.124805	-1.118625	-2.336514
H	-0.371439	-2.052669	-2.095463
H	-0.051561	-0.844838	-3.380976
H	1.195674	-1.214889	-2.145057
N	-1.899146	0.105274	-1.596462
O	-2.396384	1.135194	-2.040065
O	-2.521593	-0.879551	-1.206028
N	-0.36634	-1.242403	0.682471
O	0.032978	-2.306268	0.193968
O	-0.937957	-1.166443	1.780101
C	-0.511928	1.215142	0.737233
H	-0.030533	1.261427	1.714276
H	-1.594203	1.192414	0.885661
H	-0.23567	2.10816	0.176401
H	2.584433	0.0	0.0
