18

C	-0.477078	0.024172	-1.460532
C	0.0	0.0	0.0
F	0.026725	-1.139959	-2.060477
H	1.10058	0.0	0.0
C	-1.984701	-0.030517	-1.587611
H	-2.356297	-0.98045	-1.196075
H	-2.435063	0.788636	-1.026534
H	-2.271038	0.043176	-2.640165
C	0.146378	1.209194	-2.170013
H	-0.274235	2.14253	-1.788113
H	1.228282	1.19977	-2.012408
H	-0.061264	1.141151	-3.241239
C	-0.491735	-1.19877	0.676564
N	-0.902234	-2.135159	1.255364
N	-0.490206	1.215719	0.695021
H	0.289444	1.868536	0.692336
H	-0.654367	0.991021	1.669317
Cl	3.385241	0.0	0.0
