18

C	-0.405311	0.003967	-1.473172
C	0.0	0.0	0.0
F	-1.82095	0.072437	-1.530252
H	1.095669	0.0	0.0
C	0.147123	1.232126	-2.160793
H	1.237967	1.21292	-2.106923
H	-0.172538	1.240946	-3.206163
H	-0.211984	2.128137	-1.657428
C	0.024242	-1.274869	-2.159908
H	-0.232291	-1.228972	-3.221096
H	1.104642	-1.397818	-2.052344
H	-0.478941	-2.136606	-1.716967
C	-0.480244	-1.222758	0.668244
N	-0.876818	-2.162855	1.252003
N	-0.458901	1.210172	0.675718
H	-1.440724	1.124528	0.902623
H	0.062706	1.318283	1.53479
Cl	3.367886	0.0	0.0
