15
Coordinates from ORCA-job run
  C   -0.78427351154747     -0.08783942673935     -0.04326429637873
  C   0.38856428355773     -0.59128276337041      0.77276209198374
  Br  -2.48038581162297     -0.68949954061172      0.88957020749392
  H   0.32599587961546     -1.68438215704106      0.77188703816434
  H   0.25383863501983     -0.26622073552065      1.80367437745886
  N   -0.71838017986255     -0.44056393032332     -1.39148575454314
  H   -0.66213921251611     -1.44244896484101     -1.51285247372763
  H   -1.47431570280714     -0.04520000728470     -1.93478658534567
  N   -0.90300534779086      1.43533756102277      0.02634188880303
  O   -0.46276212731592      1.98516768850305      1.02703369372213
  O   -1.45831356909523      1.98387238622651     -0.91809162307956
  C   1.73508628868321     -0.12626251358683      0.22361193996939
  H   2.53979645900223     -0.54316363835852      0.83318071402278
  H   1.87923462842823     -0.44802300846202     -0.80748211105569
  H   1.82005928825155      0.96050905038725      0.26190089251222
