15
Coordinates from ORCA-job run
  C   -0.67209997373789     -0.05946874651933     -0.00442079502258
  C   0.71817795510097      0.33920788346766      0.45679043010936
  Br  -1.50935485926734     -1.33246016423466      1.21955164863227
  H   1.03109872468843      1.17169875690885     -0.18877807219999
  H   0.64007926328959      0.74017477370991      1.46708809761860
  N   -0.68127724502362     -0.59991876370103     -1.30046518609849
  H   -1.62201301081162     -0.77780197277047     -1.62789035800560
  H   -0.21379512124093      0.02395222446192     -1.94841739984075
  N   -1.58179224939671      1.21250233568892      0.11925146721935
  O   -1.49197468688265      1.87371048730030      1.14443379291955
  O   -2.31113758409780      1.45349523046170     -0.83745124036474
  C   1.72915497125617     -0.79752706962357      0.38410880165817
  H   1.81810051782574     -1.18860888445777     -0.62920411591321
  H   2.70914026797042     -0.43949042177319      0.70680111113512
  H   1.43669303032725     -1.61946566891925      1.03860181815293
