15
Coordinates from ORCA-job run
  C   -0.67176770273439     -0.06072906172285     -0.01001134753088
  C   0.71465812002684      0.33636168637397      0.46394816555537
  Br  -1.51375135975010     -1.34660358239171      1.19666822155541
  H   0.62896991103174      0.73020519454483      1.47644207384862
  H   1.03114503082486      1.17361890295381     -0.17370294445676
  N   -0.67098914996134     -0.58959322497443     -1.31140988828404
  H   -0.20227112909831      0.04339061643660     -1.94971807064563
  H   -1.60985564000962     -0.76496233501369     -1.64578856249849
  N   -1.58470300754776      1.20769266938157      0.11865709319271
  O   -1.50336697081226      1.86058113376913      1.14993936270844
  O   -2.30934254652405      1.45470316181837     -0.84024978521850
  C   1.72804629806823     -0.79821775240069      0.39051411684357
  H   1.43617838100391     -1.62229736299072      1.04255116365031
  H   1.81941546122419     -1.18634331395377     -0.62372438345327
  H   2.70663430425805     -0.43880673183042      0.71588478473315
