15
Coordinates from ORCA-job run
  C   -0.77497282597903      0.01258317666663      0.03208479350393
  C   0.66386209806429      0.32119944057145      0.45294666891990
  Br  -1.58727861262569     -1.24253817995502      1.27497743709824
  H   0.65298227513725      0.68490751735997      1.48358835758979
  H   0.99006218786779      1.15188924438286     -0.18665411052886
  N   -1.00425853145697     -0.47193614572974     -1.28902084704363
  H   -0.64774592187800     -1.41167972143090     -1.39188666355540
  H   -0.59175360860907      0.14699705069464     -1.97594391049593
  N   -1.50545005592315      1.36134631484121      0.14951958080901
  O   -1.60961872085175      1.98964581967637     -0.89951197659569
  O   -1.81323728420015      1.75610050625077      1.26450314489711
  C   1.61718896730323     -0.85506467137602      0.29885846478787
  H   1.31111992495267     -1.69869025599877      0.91889047941445
  H   1.67698930417892     -1.18763394593975     -0.73943257332901
  H   2.62211080401967     -0.55912615001370      0.60608115452822
