10
Coordinates from ORCA-job run
  C   -0.67323832985393      0.03270035558762      0.00278690378432
  C   0.66968710396528      0.07613004978136     -0.00004275634814
  H   -1.21709147819335     -0.00747484756469      0.94547348359817
  H   1.21336783108683      0.12158331044497     -0.94258896154704
  N   -1.49949813536459      0.19000166157536     -1.13513621494186
  H   -0.95757600691627      0.19645098679345     -1.98935341861858
  H   -2.20378413498664     -0.53338159721494     -1.19263076119859
  N   1.48606011910821      0.22525491966488      1.14608237894966
  H   0.94636670364833      0.15089336098370      1.99849555840660
  H   2.23570632750612     -0.45315820005172      1.16591378791546
