10
Coordinates from ORCA-job run
  C   0.60467901807784     -0.27474384715534      0.11457028440410
  C   -0.64455709000636      0.18641647985380     -0.06396779105532
  H   1.06490497819315     -0.91465376827298     -0.63695499575147
  H   -1.10699292932376      0.82143609973182      0.69034437393265
  N   1.36811844543838     -0.13353922267947      1.29768901522618
  H   0.91954537412609      0.48902255752712      1.95692175828929
  H   2.30266590666543      0.20157308439663      1.10560522172270
  N   -1.51984923685123     -0.20301802028293     -1.10550871793760
  H   -1.94321247076402      0.59478337856608     -1.56032716574482
  H   -1.04530199555551     -0.76827674168474     -1.79737198308569
