10
Coordinates from ORCA-job run
  C   -0.51184878165410     -0.60625796238505     -0.39682674372798
  C   0.51144676803327     -0.66810319913459      0.47381790471256
  H   -0.99279160282269     -1.51675978920701     -0.74626348643336
  H   0.85803691584887     -1.62686212473077      0.84786087271461
  N   -0.96704360547107      0.67951115186008     -0.83725415594888
  H   -1.30304521613281      0.63899562131471     -1.78930066512803
  H   -1.72187951488915      1.02192358943446     -0.25435096315096
  N   1.11071530945693      0.46042164335075      1.03333324745432
  H   2.09707111758778      0.34511590270071      1.20932212902734
  H   0.91833861004299      1.27301516679671      0.45966186048038
