10
Coordinates from ORCA-job run
  C   -0.66480308494344     -0.07367266531056     -0.08248160776278
  C   0.66850674645224     -0.03497030659215      0.07926260975501
  H   -1.32048427973077     -0.12104050504999      0.78572880506188
  H   1.32441104133947      0.00656805011162     -0.78907733185932
  N   -1.33466395952585     -0.21589535153968     -1.32076329763525
  H   -0.69460897656971     -0.13970736899420     -2.10038756218365
  H   -2.07478841217803      0.46452060060028     -1.42936814747429
  N   1.34821257358525     -0.19979836719189      1.30938548481624
  H   0.70572720947156     -0.20765005736032      2.09069644180810
  H   2.04249114209927      0.52064597132688      1.45600460547407
