10
Coordinates from ORCA-job run
  C   -0.66054266539738     -0.65929036181018     -0.24679188031848
  C   0.49177862243844     -0.59070548737824      0.44346375886648
  H   -1.17710579077087     -1.60764721837451     -0.36068537936791
  H   0.90961555033258     -1.48181504629002      0.90576881442477
  N   -1.20113065967084      0.42092580087924     -0.94424403975362
  H   -2.20958941033788      0.42541451978133     -0.95755799158790
  H   -0.82091044109378      1.28893070694563     -0.58607032842078
  N   1.16751190733616      0.66993231291984      0.53544470048181
  H   1.84911852443683      0.77589982688100     -0.20690354777700
  H   1.65225436272674      0.75835494644592      1.41757589345264
