10
Coordinates from ORCA-job run
  C   -0.58844764079527     -0.60534591079838     -0.27337626626383
  C   0.59851432772622     -0.66851465222750      0.35601489735358
  H   -1.13311269735405     -1.51560423872528     -0.51245664695485
  H   1.03054894857504     -1.62949424123609      0.61879677752071
  N   -1.10634451120959      0.67890132677006     -0.64320667182273
  H   -0.82954477666843      0.92866615446305     -1.58548967371890
  H   -2.11591459620129      0.68842199815453     -0.60287503437066
  N   1.39342170520291      0.45002316113709      0.60609413474071
  H   0.82845271142290      1.29023807446073      0.57236157038454
  H   1.92242652930156      0.38270832800180      1.46213691313144
