10
Coordinates from ORCA-job run
  C   0.66698636068085      0.07394198432085      0.06249750447780
  C   -0.67051486179586      0.03415065109683     -0.05957116714214
  H   1.29589859187230      0.12054013836069     -0.82540468360586
  H   -1.29958833297898     -0.00736932049779      0.82846928758380
  N   1.37346940953163      0.21816118836158      1.27993706468126
  H   0.75659396781993      0.14263082560808      2.07812983753338
  H   2.11690286835554     -0.46165219181863      1.36771575904301
  N   -1.38689892462209      0.19763135331846     -1.26877033245566
  H   -2.08506996722044     -0.52303633046265     -1.39423990329429
  H   -0.76777911164288      0.20500170171258     -2.06876336682130
