10
Coordinates from ORCA-job run
  C   0.61420488412825     -0.65045502076927      0.36362126569728
  C   -0.68311635133245     -0.56631147867783      0.01870472735949
  H   1.02153602483142     -1.58161307946961      0.74593981476415
  H   -1.34029692712327     -1.42453881921084      0.13634333732012
  N   1.53074445533275      0.37964480472889      0.15255793581942
  H   2.24989315938921      0.42768918640725      0.85799933430185
  H   1.04198562211484      1.26057563876709      0.04587465791316
  N   -1.17539325419748      0.66626636905590     -0.52219249943272
  H   -2.14063922688610      0.81607070332388     -0.26385039048707
  H   -1.11891838625717      0.67167169584453     -1.53399818325568
