19

C	-0.241101	0.00066	-1.504295
C	0.0	0.0	0.0
F	-1.599499	0.001146	-1.829839
H	1.100802	0.0	0.0
N	0.288229	1.233194	-2.057709
H	0.273855	1.164999	-3.071618
H	1.26184	1.29823	-1.764961
N	0.287408	-1.231579	-2.058752
H	1.260996	-1.297782	-1.764758
H	0.274259	-1.161831	-3.073202
C	-0.541871	-1.257449	0.665321
H	-0.103952	-2.157947	0.237684
H	-0.314126	-1.235922	1.734675
H	-1.628764	-1.315764	0.543299
C	-0.541668	1.25698	0.666273
H	-0.313916	1.234621	1.735606
H	-0.10362	2.157778	0.239325
H	-1.628554	1.315471	0.54429
Cl	3.48041	0.0	0.0
