19

C	-0.333597	-0.062945	-1.487792
C	0.0	0.0	0.0
F	-0.039247	1.241582	-2.037999
H	1.098272	0.0	0.0
N	0.496335	-1.025378	-2.125374
H	1.449462	-0.899385	-1.787144
H	0.497039	-0.855067	-3.125131
N	-1.718774	-0.329343	-1.758873
H	-1.834887	-0.483043	-2.754607
H	-2.247329	0.500724	-1.515581
C	-0.472137	-1.264935	0.70876
H	-0.123746	-2.152985	0.180135
H	-1.564027	-1.30531	0.760426
H	-0.064626	-1.28873	1.723783
C	-0.526122	1.255118	0.679017
H	-0.189571	1.272765	1.719004
H	-0.15479	2.153669	0.18735
H	-1.62379	1.280279	0.686878
Cl	3.551338	0.0	0.0
