19

C	-0.338574	-0.080651	-1.484944
C	0.0	0.0	0.0
F	0.000195	1.203871	-2.057239
H	1.098283	0.0	0.0
N	0.456169	-1.080723	-2.109426
H	1.410896	-0.986145	-1.767124
H	0.470672	-0.91142	-3.109703
N	-1.731784	-0.304176	-1.74967
H	-2.225833	0.564803	-1.582912
H	-1.848445	-0.546772	-2.728038
C	-0.476046	-1.253194	0.726786
H	-0.088009	-1.251529	1.749386
H	-0.111805	-2.150976	0.226251
H	-1.568168	-1.298563	0.757359
C	-0.527141	1.265362	0.659043
H	-1.624509	1.286152	0.669267
H	-0.187053	1.302981	1.696889
H	-0.159821	2.155886	0.150237
Cl	3.554808	0.0	0.0
