19

C	-0.334839	0.164202	-1.479559
C	0.0	0.0	0.0
F	-0.035778	-1.099019	-2.117391
H	1.094971	0.0	0.0
N	-1.720867	0.443951	-1.731905
H	-1.838716	0.665163	-2.715177
H	-2.247446	-0.401629	-1.544091
N	0.492407	1.170938	-2.051229
H	0.494174	1.064048	-3.059811
H	1.446819	1.021433	-1.725143
C	-0.526057	-1.299242	0.591665
H	-0.155268	-2.161568	0.038298
H	-0.187654	-1.388432	1.627377
H	-1.623628	-1.325426	0.599015
C	-0.472532	1.213557	0.794257
H	-1.564505	1.250844	0.848147
H	-0.12359	2.135791	0.328151
H	-0.065442	1.166801	1.808857
Cl	3.551368	0.0	0.0
