19

C	-0.339391	-0.272376	-1.471098
C	0.0	0.0	0.0
F	-0.196282	-1.640866	-1.691712
H	1.095119	0.0	0.0
N	-1.707799	0.040399	-1.798986
H	-1.929927	0.977133	-1.490009
H	-1.781408	0.013831	-2.810449
N	0.589281	0.332975	-2.40912
H	0.52267	1.340177	-2.318013
H	1.535278	0.088157	-2.113836
C	-0.551356	-1.063428	0.937779
H	-1.63832	-1.145381	0.837921
H	-0.109608	-2.034634	0.719474
H	-0.311609	-0.808183	1.974033
C	-0.436967	1.396078	0.439776
H	0.033342	1.633899	1.397016
H	-0.118155	2.170516	-0.265283
H	-1.522888	1.46383	0.576474
Cl	3.545065	0.0	0.0
