19

C	-0.345574	-0.146321	-1.479343
C	0.0	0.0	0.0
F	-0.198182	1.116251	-2.105346
H	1.095011	0.0	0.0
N	0.546218	-1.091282	-2.069845
H	1.502604	-0.892544	-1.776417
H	0.48681	-1.032606	-3.080431
N	-1.745772	-0.467752	-1.714287
H	-1.839965	-1.472809	-1.628876
H	-1.959942	-0.218395	-2.674278
C	-0.474545	-1.224339	0.777206
H	-0.081243	-1.185771	1.796339
H	-1.568176	-1.256772	0.831246
H	-0.109608	-2.144154	0.315539
C	-0.551962	1.285853	0.592065
H	-0.109018	2.157912	0.111451
H	-1.638912	1.328998	0.46831
H	-0.316697	1.331649	1.65954
Cl	3.561046	0.0	0.0
