19

C	-0.357755	-0.038507	-1.487225
C	0.0	0.0	0.0
F	0.00796	1.223105	-2.018408
H	1.097647	0.0	0.0
N	0.396075	-0.985345	-2.267245
H	1.381671	-0.845494	-2.051487
H	0.142708	-1.91745	-1.964423
N	-1.745801	-0.279957	-1.726639
H	-1.894035	-0.212475	-2.727133
H	-2.292987	0.436918	-1.267676
C	-0.460964	-1.263768	0.720067
H	-0.056123	-2.162832	0.249762
H	-1.551579	-1.346562	0.733539
H	-0.093546	-1.250712	1.749619
C	-0.509006	1.248884	0.710476
H	-0.190096	2.150615	0.188812
H	-1.604048	1.255977	0.796472
H	-0.100309	1.283469	1.723789
Cl	3.546227	0.0	0.0
