19

C	-0.360515	0.047832	-1.489275
C	0.0	0.0	0.0
F	-0.127763	-1.254204	-2.003904
H	1.09869	0.0	0.0
N	-1.738275	0.309092	-1.855465
H	-1.982189	1.233042	-1.523325
H	-2.333854	-0.366682	-1.392313
N	0.45456	1.010862	-2.133312
H	1.427661	0.865664	-1.870428
H	0.343439	0.916135	-3.135941
C	-0.515861	-1.248299	0.69837
H	-0.204709	-1.237614	1.745978
H	-1.612466	-1.300056	0.679487
H	-0.116797	-2.149424	0.235466
C	-0.464794	1.26558	0.713275
H	-0.146017	2.156551	0.169678
H	-0.023722	1.306136	1.712529
H	-1.556164	1.288622	0.826843
Cl	3.550372	0.0	0.0
