19

C	-0.345043	0.073186	-1.493137
C	0.0	0.0	0.0
F	-0.195174	-1.204477	-2.030438
H	1.097646	0.0	0.0
N	-1.71906	0.44158	-1.73067
H	-1.80252	0.63854	-2.722007
H	-1.938728	1.287902	-1.221341
N	0.575164	0.888166	-2.266712
H	1.521928	0.572127	-2.052824
H	0.521087	1.840846	-1.922921
C	-0.549247	-1.249405	0.671807
H	-1.638406	-1.298501	0.571346
H	-0.293227	-1.244448	1.735767
H	-0.119157	-2.145745	0.22682
C	-0.437196	1.25769	0.749072
H	-0.121732	2.173423	0.238458
H	0.036167	1.271836	1.733852
H	-1.523131	1.290351	0.899742
Cl	3.545665	0.0	0.0
