19

C	-0.346804	-0.083841	-1.491379
C	0.0	0.0	0.0
F	-0.191162	1.188195	-2.038434
H	1.097646	0.0	0.0
N	0.568818	-0.909501	-2.25961
H	1.517877	-0.600247	-2.044732
H	0.504466	-1.860239	-1.913112
N	-1.722652	-0.447492	-1.724902
H	-1.810355	-0.636906	-2.71818
H	-1.940763	-1.298569	-1.223187
C	-0.437593	-1.251661	0.759249
H	-0.127496	-2.171816	0.253776
H	0.039963	-1.260832	1.741786
H	-1.522726	-1.279592	0.914515
C	-0.54727	1.255401	0.662433
H	-0.12214	2.147933	0.204824
H	-1.637093	1.3015	0.568954
H	-0.283414	1.261862	1.724269
Cl	3.545975	0.0	0.0
