15
Coordinates from ORCA-job run
  C   -0.69305257350637     -0.16785496997696     -0.33578979904303
  C   0.84284423354056     -0.12391140724538     -0.50397146337488
  Cl  -1.30980490138631     -0.96520406847204     -1.81921148775689
  H   1.20128259015231     -1.14065646350427     -0.67495385837264
  C   -1.10068675037209     -0.98334622808855      0.88564520807617
  H   -2.18454077295869     -1.09989429254943      0.89293502354819
  H   -0.79978291888984     -0.47278423544634      1.80243966437072
  H   -0.63422353904021     -1.96921782771672      0.85006719606376
  C   -1.25347207497163      1.18051563437867     -0.27182702907071
  N   -1.73968528742858      2.24759611117934     -0.19137258031769
  N   1.45896173774850      0.31840713995048      0.80565591922720
  O   1.93127199438552     -0.57518495682008      1.50096206092264
  O   1.38541752749786      1.51143326903318      1.07481111806381
  C   1.27007548304771      0.76824777620036     -1.57167465342599
  N   1.62439525218126      1.47085451907775     -2.44371531891067
