15
Coordinates from ORCA-job run
  C   -0.67647469163771     -0.32104808171726     -0.29939481079687
  C   0.77910752126265      0.11300833863646     -0.61409462268228
  Cl  -0.84816174445602     -2.03105659285973     -0.79774087050275
  H   0.97339666457603     -0.02741345870976     -1.67936350698232
  C   -1.08638310860922     -0.16596439598466      1.16004070911212
  H   -0.48159874441065     -0.80934627722673      1.79593935786464
  H   -0.96230976696728      0.87204280263472      1.47577808957012
  H   -2.13553469810176     -0.44563204336778      1.25996353819962
  C   -1.53752508885914      0.49614550348108     -1.15690676486474
  N   -2.22818888641192      1.17090801758578     -1.82750787468132
  N   1.77663805415341     -0.77414038974950      0.09957174620649
  O   2.39766354985536     -1.55837133516164     -0.60679793516713
  O   1.86853857344688     -0.63440295149682      1.31385379513081
  C   1.00296577101486      1.49662629378084     -0.21635313316413
  N   1.15886659514452      2.61864457015500      0.09501228275774
