15
Coordinates from ORCA-job run
  C   -0.58460942247301     -0.32321239579303     -0.13476885392911
  C   0.80659539738925      0.34304313463458     -0.02659656670860
  Cl  -0.40736601536560     -2.08717576442688      0.08553978648729
  H   0.69954628651187      1.40314832880943     -0.27615247288384
  C   -1.51346821152108      0.23021273402012      0.94406820776241
  H   -2.49925000732696     -0.22236156939422      0.83478928920292
  H   -1.12221600997270     -0.00832298782814      1.93373774357559
  H   -1.60844815889707      1.31397204412928      0.83660604558274
  C   -1.16105311787967     -0.06702645206824     -1.45538468490960
  N   -1.69840280747624      0.16146360852728     -2.47540645967115
  N   1.75636627827098     -0.21738126786532     -1.06719511578355
  O   2.57946343725195     -1.04522038480938     -0.70139245231840
  O   1.58363092409320      0.21474136542859     -2.20131524056980
  C   1.37307827564249      0.19032262613935      1.30538734284918
  N   1.79713315175262      0.11479698049657      2.39808343131391
