15
Coordinates from ORCA-job run
  C   -0.55658418766594     -0.39093230563408     -0.05118553362606
  C   0.77529930352744      0.39178024421686     -0.11229515926364
  Cl  -0.23738717680507     -2.04338416695958      0.54773240681169
  H   0.58320776800498      1.36008163828965     -0.58457547350123
  C   -1.53052073669271      0.31000872875438      0.89389922630632
  H   -2.47604951670841     -0.23260676911864      0.90146611018840
  H   -1.12402350079149      0.32700195830789      1.90572740332096
  H   -1.71277123657324      1.33241214491056      0.55269296437723
  C   -1.14827395669555     -0.47787102238517     -1.38700236740592
  N   -1.69901349981153     -0.52241247495135     -2.42444432555245
  N   1.76970309009091     -0.30420988895601     -1.02176831288422
  O   2.65534252211140     -0.96618957481400     -0.49830308827637
  O   1.56582942795469     -0.14183013018510     -2.21962960206306
  C   1.35021449011878      0.57833364829964      1.21170686753461
  N   1.78302720993574      0.77881797022496      2.28497888403376
