16

C	-0.366394	0.102462	-1.464302
C	0.0	0.0	0.0
F	-1.72788	0.576	-1.591156
H	1.092247	0.0	0.0
H	-0.403339	-0.935414	0.424241
C	0.54154	1.100853	-2.143241
H	0.315508	2.091681	-1.748612
H	0.40176	1.098689	-3.231173
H	1.564882	0.832936	-1.859316
N	-0.281873	-1.178099	-2.090083
H	-0.569378	-1.096308	-3.058357
H	-0.911618	-1.81835	-1.620899
N	-0.417243	1.208004	0.71709
H	0.250095	1.358129	1.462227
H	-1.339333	1.099769	1.117777
F	2.757412	0.0	0.0
