16

C	-0.195406	0.145604	-1.505694
C	0.0	0.0	0.0
F	-0.064427	-1.184193	-2.044063
H	1.096427	0.0	0.0
H	-0.471169	-0.918682	0.35198
C	-1.547868	0.626037	-1.986063
H	-1.763899	1.605553	-1.563922
H	-2.324565	-0.073064	-1.668833
H	-1.555756	0.685248	-3.079545
N	0.87266	0.973637	-1.953684
H	1.74058	0.675624	-1.471304
H	0.973373	0.924042	-2.959861
N	-0.561404	1.173816	0.710311
H	-0.308491	1.054539	1.688383
H	0.0137	1.950593	0.397872
F	2.794172	0.0	0.0
