16

C	-0.363452	0.131846	-1.462991
C	0.0	0.0	0.0
F	-1.726224	0.604961	-1.584075
H	1.092233	0.0	0.0
H	-0.403263	-0.944313	0.404369
C	0.545667	1.145236	-2.118427
H	0.417159	1.160275	-3.206807
H	1.567197	0.875257	-1.830103
H	0.314517	2.128667	-1.709509
N	-0.275301	-1.13588	-2.11391
H	-0.906713	-1.785896	-1.661195
H	-0.557133	-1.036041	-3.082123
N	-0.418895	1.192888	0.741164
H	-1.339763	1.074815	1.141739
H	0.248774	1.328848	1.488751
F	2.756105	0.0	0.0
