16

C	-0.224496	-0.11111	-1.506368
C	0.0	0.0	0.0
F	-0.143102	-1.494731	-1.815442
H	1.100933	0.0	0.0
H	-0.352516	0.991133	0.316833
C	-1.580976	0.334276	-2.010239
H	-1.720727	1.405635	-1.838949
H	-1.667726	0.126024	-3.079264
H	-2.353351	-0.209028	-1.462847
N	0.8677	0.518005	-2.210391
H	0.69462	1.515192	-2.251952
H	1.713906	0.379837	-1.627764
N	-0.710129	-1.036617	0.76638
H	-0.37125	-0.969758	1.721306
H	-0.348993	-1.917709	0.417079
F	2.791846	0.0	0.0
