16

C	-0.071088	-0.064504	-1.521373
C	0.0	0.0	0.0
F	-1.363005	-0.406185	-2.003637
H	1.096465	0.0	0.0
H	-0.438293	0.926203	0.383876
C	0.290214	1.282683	-2.117823
H	-0.425614	2.058435	-1.827289
H	0.319691	1.221985	-3.212017
H	1.284707	1.524739	-1.734305
N	0.840288	-1.116636	-1.915753
H	1.034232	-1.03685	-2.907816
H	1.714784	-0.92455	-1.397897
N	-0.540825	-1.168787	0.690746
H	-1.384174	-1.453335	0.20103
H	0.125927	-1.91932	0.55325
F	2.770153	0.0	0.0
