16

C	-0.301144	0.078273	-1.489558
C	0.0	0.0	0.0
F	-1.644967	0.602328	-1.687151
H	1.092702	0.0	0.0
H	-0.356633	0.933256	0.450495
C	0.679446	1.031297	-2.136012
H	0.620927	0.990113	-3.22908
H	0.459894	2.051864	-1.812521
H	1.673424	0.749842	-1.765951
N	-0.236006	-1.205194	-2.106843
H	-0.879269	-1.831954	-1.641524
H	-0.508867	-1.123854	-3.078268
N	-0.550383	-1.137998	0.728729
H	-1.510811	-1.322596	0.457578
H	0.01478	-1.952362	0.526217
F	2.774553	0.0	0.0
