10
Coordinates from ORCA-job run
  C   -0.36693522147200      0.34746078230378      0.05400047339270
  C   1.13205526044570      0.18916476197424     -0.07284139979255
  Br  -1.03871902862771      1.46232692406084     -1.42297399153758
  H   1.36732772852498     -0.34344080377136     -0.99473378213049
  H   -0.62081622041485      0.94109015652326      0.93878352224109
  H   1.51130632604329     -0.38863907378273      0.77697706955134
  H   1.63071868944520      1.15805046833962     -0.07855324918452
  N   -1.01748325238648     -0.93538410417020     -0.02419665507511
  H   -0.59184549417777     -1.57276105944524      0.63880859618514
  H   -2.00460878738035     -0.85686805203222      0.18472941634999
