10
Coordinates from ORCA-job run
  C   -0.30215047804191      0.30825473382377      0.25481433494276
  C   1.14127127685464      0.18011308545287     -0.17623864876941
  Br  -1.23266847307716      1.51007786313614     -1.10264014427275
  H   1.61192784691161      1.15826502699771     -0.26590796969157
  H   -0.40513759696408      0.88888473063057      1.16991468515199
  H   1.20884916806431     -0.32102361584658     -1.14432127909252
  H   1.67540462265678     -0.41527733088843      0.56812854827291
  N   -0.92416757371966     -0.94686222332810      0.41365948766905
  H   -1.88496084932226     -0.86703732562539      0.71734618358816
  H   -0.88736794336228     -1.49539494435254     -0.43575519779861
