15

C	-0.323859	0.150915	-1.462944
C	0.0	0.0	0.0
Cl	-2.235147	0.765701	-1.603705
H	1.088856	0.0	0.0
H	-0.410449	-0.909725	0.429192
N	0.487584	1.098544	-2.085818
H	1.362104	1.187702	-1.563309
H	0.672539	0.875079	-3.052998
N	-0.31158	-1.132792	-2.070122
H	-0.484053	-1.052234	-3.065237
H	-1.032936	-1.715347	-1.669248
N	-0.408555	1.108635	0.858109
O	-0.172902	2.253831	0.478464
O	-0.871977	0.819672	1.966762
H	2.663274	0.0	0.0
