15

C	-0.291922	-0.154375	-1.474569
C	0.0	0.0	0.0
Cl	-2.073403	-0.958287	-1.715885
H	1.088856	0.0	0.0
H	-0.417572	0.912379	0.415083
N	-0.374204	1.152358	-2.045947
H	-0.429337	1.092322	-3.05419
H	-1.199722	1.635312	-1.712696
N	0.642178	-1.005177	-2.074308
H	0.714434	-0.861474	-3.072813
H	1.551238	-0.891778	-1.602372
N	-0.420971	-1.103186	0.861681
O	-0.152887	-2.251046	0.515068
O	-0.947032	-0.800335	1.940507
H	2.679811	0.0	0.0
