15

C	-0.231682	-0.018899	-1.496412
C	0.0	0.0	0.0
Cl	-2.00381	0.174611	-1.940758
H	1.090589	0.0	0.0
H	-0.419922	0.901148	0.434749
N	0.434858	1.185979	-1.947613
H	1.408135	1.094296	-1.633328
H	0.420787	1.210133	-2.962297
N	0.19427	-1.274557	-2.053367
H	0.308837	-1.162924	-3.052598
H	1.100217	-1.492433	-1.641538
N	-0.520135	-1.147341	0.744695
O	-1.41392	-0.931598	1.573468
O	-0.007769	-2.250387	0.550635
H	2.742062	0.0	0.0
