15

C	-0.34828	0.122327	-1.489355
C	0.0	0.0	0.0
Cl	-0.559787	-1.745618	-2.007214
H	1.088169	0.0	0.0
H	-0.400955	-0.882118	0.485149
N	-1.602865	0.693316	-1.903874
H	-2.367988	0.197351	-1.465319
H	-1.590135	1.653158	-1.576088
N	0.693859	0.74648	-2.140029
H	0.627701	0.704401	-3.145405
H	1.612909	0.518583	-1.745781
N	-0.430076	1.149211	0.792504
O	-0.685927	0.942665	1.985491
O	-0.43082	2.274401	0.275123
H	2.687739	0.0	0.0
