15

C	-0.408973	-0.128388	-1.466732
C	0.0	0.0	0.0
Cl	-0.196959	1.561198	-2.218627
H	1.086739	0.0	0.0
H	-0.373603	-0.890699	0.513744
N	0.509379	-0.979098	-2.170743
H	1.461826	-0.718091	-1.892222
H	0.343318	-1.922814	-1.835803
N	-1.731143	-0.619245	-1.639318
H	-1.971212	-0.584619	-2.622848
H	-2.373102	-0.051479	-1.099852
N	-0.623304	1.151183	0.689505
O	0.091296	2.002086	1.205521
O	-1.862923	1.177086	0.711759
H	2.876632	0.0	0.0
