15

C	-0.39139	0.063302	-1.468828
C	0.0	0.0	0.0
Cl	-0.097141	-1.53235	-2.332974
H	1.089524	0.0	0.0
H	-0.350822	0.925394	0.45781
N	-1.81137	0.299651	-1.640716
H	-2.03735	0.274649	-2.62962
H	-1.983618	1.242344	-1.305291
N	0.447696	1.09566	-1.994788
H	1.413282	0.931067	-1.68215
H	0.41969	1.089803	-3.007744
N	-0.591073	-1.083593	0.787457
O	-1.397474	-0.764731	1.671982
O	-0.223545	-2.237912	0.574067
H	2.76138	0.0	0.0
