15

C	-0.351321	0.159753	-1.475968
C	0.0	0.0	0.0
Cl	-0.428363	-1.627148	-2.124882
H	1.087519	0.0	0.0
H	-0.408434	-0.899607	0.445362
N	-1.692643	0.643134	-1.71973
H	-1.660959	1.632858	-1.493572
H	-1.902044	0.544597	-2.707529
N	0.677658	0.880595	-2.099042
H	1.596036	0.639798	-1.703951
H	0.66098	0.803742	-3.107242
N	-0.439528	1.119883	0.835864
O	-0.556618	2.245559	0.339601
O	-0.59484	0.881048	2.037625
H	2.718883	0.0	0.0
