15

C	-0.265789	-0.049863	-1.493204
C	0.0	0.0	0.0
Cl	-2.08796	0.259765	-1.794144
H	1.090482	0.0	0.0
H	-0.402992	0.914069	0.428363
N	0.421527	1.056127	-2.131669
H	0.051026	1.93498	-1.785004
H	1.392973	0.979277	-1.805122
N	0.118356	-1.275133	-2.078511
H	0.788073	-1.761491	-1.496061
H	0.493317	-1.086285	-2.997684
N	-0.501258	-1.110408	0.805503
O	-1.225844	-0.845088	1.772275
O	-0.113225	-2.249412	0.526384
H	2.70725	0.0	0.0
