15

C	-0.401447	-0.047498	-1.471944
C	0.0	0.0	0.0
Cl	-0.055369	1.701662	-2.047542
H	1.090251	0.0	0.0
H	-0.408008	0.852117	0.538034
N	0.409955	-0.891966	-2.299982
H	1.381956	-0.655102	-2.089987
H	0.267044	-1.827894	-1.928715
N	-1.764426	-0.389736	-1.661811
H	-1.968899	-0.379099	-2.653641
H	-2.370907	0.257854	-1.174856
N	-0.422733	-1.198614	0.718708
O	-0.189743	-2.302135	0.211398
O	-0.91545	-1.054875	1.845619
H	2.691626	0.0	0.0
