17
Coordinates from ORCA-job run
  C   0.56652308017014     -0.05041563897869      0.16795398116807
  C   -0.75148756279298      0.12540918796081     -0.07849048929220
  C   1.62760602205013     -0.19556162689329     -0.88676649980332
  H   2.18920648169370     -1.12478655125361     -0.73607151677339
  H   1.23270356384320     -0.21862835868678     -1.90202801722142
  H   2.35504850156905      0.62285707502435     -0.82794843471637
  C   1.04986546778028     -0.12862563256884      1.59584075752775
  H   0.83262212739821     -1.10119894460511      2.05792626288193
  H   2.13209163681678      0.01105291884725      1.64673044861763
  H   0.58950693665743      0.64438951664804      2.21952805606343
  N   -1.67965260259144      0.27269129552826      0.97734469643016
  H   -1.42473739084869     -0.23663816082113      1.81109751232704
  H   -2.61971552782090      0.02957350972440      0.69915266551745
  C   -1.38761087869554      0.29875353707225     -1.42766598313830
  H   -2.03952767426964     -0.54976531833672     -1.66576429152890
  H   -2.01149227423813      1.19828756747903     -1.42235282199197
  H   -0.66094990672160      0.40360562385981     -2.22948632606759
