17
Coordinates from ORCA-job run
  C   0.57868926162253     -0.03719864068477      0.12461424307590
  C   -0.71064955663363      0.18243857022452     -0.21866663521156
  C   1.51515939920711      1.13666475807267      0.27881289445193
  H   2.55607336108462      0.80544906710958      0.27219832617859
  H   1.35779147242887      1.67385901712931      1.22395687329279
  H   1.39500789824683      1.85802215429361     -0.53574397870191
  C   1.18121602359968     -1.38883038080531      0.38840360148293
  H   0.45659655825541     -2.20204341224996      0.36009342272532
  H   1.65247289327405     -1.40858575197756      1.37780998709187
  H   1.96993933753445     -1.61639826021482     -0.33864724092234
  N   -1.18821050651472      1.48889220194462     -0.47030229891339
  H   -2.18857531109256      1.56194591480587     -0.35135835259958
  H   -0.72415158764906      2.19922646019806      0.07706527078722
  C   -1.74983167141278     -0.86752183020812     -0.48803310193340
  H   -2.54798135253328     -0.82917535704446      0.26255437497897
  H   -1.34406667905835     -1.87601239655098     -0.49838269836154
  H   -2.21047954035920     -0.68073211404226     -1.46337468742181
