17
Coordinates from ORCA-job run
  C   0.56566727991954     -0.02883335436408      0.17669591896664
  C   -0.76015526506177      0.04682598612660     -0.07926902749420
  C   1.03373034046173     -0.46731129941543      1.54305241740952
  H   0.45474284587909      0.01088446114613      2.33953017938959
  H   2.08248620206600     -0.20292204890498      1.69658492593626
  H   0.95572036244880     -1.55414202797824      1.68226909375164
  C   1.65215933014729      0.28189488218821     -0.81461875690363
  H   1.27973005749767      0.49306835556762     -1.81658019580836
  H   2.34389905246591     -0.56420944875933     -0.89786851821535
  H   2.24833234968297      1.14282693044655     -0.48911576508936
  N   -1.71608064583200     -0.24643373588121      0.91994795069714
  H   -2.61074845952801     -0.50774400047104      0.53077882832462
  H   -1.40864069716332     -0.94821815115549      1.57757991845976
  C   -1.39286413544136      0.53841061879904     -1.34944976952300
  H   -2.12864697361755      1.31334242125357     -1.11184039973021
  H   -1.92510859553699     -0.27171829701102     -1.86148114212195
  H   -0.67422304838802      0.96427870841311     -2.04521565804910
