17
Coordinates from ORCA-job run
  C   0.57464044041528     -0.07376430161763      0.12823722071645
  C   -0.69804566252537      0.23041832170587     -0.21282444965435
  C   1.56047388705252      1.04102722184383      0.38148679166960
  H   1.48632251385019      1.82391662920993     -0.38002175583651
  H   2.58530174244097      0.66336918051601      0.36570315563112
  H   1.41134469524860      1.51574325738476      1.36083328428864
  C   1.11090729648052     -1.46773385059356      0.29728049824334
  H   1.55815656303438     -1.58612700863357      1.29095460210389
  H   0.35201623583294     -2.24225118992913      0.19055910931082
  H   1.90526205516793     -1.67362460831058     -0.43007641570879
  N   -1.11162209785083      1.57331758750152     -0.37020798279447
  H   -0.62402473077093      2.21699351840825      0.23605787231109
  H   -2.10926073634669      1.68278788685527     -0.25599782322710
  C   -1.77978222201195     -0.74630120657372     -0.57408258030751
  H   -2.21438876635602     -0.46605727918027     -1.53895434478297
  H   -2.58809053901473     -0.72666418732259      0.16619624650570
  H   -1.42021067464682     -1.76904997126441     -0.65514342846896
