17
Coordinates from ORCA-job run
  C   0.56098621400768      0.05614313630501      0.18508263834505
  C   -0.75775802488247     -0.04898152348194     -0.09493414013023
  C   1.63220911834285      0.37652956346391     -0.81934759581493
  H   1.26173221820973      0.46004414778522     -1.84058156856094
  H   2.13666366056978      1.31709220196199     -0.56780265741843
  H   2.40328517018960     -0.40254571100750     -0.81616265879626
  C   1.03952835461325     -0.17742125729146      1.59753018740911
  H   2.04885221778372      0.21722191007071      1.73479628953986
  H   0.39147245149507      0.31691786295488      2.32820376495439
  H   1.07753860527482     -1.24454415750960      1.85521281596575
  N   -1.69973287476546     -0.33667599484025      0.91957796817551
  H   -1.33190686870069     -0.92455238368763      1.65354156074700
  H   -2.54934024599967     -0.73924752612889      0.55031651618977
  C   -1.41107376522754      0.22780543775456     -1.41824833099518
  H   -1.85543691701813     -0.68451228198203     -1.83292058716640
  H   -2.22098929200745      0.95111316941720     -1.27925773078341
  H   -0.72403002188508      0.63461340621582     -2.15600647166066
