18

C	0.0	0.0	0.0
C	-0.517058	0.117277	-1.44243
Cl	1.791355	0.0	0.0
H	-1.612361	0.109417	-1.33459
C	-0.483343	1.190876	0.808621
H	-0.118823	1.110369	1.835882
H	-0.130649	2.122346	0.366788
H	-1.577414	1.177871	0.809812
C	-0.478858	-1.304085	0.614998
H	-0.095891	-2.169842	0.069836
H	-0.13821	-1.368417	1.651515
H	-1.573378	-1.305485	0.595696
C	-0.127406	-1.058177	-2.247369
N	0.219572	-1.939569	-2.944502
N	-0.118965	1.370656	-2.069557
H	0.843413	1.306253	-2.382119
H	-0.708768	1.540868	-2.875209
Br	-3.97279	0.0	0.0
