16

C	0.0	0.0	0.0
C	-0.471054	-0.195316	-1.438636
Cl	1.795432	0.0	0.0
H	-1.557468	-0.042707	-1.41226
H	-0.020084	0.591431	-2.051667
C	-0.446104	1.361021	0.512101
H	-0.072484	2.162977	-0.129817
H	-1.538759	1.373182	0.523562
H	-0.067331	1.525099	1.524442
N	-0.482846	-1.111872	0.791766
H	-1.506074	-1.065377	0.736398
H	-0.226855	-0.962854	1.761466
N	-0.083806	-1.510857	-1.961878
H	-0.136696	-2.154173	-1.176551
H	-0.800071	-1.802825	-2.617123
Br	-3.927878	0.0	0.0
