16

C	0.0	0.0	0.0
C	-0.454529	-0.106592	-1.4448
Cl	1.888634	0.0	0.0
H	-1.547051	-0.034399	-1.392773
H	-0.058478	0.749188	-2.007024
C	-0.435729	1.2994	0.635982
H	-1.530341	1.308312	0.622708
H	-0.083603	1.357272	1.669169
H	-0.036425	2.155097	0.087476
N	-0.471496	-1.10801	0.705222
H	-0.172124	-1.144249	1.667099
H	-0.301754	-1.966276	0.199788
N	-0.087621	-1.405496	-2.006348
H	-0.747833	-1.659537	-2.728748
H	0.83847	-1.358984	-2.411653
Br	-4.161949	0.0	0.0
