16

C	0.0	0.0	0.0
C	-0.448428	-0.214049	-1.446095
Cl	1.869567	0.0	0.0
H	0.043889	0.535012	-2.073597
H	-1.528253	-0.027032	-1.441759
C	-0.459884	1.34238	0.51997
H	-0.085492	1.516604	1.532365
H	-0.098328	2.146734	-0.123295
H	-1.555096	1.322748	0.526568
N	-0.473867	-1.038804	0.821533
H	-0.123414	-1.944506	0.547986
H	-0.306979	-0.872612	1.80318
N	-0.219469	-1.536421	-2.004447
H	-0.886728	-2.183859	-1.606229
H	0.722535	-1.850238	-1.804729
Br	-4.103577	0.0	0.0
