16

C	0.0	0.0	0.0
C	-0.318921	-0.374186	-1.473194
Cl	1.79913	0.0	0.0
H	0.29314	-1.252038	-1.696472
H	0.058247	0.445408	-2.095795
C	-0.489273	1.388006	0.375927
H	-0.185797	1.634462	1.397699
H	-0.092899	2.151558	-0.298598
H	-1.583104	1.387585	0.330907
N	-0.486306	-1.050051	0.86645
H	-0.282687	-0.80531	1.830851
H	-1.503646	-1.043312	0.773733
N	-1.677212	-0.675184	-1.844993
H	-2.34967	0.025409	-1.551832
H	-1.989497	-1.530828	-1.405224
Br	-4.363256	0.0	0.0
