14

C	-0.304852	-0.065369	-1.506434
C	0.0	0.0	0.0
F	0.312222	-1.119032	-2.122551
H	1.092378	0.0	0.0
C	-1.760107	-0.174742	-1.752349
N	-2.913806	-0.26595	-1.958965
C	0.192059	1.180041	-2.13173
N	0.556851	2.17137	-2.645368
N	-0.465767	-1.173066	0.711228
O	-1.060347	-1.025775	1.790012
O	-0.117991	-2.263978	0.232449
C	-0.536694	1.218788	0.552623
N	-0.886609	2.266817	0.961911
H	2.347611	0.0	0.0
