14

C	-0.348151	-0.062467	-1.487447
C	0.0	0.0	0.0
F	-0.151999	1.207557	-2.005333
H	1.094676	0.0	0.0
C	0.519024	-0.984569	-2.250648
N	1.151938	-1.684433	-2.950444
C	-1.760901	-0.418551	-1.713271
N	-2.900482	-0.631539	-1.904808
N	-0.378654	-1.200852	0.68095
O	-0.422631	-1.184382	1.918446
O	-0.452648	-2.225834	-0.026809
C	-0.496768	1.187032	0.63965
N	-0.843722	2.18951	1.149324
H	2.303433	0.0	0.0
