14

C	-0.316509	0.118451	-1.489326
C	0.0	0.0	0.0
F	-0.123858	1.444923	-1.84085
H	1.109339	0.0	0.0
C	0.577106	-0.69575	-2.344858
N	1.181259	-1.27932	-3.166819
C	-1.717988	-0.220553	-1.80021
N	-2.842373	-0.411078	-2.084704
N	-0.370619	-1.276036	0.520623
O	-0.426095	-2.205846	-0.313157
O	-0.423453	-1.418768	1.751045
C	-0.494673	1.099811	0.778709
N	-0.831846	2.035004	1.409081
H	2.285605	0.0	0.0
