14

C	-0.337731	-0.045618	-1.490507
C	0.0	0.0	0.0
F	-0.14095	1.231504	-1.990232
H	1.095326	0.0	0.0
C	0.540426	-0.957167	-2.257924
N	1.147068	-1.621839	-3.01338
C	-1.747274	-0.40376	-1.735006
N	-2.885248	-0.614572	-1.937271
N	-0.368913	-1.212005	0.664174
O	-0.385052	-1.217124	1.90398
O	-0.456832	-2.2259	-0.059727
C	-0.49957	1.176896	0.656657
N	-0.861584	2.176249	1.162114
H	2.301608	0.0	0.0
