14

C	-0.39461	-0.11746	-1.455723
C	0.0	0.0	0.0
F	-1.773178	-0.198879	-1.617814
H	1.100894	0.0	0.0
C	0.067304	1.100009	-2.153525
N	0.427166	2.066561	-2.71516
C	0.20304	-1.274721	-2.150996
N	0.61047	-2.115882	-2.863109
N	-0.374497	-1.146807	0.791002
O	-0.398684	-0.997375	2.02
O	-0.48222	-2.234609	0.203635
C	-0.46278	1.230224	0.590647
N	-0.774181	2.274611	1.034654
H	2.323503	0.0	0.0
