11

C	-0.594767	-0.060023	-1.383848
C	0.0	0.0	0.0
Br	-0.148168	1.505067	-2.449471
H	1.08764	0.0	0.0
H	-1.679936	-0.113054	-1.358237
H	-0.175424	-0.918173	-1.907246
H	-0.340287	-0.883906	0.552517
N	-0.556051	1.151777	0.770336
O	-1.769114	1.351901	0.664611
O	0.197981	1.790851	1.492937
Cl	3.393772	0.0	0.0
