13

C	0.0	0.0	0.0
C	-0.384195	0.046806	-1.551735
Br	1.946077	0.0	0.0
H	0.47112	-0.394497	-2.069473
H	-0.376142	0.85013	0.561269
C	-0.421164	-1.25959	0.59801
N	-0.57676	-2.336663	1.043893
C	-0.397298	1.467872	-1.939823
N	-0.393576	2.590637	-2.282312
N	-1.574534	-0.616734	-2.011381
H	-2.308482	-0.368534	-1.281125
H	-1.419063	-1.618225	-1.918998
H	-2.834685	0.0	0.0
