12

C	-0.513567	0.004935	-1.586053
C	0.114899	-0.025721	-0.198893
Br	-2.483273	-0.134275	-1.479434
H	1.205084	-0.062737	-0.298739
H	-0.22104	-0.864283	-2.181471
H	-0.183693	-0.97676	0.271442
C	-0.196822	1.216189	-2.334386
N	0.081451	2.14032	-3.003648
N	-0.159448	1.167275	0.563573
H	-0.979838	1.016296	1.139537
H	0.707894	1.178254	1.18036
F	2.083657	0.599231	1.631193
