12

C	-0.714375	-0.049625	-1.462635
C	0.125438	0.032439	-0.187863
Br	-0.745561	1.668458	-2.454625
H	1.183129	0.202443	-0.427263
H	-1.759878	-0.233566	-1.209906
H	-0.221085	0.906983	0.384032
C	-0.259406	-1.089634	-2.377544
N	0.089292	-1.891287	-3.162058
N	0.021793	-1.245034	0.475615
H	0.960455	-1.251944	1.039426
H	-0.739336	-1.199516	1.145814
F	2.186118	-0.763417	1.628066
