12

C	-0.494476	-0.017677	-1.500028
C	-0.047552	-0.180048	-0.032123
Br	0.484881	1.375509	-2.452723
H	1.020957	-0.406438	-0.006477
H	-1.538708	0.30814	-1.524517
H	-0.624094	-1.052814	0.32409
C	-0.394503	-1.264077	-2.252773
N	-0.336544	-2.29389	-2.816502
N	-0.215148	0.985241	0.79318
H	-0.955589	1.581645	0.441045
H	0.746425	1.445194	0.71616
F	2.231144	1.473826	0.368499
