16

C	-0.120877	0.144473	-1.532811
C	0.0	0.0	0.0
Br	-1.828995	0.945661	-2.179897
H	1.096022	0.0	0.0
N	0.969708	0.881429	-1.961719
H	1.108994	0.861971	-2.961174
H	1.813771	0.618055	-1.40033
N	-0.15211	-1.329905	-2.090605
O	-1.213942	-1.923951	-2.203807
O	0.959221	-1.794107	-2.326831
N	-0.507575	-1.24271	0.53145
H	0.067566	-1.510133	1.319157
H	-1.471675	-1.161735	0.828289
C	-0.473342	1.20179	0.677108
N	-0.866275	2.11233	1.309941
F	2.621046	0.0	0.0
