16

C	0.0	0.0	0.0
C	-0.502823	-0.225889	-1.420902
Cl	1.765076	0.0	0.0
H	-1.558743	-0.491978	-1.319672
H	0.035666	-1.067139	-1.857152
N	-0.507064	1.112677	0.716009
H	-1.529562	1.010347	0.727167
H	-0.268007	1.959934	0.214939
N	-0.357179	-1.26976	0.823529
O	-0.231338	-2.338318	0.234124
O	-0.681951	-1.130369	1.991435
C	-0.377461	1.024102	-2.281141
H	0.638612	1.430918	-2.274966
H	-1.075421	1.792673	-1.943344
H	-0.634939	0.785299	-3.315143
Cl	-3.609781	0.0	0.0
