16

C	0.0	0.0	0.0
C	-0.495722	0.154952	-1.419665
Cl	1.837731	0.0	0.0
H	-1.566482	-0.065127	-1.379181
H	-0.008729	-0.595768	-2.039679
N	-0.528988	0.936772	0.882184
H	-1.548776	0.915844	0.7438
H	-0.326258	0.671685	1.837399
N	-0.264764	-1.47397	0.473315
O	-0.420011	-1.634723	1.678313
O	-0.245246	-2.361293	-0.367055
C	-0.268284	1.561107	-1.95924
H	0.795641	1.810105	-1.993959
H	-0.777737	2.295302	-1.335646
H	-0.672751	1.632219	-2.972349
Cl	-3.597829	0.0	0.0
