16

C	0.0	0.0	0.0
C	-0.489462	0.040645	-1.449582
Cl	1.781511	0.0	0.0
H	-0.170386	1.031526	-1.796375
H	-1.582377	0.060213	-1.381542
N	-0.495344	1.051884	0.81897
H	-1.51532	0.926867	0.846662
H	-0.301322	1.92695	0.343793
N	-0.386605	-1.31996	0.693105
O	-0.741826	-1.271421	1.858918
O	-0.253041	-2.338715	0.023626
C	-0.025802	-1.009589	-2.454528
H	-0.564621	-1.944279	-2.322915
H	-0.22281	-0.638319	-3.464577
H	1.042958	-1.215096	-2.37302
Cl	-3.590444	0.0	0.0
