16

C	0.0	0.0	0.0
C	-0.540921	0.026084	-1.424572
Cl	1.767056	0.0	0.0
H	-1.613264	-0.170253	-1.333042
H	-0.438022	1.074825	-1.717839
N	-0.531124	1.065139	0.743397
H	-1.551615	1.020185	0.621248
H	-0.322728	0.929797	1.726068
N	-0.31297	-1.374586	0.698879
O	-0.386618	-1.345296	1.922667
O	-0.409148	-2.380252	0.007746
C	0.094742	-0.863182	-2.484548
H	-0.063065	-1.917476	-2.270202
H	1.167271	-0.681984	-2.585028
H	-0.372714	-0.635598	-3.447264
Cl	-3.648829	0.0	0.0
