16

C	0.0	0.0	0.0
C	-0.524176	0.034444	-1.426208
Cl	1.827412	0.0	0.0
H	-0.510322	1.095468	-1.692125
H	-1.578177	-0.251021	-1.35211
N	-0.52402	1.043819	0.764415
H	-0.340292	0.874098	1.74637
H	-1.542626	1.027455	0.615021
N	-0.281666	-1.389143	0.672782
O	-0.314564	-1.3906	1.898367
O	-0.411402	-2.37445	-0.041288
C	0.198779	-0.77182	-2.497999
H	0.244951	-1.828295	-2.241186
H	1.213498	-0.406054	-2.669233
H	-0.356801	-0.672767	-3.434862
Cl	-3.6163	0.0	0.0
