14

C	-0.436413	-0.128742	-1.416081
C	0.0	0.0	0.0
F	-0.088904	-1.324283	-1.909371
H	1.099072	0.0	0.0
H	-0.302834	-0.924459	0.499821
N	-1.962181	-0.040599	-1.601084
O	-2.429357	0.892163	-2.247367
O	-2.588108	-0.943375	-1.058105
N	0.142396	0.946245	-2.322609
O	0.195272	2.07099	-1.847842
O	0.475422	0.59367	-3.444786
C	-0.556588	1.132589	0.707511
N	-0.980633	2.018114	1.354936
H	2.586216	0.0	0.0
