14

C	-0.527768	0.029627	-1.387852
C	0.0	0.0	0.0
F	-1.875971	0.1368	-1.497648
H	1.091761	0.0	0.0
H	-0.284654	-0.942194	0.472318
N	0.080158	1.192137	-2.153825
O	1.18933	0.990694	-2.631058
O	-0.562331	2.237209	-2.146503
N	-0.15418	-1.21111	-2.176814
O	0.419293	-2.120105	-1.589496
O	-0.509866	-1.199111	-3.352377
C	-0.504849	1.120594	0.768712
N	-0.858119	2.025703	1.430673
H	2.5803	0.0	0.0
