14

C	-0.415084	0.016811	-1.42817
C	0.0	0.0	0.0
F	-0.122763	-1.100698	-2.082
H	1.094625	0.0	0.0
H	-0.319988	0.922693	0.482424
N	-1.914668	0.281985	-1.674231
O	-2.342442	-0.060949	-2.7714
O	-2.54314	0.825303	-0.777498
N	0.246521	1.187598	-2.158518
O	0.873586	0.93685	-3.173042
O	0.045327	2.28433	-1.651654
C	-0.544725	-1.157684	0.673842
N	-0.953635	-2.108006	1.231467
H	2.601195	0.0	0.0
