14

C	-0.424619	0.065838	-1.419893
C	0.0	0.0	0.0
F	-0.216416	1.252505	-1.990958
H	1.105761	0.0	0.0
H	-0.310981	-0.953731	0.428197
N	0.318369	-0.996539	-2.228262
O	1.071616	-0.621724	-3.109
O	0.069642	-2.148158	-1.889082
N	-1.901879	-0.282194	-1.695388
O	-2.580541	-0.697415	-0.765561
O	-2.270102	-0.107398	-2.853041
C	-0.532795	1.10933	0.758699
N	-0.919963	2.01967	1.394899
H	2.582076	0.0	0.0
