14

C	0.0	0.0	0.0
C	-0.567026	0.076502	-1.429356
Br	1.918794	0.0	0.0
H	-1.656337	-0.037228	-1.271991
H	-0.354352	0.825058	0.615249
N	-0.417573	-1.253112	0.732978
O	-0.450199	-1.165993	1.953342
O	-0.632509	-2.265586	0.074166
N	-0.099529	-0.872693	-2.416933
H	-0.425827	-1.788561	-2.140542
H	0.913147	-0.886996	-2.439318
C	-0.320521	1.440048	-1.907186
N	-0.07775	2.522916	-2.291776
Cl	-3.418091	0.0	0.0
