14

C	0.0	0.0	0.0
C	-0.552841	0.133269	-1.450872
Br	1.925642	0.0	0.0
H	-0.428813	1.199905	-1.684518
H	-0.371466	0.787516	0.65286
N	-0.424164	-1.299345	0.629215
O	-0.405663	-2.293248	-0.088434
O	-0.723193	-1.258526	1.816765
N	-1.917904	-0.232959	-1.67142
H	-2.623817	0.230415	-1.089434
H	-2.058788	-1.226533	-1.543842
C	0.282799	-0.600336	-2.422554
N	0.897438	-1.157439	-3.253559
Cl	-4.525584	0.0	0.0
