14

C	0.0	0.0	0.0
C	-0.547178	0.137615	-1.450583
Br	1.924088	0.0	0.0
H	-0.399605	1.200178	-1.687449
H	-0.371243	0.787081	0.65338
N	-0.422172	-1.299686	0.629913
O	-0.454503	-2.285654	-0.099774
O	-0.666963	-1.268817	1.830621
N	-1.919029	-0.198344	-1.676317
H	-2.086305	-1.185516	-1.531012
H	-2.611117	0.288834	-1.098678
C	0.277334	-0.615733	-2.416612
N	0.893816	-1.179047	-3.2418
Cl	-4.524925	0.0	0.0
