14
Coordinates from ORCA-job run
  C   0.41778084258424     -0.40347225812141      0.01786128626230
  C   -1.02571090053728      0.01762371997279      0.08892903070215
  F   0.61382601414821     -1.35933605347498     -0.89612296181637
  H   -1.11833268216112      0.76332495269001      0.87587322741654
  H   -1.61273788304574     -0.86245642067569      0.38113167927256
  N   0.97310152859880     -0.91540010200441      1.33427316512993
  O   0.27258712507388     -0.77296746716005      2.33008367707578
  O   2.08522095979923     -1.42380528114645      1.26928706099413
  N   1.29099377485558      0.78980079730823     -0.33276669080093
  O   1.24293721569885      1.69667758372004      0.48894794053869
  O   1.93284970373245      0.73773182457369     -1.36597725435846
  N   -1.35280934111068      0.60339004101391     -1.19850110866452
  H   -1.58488181157640     -0.10848765917370     -1.87717661336308
  H   -2.13382454606002      1.23737632247802     -1.11484243838873
