14
Coordinates from ORCA-job run
  C   0.35586478743149      0.07017569484031      0.49653988287734
  C   -0.99693730344470     -0.22227916387354     -0.11009240717406
  F   0.29357148900220      1.00081122125569      1.45401598063556
  H   -1.66844814112770     -0.46885594030123      0.71549325555637
  H   -0.90637099443459     -1.10557029121113     -0.74179048737415
  N   1.30923177666355      0.53757342788309     -0.58211068074309
  O   1.85549502908418      1.61612018426415     -0.43986703243233
  O   1.42025181924817     -0.25257710781019     -1.51309656357363
  N   1.01954955172672     -1.14623512420501      1.11509009042354
  O   0.28310348236449     -2.08576056453004      1.39841821528251
  O   2.22176654020923     -1.05241528292891      1.33057926571860
  N   -1.39967902330001      0.96246095714739     -0.84777363974846
  H   -2.22222535516029      1.39272735728859     -0.45521690298879
  H   -1.56617365826273      0.75382463218082     -1.82018897645941
