14
Coordinates from ORCA-job run
  C   0.51436130268287     -0.55259985652272      0.04486436396480
  C   -0.93069095427355     -0.46258265772359     -0.38351129181353
  F   1.01676815850216     -1.77517102935357     -0.17535276230793
  H   -1.51207069151390     -1.10601282798846      0.28945916522220
  H   -0.94994141039661     -0.90751931626610     -1.38118658521651
  N   0.73687939234964     -0.23278345255848      1.51010550533284
  O   -0.17300545612603      0.34894276329955      2.09236777329059
  O   1.80881118873378     -0.58935610612277      1.97659896500078
  N   1.33939719673072      0.45204325986731     -0.74168001495998
  O   1.72628084406066      1.45256847079142     -0.15770832034230
  O   1.49650764245091      0.15251700831263     -1.91601278898943
  N   -1.34260343727203      0.92157490472281     -0.46512727990767
  H   -2.09264113797956      1.03528578265266     -1.13069934630269
  H   -1.63805263794905      1.26309305688932      0.43788261702883
