14
Coordinates from ORCA-job run
  C   0.50764413962082     -0.55981829587886      0.03351508656192
  C   -0.93702395730823     -0.44361116253761     -0.38997545252488
  F   0.99427876423618     -1.78424676400954     -0.21021195756268
  H   -0.96442607965683     -0.86929351568136     -1.39578487802914
  H   -1.52551520141347     -1.09168070009262      0.27219014135620
  N   0.73691210200990     -0.26980305955943      1.50367813595729
  O   1.80587622329370     -0.64715596395858      1.96063080618273
  O   -0.16530454294867      0.31026274690032      2.09929775584989
  N   1.34328584629410      0.44877831191297     -0.73635109523339
  O   1.49391583713057      0.16910533512160     -1.91642865770346
  O   1.74460437085837      1.43327252182025     -0.13523424171559
  N   -1.33112286140941      0.94727375527587     -0.44413665590029
  H   -1.62210715526830      1.27450815502558      0.46560013124897
  H   -2.08001748543872      1.08340863566141     -1.10678911848756
