13
Coordinates from ORCA-job run
  C   -0.55788283568760      0.06700764048623      0.31860340480581
  C   0.83177002113171     -0.03295424446284     -0.27035835548605
  Cl  -0.88383654952208      1.77735407575700      0.73524119249763
  H   1.04634043083891     -1.06709373009347     -0.55215626320008
  H   -0.58364098134689     -0.48302557031377      1.25926242268629
  H   0.96646581068260      0.63356179341545     -1.12037905109860
  C   -1.60727891788128     -0.44332654328736     -0.65003797085172
  H   -1.58088925034297      0.12084407451375     -1.58436837075835
  H   -1.43249609447775     -1.50030507999725     -0.86908623496359
  H   -2.60335606335320     -0.34164640870923     -0.21860951704427
  N   1.87323120948149      0.33943125077954      0.73484244686827
  O   1.79853163141510     -0.21045151424535      1.83022007746364
  O   2.73304158906198      1.14260425615732      0.38682621908101
