13
Coordinates from ORCA-job run
  C   -0.69594873940893      0.21069511966233      0.50504598964716
  C   0.77183499001871     -0.07129751513682      0.79211619596906
  Cl  -0.95189814121761      1.97697187487590      0.36140078233833
  H   0.91162001389138     -1.14095449749050      0.95802970203100
  H   -1.23893907449858     -0.09218380838365      1.40413483722875
  H   1.12058701877927      0.50698999417335      1.64530613068400
  C   -1.26804983591031     -0.49906027616470     -0.70705982226350
  H   -0.80898011937272     -0.14441792908748     -1.62846504656592
  H   -1.09193383452577     -1.57478849741353     -0.62922767487476
  H   -2.34260106549906     -0.32098872676419     -0.76174144992331
  N   1.64950568586947      0.29302937083903     -0.35598418173366
  O   1.65154567137750     -0.47930969437552     -1.31430377784517
  O   2.29325743049664      1.33531458526579     -0.27025168469198
