13
Coordinates from ORCA-job run
  C   -0.69979919106899      0.21117426104213      0.49950378731204
  C   0.77019437556532     -0.04817526819291      0.79633202196371
  Cl  -0.97676366916759      1.97150233211325      0.32508162359466
  H   0.92223423149412     -1.11279485181342      0.98254265653460
  H   -1.24277312634559     -0.08311499292112      1.40146335077245
  H   1.10938667055355      0.54992856610870      1.63964789708147
  C   -1.25897124483678     -0.52576900344768     -0.70238919291574
  H   -0.80279809626195     -0.17959640336354     -1.62847634822151
  H   -1.06824689151964     -1.59758957447449     -0.60724999405155
  H   -2.33572532161343     -0.36321720089777     -0.76198285659420
  N   1.64659312065882      0.30531604763843     -0.35624661340622
  O   2.27668836799497      1.35730338162080     -0.28850019633695
  O   1.66098077454720     -0.48496729341239     -1.29972613573275
