16

C	0.0	0.0	0.0
C	-0.700231	0.063038	-1.315061
F	1.359869	0.0	0.0
H	-1.822197	0.227274	-0.999319
H	-0.67524	-0.901538	-1.820461
N	-0.337142	1.250204	0.843862
O	-1.047696	2.126067	0.373666
O	0.15879	1.2595	1.97023
C	-0.500706	-1.194747	0.772758
H	-0.063075	-1.180825	1.770683
H	-0.200746	-2.107238	0.251088
H	-1.597985	-1.12037	0.811673
N	-0.186494	1.042706	-2.272465
O	0.509349	1.982104	-1.875158
O	-0.51311	0.873163	-3.453368
H	-3.067038	0.0	0.0
