13

C	0.0	0.0	0.0
C	-0.497384	0.004041	-1.437223
Cl	1.802476	0.0	0.0
H	-0.13551	0.908034	-1.933464
H	-0.127429	-0.870053	-1.975421
H	-1.591851	-0.000733	-1.413692
C	-0.497541	1.205927	0.78169
H	-0.137872	2.11555	0.294011
H	-1.591972	1.182303	0.77472
H	-0.125518	1.180627	1.807075
C	-0.36736	-1.250867	0.677314
N	-0.601972	-2.262692	1.22542
Cl	-3.830745	0.0	0.0
