14

C	0.0	0.0	0.0
C	-0.529474	-0.009368	-1.411068
Cl	1.786352	0.0	0.0
H	-0.241996	0.925979	-1.896034
H	-1.620764	-0.074071	-1.353215
H	-0.128149	-0.849396	-1.974241
C	-0.529473	1.141325	0.829806
H	-1.620763	1.056608	0.848683
H	-0.241996	2.080462	0.35222
H	-0.128147	1.109558	1.840647
N	-0.345352	-1.332226	0.6841
O	-0.435331	-2.321988	-0.032392
O	-0.435336	-1.326635	1.905968
Cl	-3.825495	0.0	0.0
