14

C	0.0	0.0	0.0
C	-0.526791	-0.003424	-1.411183
Cl	1.786476	0.0	0.0
H	-1.61864	-0.058044	-1.355111
H	-0.229195	0.92796	-1.896532
H	-0.13446	-0.847146	-1.973708
C	-0.526804	1.144852	0.825074
H	-0.229188	2.082009	0.350989
H	-0.134507	1.110341	1.83855
H	-1.618657	1.067457	0.836754
N	-0.360541	-1.326135	0.68096
O	-0.457807	-2.31517	-0.036074
O	-0.457605	-1.319735	1.902576
Cl	-3.814919	0.0	0.0
