14

C	0.0	0.0	0.0
C	-0.501637	0.01193	-1.418173
F	1.406071	0.0	0.0
H	-1.594788	0.101834	-1.333402
H	-0.301054	0.939682	0.471221
H	-0.260666	-0.959731	-1.884149
C	-0.527572	-1.171683	0.783683
H	-0.153196	-1.149817	1.811016
H	-0.224995	-2.114762	0.317922
H	-1.62339	-1.084241	0.777662
N	0.056793	1.159343	-2.143567
H	-0.357207	1.196491	-3.067789
H	1.054046	1.010274	-2.259177
H	-3.47353	0.0	0.0
