14

C	0.0	0.0	0.0
C	-0.373279	-0.001509	-1.483185
F	1.400305	0.0	0.0
H	-0.269298	-1.045234	-1.83666
H	-0.320071	0.946986	0.444432
H	0.424731	0.568841	-1.977455
C	-0.537334	-1.169503	0.780103
H	-1.631791	-1.108589	0.764604
H	-0.212733	-2.10632	0.316562
H	-0.181774	-1.145617	1.814442
N	-1.654433	0.629417	-1.758085
H	-1.986107	0.306241	-2.660553
H	-2.389718	0.348685	-1.074089
H	-3.679268	0.0	0.0
