14

C	0.0	0.0	0.0
C	-0.566743	0.056181	-1.400568
F	1.395908	0.0	0.0
H	0.038691	0.758729	-1.984971
H	-0.294963	0.929056	0.502784
H	-1.588584	0.444229	-1.277978
C	-0.506371	-1.177052	0.79433
H	-0.176339	-2.105402	0.323489
H	-0.120175	-1.13764	1.81734
H	-1.602303	-1.116304	0.802975
N	-0.564716	-1.261122	-2.061884
H	-0.65256	-1.106646	-3.060876
H	-1.432532	-1.709263	-1.777619
H	-3.48143	0.0	0.0
