14

C	0.0	0.0	0.0
C	-0.42272	-0.105014	-1.473467
F	1.399758	0.0	0.0
H	0.334262	0.458023	-2.034533
H	-0.307861	0.978124	0.386869
H	-0.314475	-1.156657	-1.778403
C	-0.530886	-1.096085	0.884091
H	-0.208355	-2.071848	0.508312
H	-1.624829	-1.039275	0.873254
H	-0.167311	-0.977224	1.908912
N	-1.738123	0.379499	-1.857341
H	-2.475029	0.088786	-1.191306
H	-1.733457	1.387123	-1.785058
H	-3.751122	0.0	0.0
