12
Coordinates from ORCA-job run
  C   0.83855845914261      0.21329468434009      0.15298913563997
  C   -0.58494532232653      0.31662142460926      0.65781424074481
  Br  1.80261231283083      1.71940748706859      0.93659073753297
  H   -1.06140478311475      1.21967742244431      0.27861118734476
  H   1.32843669609015     -0.67516008943201      0.56153416685117
  H   -0.64180570132902      0.29498752509775      1.74703575898500
  N   0.87175944748890      0.33723960992175     -1.28603040744777
  H   1.82337461198798      0.47669977834480     -1.60230421630853
  H   0.53479213213203     -0.53388348798310     -1.68224661150383
  N   -1.42543977018451     -0.83407437982703      0.18514064301306
  O   -0.85387168135124     -1.80885617683575     -0.30413286411044
  O   -2.63306640136643     -0.72695379774866      0.35599822925882
