15

C	0.0	0.0	0.0
C	-0.54494	-0.467604	-1.342841
Cl	1.776989	0.0	0.0
H	-0.19241	0.189737	-2.138473
H	-1.644426	-0.395378	-1.273329
N	-0.384666	1.475442	0.171677
O	-0.487636	2.146126	-0.84859
O	-0.485194	1.892463	1.317036
C	-0.507179	-0.809504	1.165164
H	-1.600045	-0.773135	1.157978
H	-0.167183	-1.840188	1.050137
H	-0.123649	-0.404689	2.099516
C	-0.143673	-1.840132	-1.620404
N	0.181019	-2.943456	-1.85634
Br	-3.80628	0.0	0.0
