15

C	0.0	0.0	0.0
C	-0.269965	0.15652	-1.513977
Cl	1.779384	0.0	0.0
H	0.182029	-0.731556	-1.966364
H	0.327321	1.007451	-1.844492
N	-0.403667	1.263692	0.748992
O	-0.485245	1.174047	1.967231
O	-0.543119	2.284614	0.086356
C	-0.573748	-1.219427	0.656846
H	-0.22541	-1.295379	1.685608
H	-0.263663	-2.103388	0.095451
H	-1.666597	-1.122246	0.632318
C	-1.574651	0.330753	-2.158353
N	-2.335774	0.489186	-3.040984
Br	-3.844325	0.0	0.0
