15

C	0.0	0.0	0.0
C	-0.285804	0.287767	-1.490765
Cl	1.778996	0.0	0.0
H	0.037255	-0.616281	-2.016711
H	0.398988	1.082751	-1.788158
N	-0.392626	1.202547	0.851606
O	-0.503003	1.011889	2.055614
O	-0.491991	2.279062	0.274911
C	-0.579113	-1.265424	0.557825
H	-0.263022	-2.10479	-0.065306
H	-0.239001	-1.419657	1.580488
H	-1.671974	-1.168655	0.534335
C	-1.575464	0.691894	-2.055913
N	-2.335878	1.104034	-2.852533
Br	-3.872644	0.0	0.0
