17

C	-0.280196	0.037274	-1.488277
C	0.0	0.0	0.0
F	-1.603661	0.435112	-1.800283
H	1.104136	0.0	0.0
H	-0.187261	-0.983624	-1.880601
C	0.712092	0.946274	-2.187274
H	0.47608	1.991567	-1.968767
H	0.687458	0.810724	-3.27262
H	1.7019	0.716441	-1.770668
N	-0.571312	-1.232147	0.597308
H	-0.433963	-1.153084	1.60166
H	0.05743	-1.983394	0.321897
C	-0.549535	1.211453	0.725598
H	-1.643932	1.213298	0.709271
H	-0.210472	1.204385	1.767228
H	-0.184583	2.137433	0.276221
F	2.794002	0.0	0.0
