17

C	-0.538734	-0.0425	-1.413156
C	0.0	0.0	0.0
F	-0.03258	-1.172048	-2.075752
H	1.095547	0.0	0.0
H	-0.155221	0.827515	-1.963138
C	-2.048461	-0.128744	-1.514939
H	-2.381474	-0.983174	-0.925721
H	-2.524304	0.779193	-1.136165
H	-2.353245	-0.271404	-2.555522
N	-0.444019	-1.202485	0.740213
H	-0.943065	-0.92711	1.579241
H	0.409406	-1.664696	1.041485
C	-0.426118	1.280898	0.705579
H	-0.216656	2.162683	0.091681
H	0.163346	1.380128	1.620476
H	-1.493054	1.292856	0.970254
F	2.713142	0.0	0.0
