12

C	-0.259995	0.030541	-1.471603
C	0.0	0.0	0.0
Cl	-1.990867	-0.019033	-1.979812
H	1.095664	0.0	0.0
H	0.189897	0.896456	-1.95062
H	-0.375186	-0.922991	0.443708
N	0.397749	-1.161917	-2.120828
O	1.001314	-0.950374	-3.166511
O	0.245023	-2.252013	-1.584363
C	-0.542978	1.166051	0.656297
N	-0.970587	2.122091	1.191288
F	2.506568	0.0	0.0
