12

C	-0.286644	0.063786	-1.463601
C	0.0	0.0	0.0
Cl	-2.022258	0.191133	-1.928216
H	1.092789	0.0	0.0
H	0.226898	0.915676	-1.901473
H	-0.298424	0.96054	0.432927
N	0.259034	-1.125141	-2.213209
O	0.077651	-2.237086	-1.733983
O	0.818895	-0.879196	-3.278189
C	-0.636267	-1.06724	0.738764
N	-1.150115	-1.88424	1.409183
F	2.513007	0.0	0.0
