12

C	-0.257201	0.032101	-1.471459
C	0.0	0.0	0.0
Cl	-1.9846	-0.017775	-1.983214
H	1.094978	0.0	0.0
H	0.193565	0.898888	-1.947125
H	-0.376079	-0.92363	0.441092
N	0.402808	-1.158666	-2.120435
O	0.241662	-2.251003	-1.590293
O	1.018439	-0.943425	-3.160029
C	-0.543331	1.165131	0.656751
N	-0.967491	2.118211	1.199495
F	2.506414	0.0	0.0
