12

C	-0.374052	0.06084	-1.452572
C	0.0	0.0	0.0
Cl	0.160795	1.581485	-2.186746
H	1.092643	0.0	0.0
H	0.062205	-0.75864	-2.02012
H	-0.376381	0.880397	0.524781
N	-1.869075	-0.047344	-1.680736
O	-2.592354	0.755301	-1.102333
O	-2.251889	-0.958928	-2.412773
C	-0.522137	-1.209085	0.60612
N	-0.943657	-2.190905	1.0984
F	2.520772	0.0	0.0
