16

C	-0.481991	0.048426	-1.435618
C	0.0	0.0	0.0
Br	0.526326	1.367612	-2.468895
H	1.094082	0.0	0.0
N	-0.233379	-1.296592	-2.143981
O	0.77928	-1.898187	-1.828286
O	-1.0596	-1.62765	-2.991826
C	-1.899855	0.370855	-1.570897
N	-3.034247	0.68393	-1.575195
C	-0.560653	-1.172651	0.64071
N	-1.026857	-2.116636	1.166968
C	-0.352949	1.271174	0.774766
H	-1.427286	1.467885	0.843499
H	0.148798	2.118732	0.307024
H	0.061021	1.167976	1.779208
F	2.489497	0.0	0.0
