16

C	-0.496186	0.033998	-1.434315
C	0.0	0.0	0.0
Br	0.480989	1.361931	-2.482976
H	1.09403	0.0	0.0
N	-0.227258	-1.31552	-2.1342
O	0.837222	-1.850927	-1.881841
O	-1.095294	-1.716733	-2.90522
C	-1.922711	0.325864	-1.554616
N	-3.069847	0.589833	-1.538589
C	-0.542441	-1.183434	0.641949
N	-0.985993	-2.138353	1.16922
C	-0.369582	1.263691	0.777696
H	0.12064	2.120777	0.313918
H	-1.446932	1.443298	0.846644
H	0.042742	1.162751	1.783393
F	2.489038	0.0	0.0
