16

C	-0.350366	0.006224	-1.474707
C	0.0	0.0	0.0
Br	0.208273	-1.634059	-2.346566
H	1.096399	0.0	0.0
N	-1.875521	0.16194	-1.651435
O	-2.279294	1.317641	-1.76764
O	-2.569271	-0.838715	-1.540941
C	0.288272	1.119423	-2.168938
N	0.776832	2.020981	-2.743507
C	-0.533797	-1.159723	0.679052
N	-0.948744	-2.066106	1.305069
C	-0.392337	1.298129	0.707638
H	0.060055	2.146163	0.188225
H	-1.473339	1.456185	0.787149
H	0.039263	1.262871	1.709897
F	2.476186	0.0	0.0
