16

C	-0.278991	0.047663	-1.479221
C	0.0	0.0	0.0
Br	-2.174949	0.431634	-1.972147
H	1.09679	0.0	0.0
N	0.550072	1.16872	-2.134106
O	0.294692	2.307577	-1.771839
O	1.394447	0.83443	-2.953166
C	0.061512	-1.206113	-2.140455
N	0.274372	-2.23913	-2.661649
C	-0.536714	-1.223081	0.551825
N	-0.955389	-2.203088	1.051778
C	-0.406031	1.212728	0.832454
H	-0.21754	0.968257	1.879064
H	0.223881	2.059275	0.570272
H	-1.459114	1.484189	0.713067
F	2.458384	0.0	0.0
