17

C	0.0	0.0	0.0
C	-0.244412	-0.192098	-1.560002
Cl	1.767981	0.0	0.0
H	0.488989	0.47973	-2.014075
N	-0.578921	1.287273	0.477293
O	-0.604094	1.462576	1.71536
O	-0.59101	2.229189	-0.342569
N	-0.346818	-1.117032	0.831503
H	0.112816	-0.954906	1.737103
H	-1.354574	-1.025025	0.92453
N	-1.570517	0.10691	-2.14791
H	-2.027369	0.842328	-1.614283
H	-1.343265	0.481959	-3.067968
N	0.146801	-1.577455	-1.891928
H	-0.402561	-1.831304	-2.71962
H	-0.195206	-2.162644	-1.120059
H	-2.26566	0.0	0.0
