17

C	0.0	0.0	0.0
C	-0.554134	0.415649	-1.368339
Cl	1.773082	0.0	0.0
H	-1.645285	0.427942	-1.156764
N	-0.339086	1.091199	1.058384
O	0.14533	2.20388	0.881562
O	-1.041512	0.76336	2.002584
N	-0.553952	-1.209862	0.465959
H	-0.459741	-1.852243	-0.316598
H	-1.577286	-0.992365	0.531065
N	-0.287834	-0.711778	-2.274194
H	-1.051752	-0.785458	-2.93512
H	0.570639	-0.535468	-2.784613
N	-0.122533	1.719996	-1.825295
H	-0.470421	1.860934	-2.766159
H	0.889562	1.779869	-1.834589
H	-3.143994	0.0	0.0
