14

C	-0.519368	-0.01101	-1.41661
C	0.0	0.0	0.0
Br	-0.007115	1.679604	-2.235805
H	1.089724	0.0	0.0
H	-0.358479	0.878525	0.531935
C	-0.02985	-1.096496	-2.250015
N	0.366306	-1.962253	-2.939274
N	-2.060203	-0.027969	-1.441264
O	-2.597027	-0.530601	-2.417272
O	-2.61608	0.511855	-0.4952
N	-0.491894	-1.182423	0.751622
O	-1.05475	-2.077574	0.116707
O	-0.300515	-1.177777	1.959858
Br	3.365984	0.0	0.0
