14

C	-0.514474	-0.014434	-1.418702
C	0.0	0.0	0.0
Br	-0.042028	1.693901	-2.226069
H	1.089696	0.0	0.0
H	-0.362915	0.874754	0.53454
C	0.001818	-1.08247	-2.259138
N	0.418749	-1.920219	-2.970413
N	-2.054764	-0.068431	-1.446303
O	-2.578018	-0.574323	-2.42778
O	-2.624606	0.448985	-0.496293
N	-0.484436	-1.18814	0.746002
O	-0.329653	-1.169312	1.959891
O	-0.999526	-2.104598	0.100847
Br	3.361913	0.0	0.0
