14

C	-0.490034	0.010231	-1.437959
C	0.0	0.0	0.0
Br	-0.02625	1.646556	-2.396666
H	1.099921	0.0	0.0
H	-0.335213	-0.936875	0.465402
C	0.117537	-1.179411	-2.143799
N	-0.032545	-2.340296	-1.930847
N	-1.991556	-0.096281	-1.556137
O	-2.442253	-0.428722	-2.713681
O	-2.626308	0.789566	-0.879378
N	-0.399668	1.120353	0.854926
O	-0.612678	0.785603	2.084139
O	0.20389	2.240029	0.635673
Br	2.665269	0.0	0.0
