14

C	-0.362035	-0.001423	-1.489098
C	0.0	0.0	0.0
F	-1.749692	-0.039162	-1.639817
H	1.097306	0.0	0.0
H	0.032641	-0.92924	-1.913617
C	0.200212	1.203861	-2.200803
H	1.281324	1.239671	-2.043884
H	-0.013674	1.135547	-3.269636
H	-0.252419	2.117888	-1.810333
C	-0.498736	-1.200462	0.667647
N	-0.887429	-2.17791	1.189141
C	-0.492335	1.202675	0.669489
N	-0.876768	2.182737	1.189493
Br	3.367559	0.0	0.0
