14

C	-0.366098	0.00028	-1.487949
C	0.0	0.0	0.0
F	-1.757086	-0.036647	-1.635654
H	1.097288	0.0	0.0
H	0.026356	-0.927474	-1.91497
C	0.194782	1.205532	-2.20237
H	-0.252851	2.120078	-1.806419
H	1.279387	1.237725	-2.053756
H	-0.028438	1.139578	-3.271241
C	-0.497377	-1.201952	0.666933
N	-0.883328	-2.182514	1.184601
C	-0.491913	1.201624	0.672032
N	-0.872492	2.182625	1.192998
Br	3.371371	0.0	0.0
