14

C	-0.449094	-0.063918	-1.47528
C	0.0	0.0	0.0
F	-0.159017	1.167069	-2.047304
H	1.096873	0.0	0.0
H	-1.537168	-0.185924	-1.531844
C	0.290849	-1.147806	-2.222375
H	0.025944	-2.133686	-1.834027
H	0.026731	-1.105057	-3.281436
H	1.365674	-0.996196	-2.100709
C	-0.46796	-1.197551	0.697146
N	-0.852193	-2.181443	1.210709
C	-0.517429	1.199122	0.656603
N	-0.962758	2.15569	1.171347
Br	3.397255	0.0	0.0
