14

C	-0.447974	0.027115	-1.474152
C	0.0	0.0	0.0
F	-0.017575	-1.156674	-2.053714
H	1.096272	0.0	0.0
H	0.094233	0.844771	-1.959113
C	-1.942281	0.13787	-1.67335
H	-2.169156	0.108036	-2.741198
H	-2.446123	-0.701508	-1.188006
H	-2.324162	1.0727	-1.257993
C	-0.519126	-1.186188	0.67817
N	-0.973811	-2.134869	1.199703
C	-0.460007	1.212847	0.6752
N	-0.837917	2.209551	1.168433
Br	3.367199	0.0	0.0
