14

C	-0.447791	-0.079691	-1.475084
C	0.0	0.0	0.0
F	-0.154557	1.144609	-2.060588
H	1.097015	0.0	0.0
H	-1.536046	-0.200231	-1.531524
C	0.291436	-1.172589	-2.209077
H	0.022662	-2.153949	-1.811597
H	1.366301	-1.022535	-2.086341
H	0.030183	-1.139809	-3.269245
C	-0.468299	-1.18999	0.709621
N	-0.853375	-2.168058	1.23362
C	-0.518131	1.206151	0.642629
N	-0.96461	2.168629	1.145276
Br	3.395533	0.0	0.0
