14

C	-0.44712	0.038835	-1.474266
C	0.0	0.0	0.0
F	-0.02717	-1.14523	-2.060778
H	1.096197	0.0	0.0
H	0.10241	0.854355	-1.954029
C	-1.940101	0.164711	-1.672823
H	-2.452468	-0.669774	-1.188597
H	-2.167398	0.138185	-2.740628
H	-2.312075	1.102925	-1.256463
C	-0.519558	-1.191023	0.668851
N	-0.954091	-2.157236	1.17512
C	-0.458639	1.208918	0.683489
N	-0.840177	2.201385	1.182427
Br	3.365555	0.0	0.0
