18

C	0.0	0.0	0.0
C	-0.234304	0.141455	-1.546622
Br	1.966237	0.0	0.0
H	0.356206	1.014987	-1.828556
C	-0.33368	1.3063	0.74128
H	-1.417438	1.391135	0.776576
H	0.125422	2.148996	0.216994
H	0.086226	1.254203	1.749306
C	-0.545545	-1.17778	0.657536
N	-0.593574	-2.167687	1.306144
C	-1.592262	0.248151	-2.225976
H	-2.155997	1.083685	-1.824362
H	-2.190989	-0.639651	-2.053265
H	-1.389211	0.394387	-3.299749
N	0.451597	-0.98119	-2.28698
O	0.187279	-2.13169	-1.953164
O	1.172928	-0.667231	-3.234751
H	-2.514479	0.0	0.0
