18

C	0.0	0.0	0.0
C	-0.671591	0.004446	-1.372624
Br	1.95113	0.0	0.0
H	-1.769572	-0.031465	-1.078591
C	-0.51987	1.172426	0.820196
H	-0.194947	2.113263	0.370543
H	-1.621443	1.077295	0.789037
H	-0.152643	1.120042	1.84673
C	-0.357914	-1.2675	0.650603
N	-0.544173	-2.30069	1.180541
C	-0.260408	-1.103968	-2.315594
H	-0.48127	-2.069848	-1.855686
H	0.804316	-1.049033	-2.554229
H	-0.840913	-1.029957	-3.239224
N	-0.459199	1.314935	-2.060889
O	0.697233	1.637299	-2.348622
O	-1.455432	1.982366	-2.338187
H	-3.142426	0.0	0.0
