18

C	0.0	0.0	0.0
C	-0.667861	0.064149	-1.362149
Br	1.964525	0.0	0.0
H	-1.791754	0.14111	-0.988446
C	-0.449265	1.100896	0.960082
H	-1.547671	1.071152	0.94275
H	-0.076513	0.883454	1.962934
H	-0.084183	2.069605	0.62961
C	-0.347416	-1.297799	0.598915
N	-0.540933	-2.350915	1.086268
C	-0.477457	-1.154341	-2.23078
H	0.576607	-1.402481	-2.381102
H	-0.931146	-0.983572	-3.207803
H	-0.990453	-1.996484	-1.759416
N	-0.287618	1.293963	-2.070201
O	-0.640966	2.377299	-1.585112
O	0.33631	1.19832	-3.138346
H	-2.977891	0.0	0.0
