18

C	0.0	0.0	0.0
C	-0.226834	0.000588	-1.560722
Br	1.966672	0.0	0.0
H	0.337828	0.864574	-1.921688
C	-0.264484	1.406793	0.594034
H	0.229457	2.167517	-0.018706
H	0.166984	1.442042	1.598716
H	-1.33448	1.581382	0.646338
C	-0.670855	-1.05899	0.741156
N	-0.693726	-2.017095	1.450239
C	-1.5903	-0.011737	-2.245345
H	-2.179584	0.853673	-1.955996
H	-1.409988	0.006304	-3.334548
H	-2.16254	-0.894791	-1.975795
N	0.489559	-1.156621	-2.218084
O	1.164052	-0.895063	-3.216782
O	0.277622	-2.284863	-1.787186
H	-2.177906	0.0	0.0
