18

C	0.0	0.0	0.0
C	-0.227917	0.111473	-1.550207
Br	1.960919	0.0	0.0
H	0.436124	0.916642	-1.867802
C	-0.267136	1.365853	0.68192
H	0.182716	1.345498	1.678282
H	-1.337124	1.533326	0.756151
H	0.213061	2.162525	0.106683
C	-0.674066	-1.086217	0.698337
N	-0.684621	-2.029227	1.427318
C	-1.574411	0.340565	-2.22763
H	-2.248838	-0.495027	-2.072494
H	-1.366637	0.484251	-3.300451
H	-2.053103	1.229812	-1.824556
N	0.345751	-1.091484	-2.254273
O	1.06591	-0.876501	-3.231407
O	-0.00242	-2.202665	-1.867325
H	-2.205639	0.0	0.0
