18

C	0.0	0.0	0.0
C	-0.311126	0.09995	-1.553593
Br	1.958368	0.0	0.0
H	-0.119312	1.136688	-1.836982
C	-0.258522	1.324986	0.756706
H	0.241624	2.142684	0.232065
H	-1.324045	1.51129	0.832982
H	0.185008	1.241116	1.753539
C	-0.648752	-1.14523	0.628033
N	-0.674177	-2.183506	1.211019
C	-1.615701	-0.399784	-2.184765
H	-1.874293	-1.378309	-1.783495
H	-1.448787	-0.482534	-3.270168
H	-2.43881	0.275323	-1.985732
N	0.705053	-0.66674	-2.379779
O	0.765237	-1.880179	-2.213121
O	1.322801	-0.04067	-3.241531
H	-2.156453	0.0	0.0
