15

C	0.0	0.0	0.0
C	-0.492477	-0.147485	-1.431114
Br	1.94691	0.0	0.0
H	-1.542069	-0.436995	-1.338505
H	0.073487	-0.960368	-1.889997
C	-0.430688	1.214118	0.679906
N	-0.579136	2.267454	1.181806
N	-0.377101	-1.221974	0.846545
O	-0.444337	-2.285717	0.24977
O	-0.490829	-1.044056	2.049819
C	-0.383896	1.15007	-2.216937
H	-1.070325	1.890959	-1.80409
H	-0.677044	0.96828	-3.254058
H	0.630312	1.559277	-2.216982
Cl	-3.37304	0.0	0.0
