15

C	0.0	0.0	0.0
C	-0.555462	0.878075	-1.106754
Br	1.9409	0.0	0.0
H	-0.100821	0.541228	-2.040418
H	-0.200311	1.893066	-0.905878
C	-0.443064	0.398481	1.328729
N	-0.730491	0.792301	2.398261
N	-0.405939	-1.463866	-0.250551
O	-0.804527	-2.105608	0.710701
O	-0.263625	-1.861856	-1.397298
C	-2.079476	0.826513	-1.169363
H	-2.57082	1.152789	-0.25467
H	-2.420872	1.476461	-1.977969
H	-2.463788	-0.172275	-1.37407
Cl	-5.194344	0.0	0.0
