15

C	0.0	0.0	0.0
C	-0.5009	-0.130441	-1.428125
Br	1.946859	0.0	0.0
H	0.063569	-0.936601	-1.900312
H	-1.552538	-0.418919	-1.341642
C	-0.422527	1.2079	0.697477
N	-0.588087	2.252857	1.210209
N	-0.371802	-1.232918	0.835559
O	-0.428152	-2.29139	0.228135
O	-0.494297	-1.0671	2.039655
C	-0.393824	1.178559	-2.198358
H	-1.108835	1.898407	-1.798453
H	-0.648424	1.00205	-3.245845
H	0.6092	1.610075	-2.160325
Cl	-3.396087	0.0	0.0
