15

C	0.0	0.0	0.0
C	-0.516411	-0.120007	-1.421289
Br	1.947113	0.0	0.0
H	0.029807	-0.933117	-1.902372
H	-1.570346	-0.395376	-1.315856
C	-0.420779	1.203153	0.706444
N	-0.60578	2.24309	1.22267
N	-0.373427	-1.23641	0.830118
O	-0.427542	-2.292543	0.218239
O	-0.501684	-1.074824	2.034174
C	-0.404908	1.187053	-2.192606
H	-1.075788	1.931013	-1.760222
H	0.614046	1.58409	-2.203078
H	-0.715741	1.020931	-3.226483
Cl	-3.42392	0.0	0.0
