15

C	0.0	0.0	0.0
C	-0.519616	-0.109502	-1.420998
Br	1.947029	0.0	0.0
H	0.027429	-0.917315	-1.910109
H	-1.573001	-0.387701	-1.314762
C	-0.422121	1.197722	0.714739
N	-0.616462	2.231098	1.240664
N	-0.375109	-1.241372	0.821625
O	-0.426986	-2.293668	0.202739
O	-0.508375	-1.088137	2.02639
C	-0.41602	1.204849	-2.181224
H	-0.725297	1.045541	-3.216769
H	-1.093321	1.93944	-1.742541
H	0.599639	1.609993	-2.187175
Cl	-3.432513	0.0	0.0
