15

C	0.0	0.0	0.0
C	-0.573014	-0.53656	-1.299015
Br	1.941985	0.0	0.0
H	-0.154264	0.067712	-2.108855
H	-0.195272	-1.555584	-1.412757
C	-0.421292	1.365194	0.288911
N	-0.693867	2.499216	0.43416
N	-0.419918	-0.917045	1.160816
O	-0.936492	-0.387039	2.133622
O	-0.191767	-2.106639	0.999312
C	-2.097817	-0.481056	-1.295666
H	-2.485287	0.536892	-1.298306
H	-2.485558	-0.985705	-2.182669
H	-2.558505	-0.965561	-0.435429
Cl	-5.169164	0.0	0.0
