15

C	0.0	0.0	0.0
C	-0.55742	-0.143456	-1.407661
Br	1.962976	0.0	0.0
H	-0.337268	0.812597	-1.894937
H	-1.645652	-0.185662	-1.252137
C	-0.395152	1.267427	0.607388
N	-0.586534	2.346042	1.033721
N	-0.388073	-1.135779	0.953424
O	-0.499466	-0.843093	2.134405
O	-0.477918	-2.251894	0.464618
C	-0.063472	-1.290988	-2.278819
H	-0.477503	-1.151213	-3.281069
H	1.025795	-1.310816	-2.364593
H	-0.40447	-2.251789	-1.902178
Cl	-3.531924	0.0	0.0
