12

C	0.0	0.0	0.0
C	-0.550732	-0.115615	-1.413565
F	1.378929	0.0	0.0
H	0.186183	-0.705427	-1.971209
H	-0.335135	-0.854573	0.595028
H	-1.495316	-0.659527	-1.354107
C	-0.405646	1.235974	0.695211
N	-0.57792	2.225554	1.301034
N	-0.687035	1.204675	-2.032512
H	-0.824632	1.074259	-3.028151
H	-1.562877	1.588079	-1.678799
Br	-3.669047	0.0	0.0
