12

C	0.0	0.0	0.0
C	-0.444434	-0.50975	-1.387009
F	1.383791	0.0	0.0
H	0.231732	-0.010667	-2.090596
H	-0.355245	-0.633251	0.816339
H	-0.205035	-1.578395	-1.415733
C	-0.424543	1.393299	0.216112
N	-0.632422	2.543889	0.32385
N	-1.803243	-0.30347	-1.803333
H	-2.038029	0.681411	-1.829665
H	-2.498866	-0.711336	-1.182518
Br	-4.630309	0.0	0.0
