12

C	0.0	0.0	0.0
C	-0.427517	-0.220029	-1.468197
F	1.383595	0.0	0.0
H	-0.193501	-1.264142	-1.705948
H	-0.364497	-0.780383	0.671256
H	0.269767	0.399733	-2.043918
C	-0.42153	1.326555	0.480704
N	-0.608331	2.446553	0.7799
N	-1.772764	0.087638	-1.866549
H	-1.976233	1.069175	-1.721871
H	-2.489377	-0.398669	-1.330285
Br	-4.569404	0.0	0.0
