12

C	0.0	0.0	0.0
C	-0.45495	-0.104028	-1.450479
F	1.388813	0.0	0.0
H	0.005199	-1.015668	-1.847425
H	-0.355805	-0.847767	0.589353
H	-1.538632	-0.223472	-1.451511
C	-0.404763	1.264577	0.638354
N	-0.562216	2.313353	1.141198
N	-0.075735	1.030612	-2.281269
H	0.873462	1.311504	-2.065007
H	-0.686667	1.808974	-2.064956
Br	-3.640375	0.0	0.0
