13

C	0.0	0.0	0.0
C	-0.401235	-0.012176	-1.470703
Br	1.928691	0.0	0.0
H	0.218573	-0.751736	-1.98262
H	-0.400666	0.839277	0.558552
H	-1.444322	-0.316643	-1.525726
N	-0.389709	-1.2587	0.718927
O	-0.564914	-1.174772	1.928069
O	-0.426192	-2.288947	0.052468
N	-0.171355	1.332677	-2.000374
H	-1.064126	1.761659	-2.200948
H	0.372158	1.295357	-2.850179
Br	-3.465025	0.0	0.0
