13

C	0.0	0.0	0.0
C	-0.536748	-0.007358	-1.428042
Br	1.930406	0.0	0.0
H	0.079105	-0.671962	-2.036464
H	-0.360341	0.834751	0.596246
H	-1.552691	-0.401643	-1.3737
N	-0.367316	-1.250855	0.763382
O	-0.46949	-1.144197	1.979573
O	-0.467894	-2.286013	0.11439
N	-0.607602	1.315819	-2.022708
H	0.249884	1.834459	-1.865777
H	-1.381942	1.808954	-1.590188
Br	-3.629363	0.0	0.0
