13

C	0.0	0.0	0.0
C	-0.568135	-0.064259	-1.419395
Br	1.92312	0.0	0.0
H	-0.356181	0.914283	-1.863103
H	-0.34011	0.888316	0.527813
H	-1.654306	-0.133313	-1.286273
N	-0.415115	-1.153885	0.87521
O	-0.467063	-2.269573	0.365127
O	-0.623527	-0.892935	2.053957
N	-0.107608	-1.105912	-2.313855
H	-0.400847	-1.998776	-1.940394
H	0.904665	-1.110084	-2.359184
Br	-3.812912	0.0	0.0
