13

C	0.0	0.0	0.0
C	-0.575516	0.023842	-1.414766
Br	1.923028	0.0	0.0
H	-1.661683	-0.023296	-1.27372
H	-0.333933	0.859975	0.576121
H	-0.332477	1.014737	-1.812444
N	-0.422939	-1.195752	0.813461
O	-0.442753	-2.288464	0.253707
O	-0.681587	-0.986467	1.9934
N	-0.147884	-0.985513	-2.362585
H	-0.467841	-1.887205	-2.035497
H	0.864342	-1.016659	-2.404608
Br	-3.828924	0.0	0.0
