16

C	-0.469595	0.020167	-1.457403
C	0.0	0.0	0.0
Br	-0.17861	1.824179	-2.154876
H	1.093226	0.0	0.0
N	0.18154	-0.901883	-2.276508
H	-0.189703	-0.88022	-3.214026
H	0.109137	-1.832269	-1.891733
N	-2.040625	-0.120906	-1.520751
O	-2.686404	0.218141	-0.538237
O	-2.497019	-0.542811	-2.577609
N	-0.404301	-1.274221	0.698682
O	-0.238943	-1.299388	1.908243
O	-0.826992	-2.208307	0.013238
C	-0.436346	1.126602	0.809247
N	-0.73767	2.032726	1.493032
Cl	3.092842	0.0	0.0
