14

C	-0.543475	-0.004647	-1.399089
C	0.0	0.0	0.0
F	-0.185735	-1.119011	-2.096586
H	1.094685	0.0	0.0
H	-1.635731	0.079019	-1.445236
H	-0.335359	0.925548	0.476399
N	-0.06248	1.206023	-2.175824
O	-0.44675	2.284549	-1.727398
O	0.608958	1.039537	-3.182722
C	-0.492742	-1.220246	0.76868
H	-0.123243	-2.134048	0.300047
H	-0.089481	-1.191598	1.783103
H	-1.586671	-1.276107	0.831798
H	2.983837	0.0	0.0
