14

C	-0.562509	0.050552	-1.394502
C	0.0	0.0	0.0
F	-0.307138	-1.099614	-2.081419
H	1.093313	0.0	0.0
H	-1.641975	0.229507	-1.428704
H	-0.323297	-0.970186	0.395758
N	0.009414	1.194215	-2.204333
O	-0.437084	2.301865	-1.911176
O	0.826333	0.955559	-3.077194
C	-0.49133	1.128264	0.901226
H	-0.081331	2.086214	0.580884
H	-1.58421	1.214082	0.925564
H	-0.135235	0.944135	1.917774
H	2.978629	0.0	0.0
