14

C	-0.421134	-0.007613	-1.438293
C	0.0	0.0	0.0
F	-0.137184	1.162668	-2.07325
H	1.093939	0.0	0.0
H	0.021576	-0.832833	-1.998938
H	-0.318129	-0.950745	0.440448
N	-1.921388	-0.204831	-1.545789
O	-2.631867	0.767037	-1.786279
O	-2.323325	-1.34682	-1.326602
C	-0.543702	1.188644	0.77812
H	-1.632603	1.170526	0.895725
H	-0.267883	2.121849	0.284131
H	-0.08818	1.199494	1.771091
H	2.948959	0.0	0.0
