14

C	-0.423849	0.001668	-1.434321
C	0.0	0.0	0.0
F	-0.157858	1.195348	-2.041698
H	1.09373	0.0	0.0
H	0.021179	-0.805422	-2.019011
H	-0.362383	0.928168	0.452731
N	-1.920241	-0.203799	-1.541701
O	-2.305942	-1.348293	-1.784775
O	-2.647661	0.759373	-1.31531
C	-0.483217	-1.225895	0.764774
H	-0.191079	-2.144102	0.248609
H	0.000601	-1.238899	1.743349
H	-1.566956	-1.249405	0.91106
H	2.93622	0.0	0.0
