14

C	-0.490236	0.051742	-1.414535
C	0.0	0.0	0.0
F	-1.819494	0.421897	-1.499441
H	1.092199	0.0	0.0
H	0.099202	0.727896	-2.034869
H	-0.299062	0.963129	0.432694
N	-0.39264	-1.294436	-2.091877
O	0.623473	-1.508106	-2.743269
O	-1.322469	-2.082	-1.925159
C	-0.549057	-1.152084	0.82942
H	-0.136414	-2.104798	0.491195
H	-1.639752	-1.218409	0.797374
H	-0.233676	-1.018161	1.866984
H	2.973795	0.0	0.0
