15

C	-0.534571	-0.008526	-1.414175
C	0.0	0.0	0.0
F	-1.82303	-0.426221	-1.488491
H	1.087017	0.0	0.0
H	0.093513	-0.661191	-2.022927
N	-0.444524	1.364737	-2.038064
O	-1.297189	1.645374	-2.868383
O	0.516976	2.042373	-1.704307
N	-0.42144	-1.301335	0.622484
O	-1.026469	-1.285471	1.687228
O	-0.09723	-2.294914	-0.017504
N	-0.536864	1.109673	0.824529
O	-1.533085	1.698199	0.401271
O	0.0455	1.33375	1.878781
Cl	3.135261	0.0	0.0
