15

C	-0.649079	-0.062053	-1.362267
C	0.0	0.0	0.0
F	-1.968941	0.259357	-1.286854
H	1.088189	0.0	0.0
H	-0.530573	-1.049787	-1.80046
N	0.005504	0.894029	-2.338431
O	1.030978	0.47262	-2.851911
O	-0.555826	1.958442	-2.557132
N	-0.413992	-1.186265	0.814019
O	0.04192	-1.229873	1.947454
O	-1.138323	-2.033271	0.291236
N	-0.471748	1.240596	0.699013
O	-1.315725	1.142942	1.583776
O	0.026853	2.27456	0.26485
Cl	3.122413	0.0	0.0
