15

C	-0.610631	-0.065553	-1.384169
C	0.0	0.0	0.0
F	-0.416045	1.122286	-2.01211
H	1.086592	0.0	0.0
H	-1.675856	-0.293652	-1.360635
N	0.036157	-1.144474	-2.22325
O	-0.148971	-1.043964	-3.431793
O	0.629199	-2.039222	-1.635661
N	-0.514223	-1.091887	0.874448
O	-1.319044	-1.892635	0.399725
O	-0.100051	-1.081158	2.027257
N	-0.523935	1.268599	0.613848
O	-1.73239	1.275268	0.859664
O	0.258205	2.190341	0.787135
Cl	3.168013	0.0	0.0
