15

C	-0.442653	-0.118006	-1.444558
C	0.0	0.0	0.0
F	-0.020024	-1.253512	-2.034601
H	1.105802	0.0	0.0
H	-0.061219	0.746777	-1.989532
N	-1.948073	-0.066971	-1.608152
O	-2.382632	0.821697	-2.341202
O	-2.607235	-0.924167	-1.033905
N	-0.417574	-1.09541	0.923032
O	-0.583153	-0.79101	2.098463
O	-0.438757	-2.225801	0.454223
N	-0.526982	1.310091	0.490239
O	0.240934	2.265569	0.44447
O	-1.708932	1.342867	0.831776
Cl	3.127837	0.0	0.0
