15

C	-0.547064	-0.002874	-1.415214
C	0.0	0.0	0.0
F	-0.049235	1.046503	-2.093855
H	1.090936	0.0	0.0
H	-1.637214	0.007664	-1.444367
N	-0.12052	-1.271675	-2.133891
O	-0.459156	-2.316156	-1.581748
O	0.447523	-1.155082	-3.207892
N	-0.568991	-1.132792	0.798658
O	0.203283	-1.941417	1.289947
O	-1.797328	-1.131799	0.902408
N	-0.483792	1.222679	0.722989
O	-1.282589	1.966015	0.159467
O	-0.046644	1.360145	1.858194
Cl	3.160775	0.0	0.0
