15

C	-0.44368	0.060787	-1.442078
C	0.0	0.0	0.0
F	0.086326	-0.963285	-2.136949
H	1.105686	0.0	0.0
H	-0.125514	1.010987	-1.872553
N	-1.952283	0.016038	-1.608374
O	-2.404716	-0.626508	-2.541944
O	-2.584495	0.6992	-0.810582
N	-0.478122	-1.218491	0.698982
O	0.04909	-1.468745	1.775206
O	-1.343829	-1.893965	0.138142
N	-0.430257	1.22416	0.743521
O	-0.136671	2.277857	0.190278
O	-1.000613	1.101213	1.818219
Cl	3.114601	0.0	0.0
