15

C	-0.513044	-0.131634	-1.416193
C	0.0	0.0	0.0
F	-1.796961	-0.564352	-1.474431
H	1.089212	0.0	0.0
H	0.130466	-0.83002	-1.954024
N	-0.417656	1.182781	-2.157791
O	0.520351	1.907054	-1.856111
O	-1.246725	1.372343	-3.037873
N	-0.427947	-1.244249	0.723659
O	-1.081318	-1.141678	1.754048
O	-0.065263	-2.286358	0.191115
N	-0.548572	1.171501	0.725095
O	0.007245	1.467012	1.775498
O	-1.526105	1.737897	0.231301
Cl	3.130213	0.0	0.0
