15

C	-0.652501	0.13276	-1.355545
C	0.0	0.0	0.0
F	-0.200356	1.26931	-1.954499
H	1.099489	0.0	0.0
H	-1.737304	0.160339	-1.306231
N	-0.303592	-1.018804	-2.259072
O	0.611223	-1.766039	-1.934925
O	-0.983895	-1.084842	-3.281238
N	-0.518305	-1.210378	0.700762
O	-0.023624	-1.454595	1.792985
O	-1.423648	-1.843805	0.153558
N	-0.488048	1.155064	0.839851
O	-1.699449	1.382965	0.790889
O	0.330935	1.754144	1.519968
Cl	3.183862	0.0	0.0
