15

C	-0.567198	0.067592	-1.400823
C	0.0	0.0	0.0
F	0.047187	1.055207	-2.09413
H	1.095142	0.0	0.0
H	-1.644123	0.214274	-1.431264
N	-0.296554	-1.217012	-2.157927
O	-0.678584	-1.202821	-3.324205
O	0.254649	-2.145738	-1.57963
N	-0.570046	-1.164885	0.737417
O	-1.742175	-1.441767	0.461155
O	0.123617	-1.718325	1.575334
N	-0.465525	1.195819	0.785285
O	-0.132671	1.219809	1.964087
O	-1.13755	2.045844	0.203349
Cl	3.148669	0.0	0.0
