14
Coordinates from ORCA-job run
  C   -0.78569291898455      0.11400793749062     -0.35629116997722
  C   0.69681679547369     -0.30511404825643     -0.33666693202550
  Br  -1.50348277023105      0.10081767417015     -2.14926393433585
  H   0.73000402916909     -1.31122230902484     -0.76292246436851
  N   -1.54358919137361     -0.94611605217719      0.46325304040148
  O   -1.29838468304755     -2.10494243796419      0.17062198440367
  O   -2.32124259136508     -0.53662903095142      1.30988759920101
  C   -0.96421565470327      1.41949248468941      0.25394834419747
  N   -1.02211417092905      2.49187308422683      0.73364530823973
  N   1.09803278001728     -0.36210427041483      1.05292602631872
  H   1.82988429042196     -1.04525799866305      1.19452549017181
  H   1.41641133309015      0.53882425328504      1.38918941255447
  C   1.49076676190506      0.60395697219451     -1.17711508409849
  N   2.17480599055691      1.34141374139539     -1.78473762068278
