14
Coordinates from ORCA-job run
  C   -0.78178572007650      0.03726052355323     -0.40452004786046
  C   0.75375593883435      0.23800967366185     -0.36089550132349
  Br  -1.31622035449329     -0.83984435959913     -2.03959712313954
  H   0.95540723714091      0.95181164849141     -1.16765309177290
  N   -1.26511367936542     -0.84134350513174      0.76361027910479
  O   -2.46096084371589     -0.80781275843371      1.00252741165376
  O   -0.41194877630941     -1.51062797311506      1.33280456356247
  C   -1.46394953810239      1.31835006823215     -0.29814716343911
  N   -1.95845699152494      2.38353739669903     -0.23109260935000
  N   1.49003526972642     -0.96749807520958     -0.63948799127156
  H   2.41634798122887     -0.74192625143438     -0.97564574251619
  H   1.55671767228560     -1.55112219084922      0.18261310019481
  C   1.08827658629919      0.90895897934015      0.91291588446387
  N   1.39689521807249      1.42324682379499      1.92356803169357
