14
Coordinates from ORCA-job run
  C   -0.74545368034890      0.19707233817325     -0.24361795872451
  C   0.76365102654298     -0.06673303479833     -0.51397926665518
  Br  -1.65392424313948      0.82092214464553     -1.83264362082535
  H   0.80380055024621     -0.76526184527600     -1.35441037483803
  N   -1.39279029642644     -1.14339589575726      0.14021564189499
  O   -2.26528997698845     -1.11322214684609      0.99508097038927
  O   -0.98542250344964     -2.12271755308087     -0.47040135834424
  C   -0.92179387720851      1.13424128145183      0.85110550390428
  N   -0.97087746974464      1.90691745030539      1.73677689694757
  N   1.47341842823359     -0.63539240428280      0.59774114176196
  H   1.18077318640437     -1.58093170388856      0.79880558035976
  H   1.45148928408390     -0.05534557733271      1.42637614618556
  C   1.38425637767940      1.20086369875620     -0.91562996708739
  N   1.87916319411561      2.22298324793040     -1.21341933496869
