16

C	-0.546192	0.024813	-1.431454
C	0.0	0.0	0.0
Cl	0.014482	-1.551611	-2.200327
H	1.088001	0.0	0.0
N	-1.949536	0.230071	-1.467756
H	-2.420777	-0.52076	-0.979335
H	-2.280874	0.308506	-2.420653
C	0.098436	1.075626	-2.228775
N	0.538917	1.862124	-2.98217
N	-0.478036	-1.169676	0.796965
O	-1.531397	-1.723119	0.476845
O	0.215403	-1.465514	1.761346
N	-0.487508	1.224188	0.718517
O	-1.253822	1.079091	1.66777
O	-0.072983	2.285365	0.270856
Cl	3.141874	0.0	0.0
