17
Coordinates from ORCA-job run
  C   -0.43251976467919     -0.15538585807301     -0.30021494477379
  C   0.94717526721715     -0.05329727402656      0.38560106918221
  F   -0.19946743484795     -0.47045167907994     -1.63505084423828
  H   0.81171854001926      0.09655850134044      1.45882431949180
  C   -1.21412932034961     -1.29873901963447      0.31696243763462
  H   -1.42421506970153     -1.10786942276079      1.37175682399744
  H   -2.16230378535351     -1.40289295854011     -0.21343334830611
  H   -0.66605287783819     -2.23792009434910      0.22308801193824
  C   -1.17911933266052      1.16211005403261     -0.25956557602982
  H   -0.65935795200395      1.91784601320250     -0.84948405759593
  H   -2.17022516244092      1.01640711075602     -0.69211507274895
  H   -1.28770784655625      1.52976963403650      0.76242202122864
  N   1.67104896800981      1.17723976211520     -0.10072729134472
  O   1.55682643272238      2.17310243395542      0.60888936153733
  O   2.25446026899314      1.10009774754468     -1.17442214537114
  C   1.76253452082633     -1.23425631934226      0.13151448176812
  N   2.39033454864355     -2.21231863117712     -0.03304524636967
