17
Coordinates from ORCA-job run
  C   -0.47678146509956      0.36790820000782     -0.18621469732549
  C   0.92748440584555      0.31690186021227      0.45530674653441
  F   -0.50389118242080      1.57465626520510     -0.88677490148373
  H   1.06674380360127      1.21558754191298      1.06008404787332
  C   -0.73804580807917     -0.75178949702912     -1.16951196210645
  H   -0.04444036305643     -0.70709424521989     -2.00823398387731
  H   -1.75415493475553     -0.64548906986463     -1.55372530425952
  H   -0.64319082997887     -1.72771485000124     -0.69009501180044
  C   -1.52078067123207      0.44491980319091      0.91066200714308
  H   -1.31118689527060      1.27956283353113      1.58327125848524
  H   -2.49718737665160      0.61217513225653      0.45251770122460
  H   -1.56032475824087     -0.48010028083900      1.48833563371935
  N   1.99426764425437      0.38808126269915     -0.61101670172882
  O   2.28574505096904     -0.65869293358006     -1.18060988123362
  O   2.45073135875657      1.50237011372123     -0.83695429465694
  C   1.11085081121932     -0.88596563379294      1.25393467078938
  N   1.21616121013939     -1.84731650241026      1.92002467270293
