17
Coordinates from ORCA-job run
  C   -0.49186758836366      0.34034204038186     -0.19999197416649
  C   0.90790907815719      0.37343258737087      0.45243232891522
  F   -0.56973043555315      1.52452548679482     -0.93448566826643
  H   1.00015676453521      1.29537698946026      1.03062822214939
  C   -0.69217205330300     -0.81727696827990     -1.15333639006712
  H   0.00496599593143     -0.76256294005602     -1.98849280385851
  H   -1.70920240525088     -0.76999516244150     -1.54684290389839
  H   -0.55527503713974     -1.77401515748093     -0.64618182955501
  C   -1.54735760924129      0.39791791665758      0.88694727300212
  H   -2.52598852765135      0.51122839209675      0.41710435772280
  H   -1.38083498938006      1.25616490340555      1.54160946784259
  H   -1.55132397042896     -0.51417236771155      1.48610019845792
  N   1.97932142371304      0.46278917117931     -0.60752977511496
  O   2.32337000587995     -0.58567247108242     -1.14391579471772
  O   2.38703115974238      1.58977485737142     -0.86231315424712
  C   1.13963532204527     -0.79572766426189      1.28760746236628
  N   1.28236286630762     -1.73212961340421      1.98166098343542
