17
Coordinates from ORCA-job run
  C   -0.48671470764004     -0.25112876341233      0.03799877406721
  C   0.91919302984056      0.32623685862450      0.31043750058366
  F   -0.49401909803501     -1.55120672658643      0.53289247274060
  H   0.94369803451756      1.37942199220109      0.02265753506982
  C   -1.51479462538696      0.54725410793617      0.81595977220070
  H   -1.28977926317546      0.53277826905290      1.88384773756911
  H   -2.49634494946976      0.09352101252600      0.66840642106376
  H   -1.55408846246067      1.58245325878907      0.46970500775333
  C   -0.78848248306600     -0.31830770067501     -1.44507980662982
  H   -0.12627425934944     -1.02839333817772     -1.94152721931597
  H   -1.81569296978166     -0.66148173872444     -1.57851433002259
  H   -0.67568290797133      0.65753308421109     -1.92089918399346
  N   1.93282266225521     -0.35352710213068     -0.57480314128083
  O   2.35744194815912     -1.44308810724074     -0.21177353689879
  O   2.19954369309857      0.23237489844537     -1.62078011674955
  C   1.30436779472909      0.16788632290208      1.70719212110298
  N   1.58380656373621      0.08567367225909      2.84427999273985
