17
Coordinates from ORCA-job run
  C   -0.59313109986197     -0.17420206204518      0.29394260398481
  C   0.88538583571104      0.06108300154503      0.69145062523965
  F   -1.13221016793798     -0.76467301287349      1.44300841519839
  H   0.89940894718936      0.63333614346945      1.62077783252388
  C   -1.31055910902256      1.14051862089317      0.07093059905514
  H   -0.98449983195236      1.62441239626506     -0.85101114708375
  H   -2.38034526176969      0.93845082379582     -0.00512827144846
  H   -1.14356320333926      1.82514296541663      0.90430128342680
  C   -0.76119852773550     -1.14912468621825     -0.84867443440514
  H   -0.31644728042873     -2.11298616189384     -0.59774377062809
  H   -1.82732837661376     -1.29645240886240     -1.03051191110608
  H   -0.29472688303849     -0.77444679812502     -1.76014568911756
  N   1.56175249676945      0.92591386957344     -0.33916863906099
  O   1.95650821278697      0.37711454831685     -1.36290740701079
  O   1.61717337458090      2.12479061287494     -0.08196769568153
  C   1.62357816647079     -1.18452885541030      0.85178682738086
  N   2.20020270819180     -2.19634899672193      1.00006077873288
