17
Coordinates from ORCA-job run
  C   -0.59041635836435     -0.17737966002010      0.29785348153175
  C   0.89123309157134      0.05805145279592      0.68406643972428
  F   -1.11783826264524     -0.77749942633595      1.44714430002319
  H   0.91212988536143      0.62473671277878      1.61665656132005
  C   -1.31243946646163      1.13754170049153      0.09107297956955
  H   -2.38242343660324      0.93383843604013      0.02236608536347
  H   -0.99498247640813      1.62941302300084     -0.82964273119352
  H   -1.13983666724128      1.81599484254542      0.92837886026981
  C   -0.76674759378043     -1.14378420612415     -0.85067973632949
  H   -0.31075440763644     -0.76050263900386     -1.76393755416326
  H   -0.31613790135507     -2.10813543564976     -0.61226055545288
  H   -1.83419929783515     -1.29301373446685     -1.02298355095132
  N   1.55767229057521      0.93010698284180     -0.34666561800017
  O   1.61482978948053      2.12725827438977     -0.08172198086599
  O   1.94397909749124      0.38865665650016     -1.37747562131327
  C   1.63220724793329     -1.18757962547380      0.83035371009959
  N   2.21472446591789     -2.19770335430984      0.96647493036821
