17
Coordinates from ORCA-job run
  C   -0.41990807242129     -0.15728376700079     -0.31606714801681
  C   0.92894617967206     -0.05065763484976      0.42739435625741
  F   -0.13029162616990     -0.49377794622910     -1.63464949782273
  H   0.74820702368774      0.12107499559192      1.49062117198103
  C   -1.23396044440688     -1.28761708340986      0.28304685172065
  H   -0.68629127157818     -2.23022033435326      0.23070555894162
  H   -1.49268933919905     -1.07813462778784      1.32337178293382
  H   -2.15651145922500     -1.39724324752650     -0.28961455140494
  C   -1.16066408245644      1.16423343801996     -0.32755170504439
  H   -1.30742244225387      1.54956518958442      0.68307920076846
  H   -2.13505507470299      1.01606877639859     -0.79585358010694
  H   -0.61376892462649      1.90701919045067     -0.90925021602550
  N   1.68298842632769      1.16465730298748     -0.05058123060306
  O   1.54205622500335      2.17671593219870      0.63088781025404
  O   2.31400831190522      1.06163537911762     -1.09480882943785
  C   1.74630511772353     -1.24157452848937      0.23280156206540
  N   2.37405145272047     -2.22646103470288      0.11546846353980
