17
Coordinates from ORCA-job run
  C   -0.48224108175886      0.36367728172815     -0.18089728801634
  C   0.91756219255352      0.32204826624021      0.47144930065637
  F   -0.52669267584418      1.58755084987534     -0.85006532024829
  H   1.03360301230893      1.20562886461647      1.10280815411613
  C   -0.71357742606532     -0.73444732918699     -1.19556575635622
  H   -1.72602495744734     -0.63278383367773     -1.59060220355917
  H   -0.61076251771290     -1.72083270425768     -0.73981365165920
  H   -0.00992434260226     -0.65816562641111     -2.02357974196022
  C   -1.53653023166961      0.39206447971627      0.90830815996956
  H   -1.56199379163991     -0.54757083817570      1.46275301535501
  H   -2.51233750082820      0.55094585664601      0.44587008550781
  H   -1.34962909033830      1.21383683562734      1.60314659459721
  N   1.99165894055880      0.44323966718510     -0.58195726719848
  O   2.31004025886873     -0.58191949799908     -1.17614729160731
  O   2.42761702839607      1.57210033604209     -0.77378521237660
  C   1.11615050660426     -0.89920301162831      1.23807853541189
  N   1.23308167661656     -1.87616959634039      1.87899988736790
