11
Coordinates from ORCA-job run
  C   -0.89849640114518     -0.01205374553969     -0.45256997483800
  C   0.29076478480438     -0.70360051150552      0.21478938680878
  Cl  -2.40626706218752     -0.91964306198651     -0.14705442858282
  H   0.07985020929686     -0.80422390500850      1.28734760792125
  H   -0.73805245025652      0.01029825313675     -1.53098799136855
  H   0.36306803152217     -1.70835952994868     -0.20688104104257
  C   -1.02983294403874      1.35738406192949      0.03699212453841
  N   -1.08019943364617      2.45085463192896      0.46162351420622
  N   1.49034458195797      0.04793543925712     -0.11865717023580
  H   2.30946901330631     -0.54142994938467     -0.06340122311154
  H   1.61835167038644      0.82183831712125      0.52079919570462
