11
Coordinates from ORCA-job run
  C   -0.85343138322842      0.05551940101403     -0.24041718363503
  C   0.64917371830914      0.07337492766812      0.02133811917139
  Cl  -1.75466348616280     -0.07813449028290      1.30247400083054
  H   0.87908447982443      0.93270718453390      0.66608963597440
  H   -1.09901370220862     -0.83588847855122     -0.82009776848802
  H   1.14086872841411      0.23484179548626     -0.94247034156518
  C   -1.28588137825662      1.25195381720198     -0.95544121668229
  N   -1.61586835087329      2.20307381697716     -1.55941182142909
  N   1.06156457582113     -1.22109189551315      0.53982136284101
  H   0.81205865098494     -1.30109542648283      1.51736692143502
  H   2.06610814737600     -1.31626065205134      0.47074829154725
