11
Coordinates from ORCA-job run
  C   -1.00071928671430     -0.06208271543949     -0.25469383148119
  C   0.35779832350309     -0.72610086408819     -0.01891484355609
  Cl  -1.97425863500206     -0.02728193585359      1.23848068790100
  H   0.79744762355598     -0.91224577077688     -1.01085004043675
  H   -1.57357227250326     -0.63505433216972     -0.98801363197263
  H   0.16965306277279     -1.69551782935379      0.44743539924781
  C   -0.81903484891933      1.29454177571182     -0.76568694846365
  N   -0.64702638202658      2.36327600612852     -1.22008805531655
  N   1.17209470215008      0.08512808651120      0.86277428141394
  H   1.67405713020673      0.79462066572489      0.34576972817710
  H   1.84256058297687     -0.47928308639477      1.36378725448702
