11
Coordinates from ORCA-job run
  C   -0.97571395034684     -0.05101824253552     -0.23857148286192
  C   0.41435652427323     -0.67018080591444     -0.12829292413207
  Cl  -1.77015296656521     -0.02563747912365      1.36867330882596
  H   0.82030691747363     -0.72882433787565     -1.14281930133481
  H   -1.61153632224551     -0.66799457461060     -0.87782081320382
  H   0.28628877468448     -1.69715178372056      0.24245951105315
  C   -0.92011148166859      1.30121877732484     -0.78504976662992
  N   -0.86486434605545      2.36692419923696     -1.27338610952759
  N   1.27837608124124      0.17392252303622      0.67333343601577
  H   2.24989833024988     -0.04431813941486      0.50181272109976
  H   1.09315243895913      0.04205986359728      1.65866142069547
