11
Coordinates from ORCA-job run
  C   -0.75996725693098      0.11650926527094     -0.26357453685112
  C   0.72884747341222      0.11882842920179      0.13476953588622
  Cl  -1.78793476517620     -0.25448125968577      1.15407676692349
  H   1.29911027929924      0.42794407691924     -0.74672633934363
  H   -0.94956322136032     -0.67342698097604     -0.99464841940413
  H   0.87132093977824      0.88294586202379      0.90261544027528
  C   -1.15722925705658      1.39806518060188     -0.83676555036622
  N   -1.45298029588608      2.42213458938122     -1.32944933726462
  N   1.25713734372512     -1.13538446121617      0.61694456445724
  H   0.76687693406572     -1.44017829604830      1.44718551771091
  H   1.18538182612961     -1.86095640547258     -0.08442764202342
