11
Coordinates from ORCA-job run
  C   -0.95872501094596     -0.06707969146970     -0.16764548591273
  C   0.39998353003610     -0.79496021882904     -0.15017862839887
  Cl  -1.66028990107600     -0.01336531425264      1.47833686753705
  H   0.71456643638738     -0.91116019484527     -1.19235895636592
  H   -1.67321791756197     -0.61044798816834     -0.79073391577232
  H   0.22677987621518     -1.79501049385511      0.25552026462227
  C   -0.80500457097443      1.29075005113173     -0.67968401694405
  N   -0.61126473476004      2.36542010754738     -1.11154698008342
  N   1.46298764660988     -0.16223546728451      0.59022101281165
  H   1.69238806061626      0.74469649822858      0.20415874263910
  H   1.21179658545361     -0.04660728820310      1.56291109586725
