11
Coordinates from ORCA-job run
  C   -0.97611998076992     -0.03758722822149     -0.22516142713210
  C   0.41083124467673     -0.66863887845685     -0.15670939725792
  Cl  -1.74763176587738     -0.06165343697989      1.39262194751039
  H   0.80121605994464     -0.69650207293395     -1.17857581747043
  H   -1.62566465966845     -0.62631556518503     -0.87698626459951
  H   0.28256567765757     -1.70634325705273      0.18293277605166
  C   -0.91977345170186      1.33246529030516     -0.72685438015343
  N   -0.89019258699985      2.41307671467609     -1.18343945046164
  N   1.29212826221240      0.14492243899981      0.65829422113640
  H   2.25929179891878     -0.08147704553672      0.47244452840629
  H   1.11434940160733     -0.01194695961440      1.64143326397029
