13
Coordinates from ORCA-job run
  C   -0.55239642215424     -0.43076138310851     -0.47866690803422
  C   0.52418832646574      0.11992715978607      0.11877916005185
  H   -0.36235374348299     -1.12546673697758     -1.29636937084000
  C   -1.98220514854403     -0.17629975548188     -0.12440635572931
  H   -2.07768840649805      0.53049259361586      0.70097110956925
  H   -2.47767078930749     -1.10934365221308      0.16005161071231
  H   -2.52434232135579      0.22282664984503     -0.98675731275337
  C   0.34140666465031      1.04428988366703      1.20369340182323
  N   0.21993776979431      1.80335231143160      2.09465516716124
  C   1.94896527944580     -0.16666671461835     -0.27433287250365
  H   1.97832363838342     -0.87560916384898     -1.10330499422049
  H   2.50644192415959     -0.58727461524011      0.56637213221908
  H   2.45839322844346      0.75053342314289     -0.58068476745591
