13
Coordinates from ORCA-job run
  C   -0.54908653589050     -0.61564523480867     -0.19835561324667
  C   0.52343486864326      0.16368113051226      0.04943906401460
  H   -0.35358218477429     -1.63328406220882     -0.53479314096186
  C   -1.98161734859011     -0.21346893006735     -0.05466812267764
  H   -2.08389923595353      0.81947114640290      0.28064717773867
  H   -2.50627395028131     -0.32171887152335     -1.00859530760409
  H   -2.49034776039245     -0.86258130830293      0.66431933755761
  C   0.33267986237881      1.51655728937239      0.49489371200517
  N   0.20486752062379      2.62769159469036      0.86077671300367
  C   1.95134899515610     -0.28639294899998     -0.10868502269319
  H   2.47840133125364      0.34181764097380     -0.83102350689999
  H   1.98699507940173     -1.32113250952682     -0.45327419314461
  H   2.48707935842486     -0.21599493651379      0.84131890290833
