13
Coordinates from ORCA-job run
  C   -0.55943737146399     -0.60665447007016     -0.19652685944731
  C   0.52622319750625      0.15551712652668      0.04794296216320
  H   -0.38093100531191     -1.62693344940116     -0.53503998590359
  C   -1.98494763164016     -0.18343826122407     -0.04462455700106
  H   -2.51438111237178     -0.27669440533962     -0.99754649428980
  H   -2.50151188684258     -0.82993947809313      0.67111901221150
  H   -2.07023144596430      0.84868732242010      0.29800520661730
  C   0.35856128059826      1.51022979751514      0.49694433586949
  N   0.24986700834897      2.62251665714188      0.86542144387031
  C   1.94627262392108     -0.31560353313478     -0.11975626660818
  H   2.49043744599016     -0.25137863754676      0.82598451898956
  H   1.96468879007377     -1.35118779966130     -0.46334059217482
  H   2.47639010715621      0.30387913086718     -0.84758272429661
