13
Coordinates from ORCA-job run
  C   -0.87319564281663      0.06616589157250      0.45817147242367
  C   0.42566957277506      0.43366803037535      0.41012100872155
  H   -1.47329661180538      0.47651767169840      1.26893517154595
  C   -1.58760772351223     -0.84869500335096     -0.48468953443049
  H   -0.94807441433848     -1.23661269369415     -1.27595491415264
  H   -2.00765381394344     -1.69871226524203      0.06133489321139
  H   -2.42852166247541     -0.32684735154019     -0.95129497413192
  C   0.90367264688049      1.33002389410562      1.42794884160345
  N   1.32630567213170      2.06239844037046      2.24595380535020
  C   1.45893561006834      0.01099264931504     -0.60051149950281
  H   1.04533212748556     -0.66330428305210     -1.34837128787684
  H   1.86721680181257      0.88626292871272     -1.11230277507993
  H   2.29121743773787     -0.49285790927066     -0.10234020768160
