13
Coordinates from ORCA-job run
  C   -0.86027573645685     -0.01521898319373      0.48708229531623
  C   0.43093319136176      0.37991887754882      0.45530243766456
  H   -1.44248522770136      0.26650559902770      1.36322236658328
  C   -1.58901797821866     -0.80020241450919     -0.55664317096117
  H   -0.95779906648779     -1.09287561460260     -1.39376098161581
  H   -2.42913091267064     -0.21867175555788     -0.94811352650117
  H   -2.01156113770350     -1.70823490275487     -0.11657670224348
  C   0.92726515863896      1.13016416189296      1.57751165147078
  N   1.36430162615650      1.74583218957520      2.47980620513675
  C   1.43994537791662      0.12267719458381     -0.63258211811549
  H   1.00467614104804     -0.41665471906144     -1.47198619952687
  H   2.27706534941071     -0.46179190756811     -0.24215396243931
  H   1.84608321470621      1.06755227461931     -1.00210829476828
