13

C	-0.578305	-0.099434	-1.389848
C	0.0	0.0	0.0
Br	0.082936	1.48866	-2.479234
H	1.091008	0.0	0.0
H	-0.153371	-0.952734	-1.914615
H	-0.349409	0.934144	0.47063
N	-2.000321	-0.157948	-1.395412
H	-2.37337	0.692054	-0.988598
H	-2.357834	-0.236875	-2.33931
N	-0.381534	-1.220234	0.716071
H	0.348853	-1.417234	1.388905
H	-1.264881	-1.114216	1.193661
H	3.010547	0.0	0.0
