13

C	-0.430652	0.082198	-1.452658
C	0.0	0.0	0.0
Br	-0.311068	-1.713532	-2.306701
H	1.102145	0.0	0.0
H	-1.489164	0.333353	-1.56571
H	-0.310634	0.963668	0.43204
N	0.389085	0.993201	-2.213331
H	1.355109	0.866427	-1.903061
H	0.112129	1.940442	-1.973437
N	-0.651207	-1.066021	0.768584
H	-0.316662	-0.974842	1.722535
H	-0.261962	-1.942809	0.434584
H	3.070811	0.0	0.0
