15
Coordinates from ORCA-job run
  C   0.70342579363176      0.06566345071858     -0.64710573350412
  C   -0.52302691794484      0.48051260898177      0.12425837547957
  H   0.40583511541857     -0.68555057170742     -1.38135368602069
  H   -0.35411127814016      1.28908407009632      0.83555430567362
  H   1.05569849371676      0.93811416291502     -1.20190312806362
  C   1.79010995378227     -0.46912095050362      0.28275927130345
  H   2.70087795050815     -0.66421083654174     -0.28520769652795
  H   1.48793005812029     -1.40602254221198      0.75438813927198
  H   2.03191593510145      0.24466383132647      1.07380132306788
  N   -1.04265423333038     -0.68055002024622      0.91571933268340
  O   -1.50470976248469     -1.61186637630747      0.26493922086622
  O   -0.90938460050513     -0.62351837867820      2.13384694788499
  N   -1.66712808414258      0.92480931068299     -0.75337330628896
  O   -2.71388058659801      1.16367974223656     -0.16073540484169
  O   -1.46289783713346      1.03431249923895     -1.95658796098408
