15
Coordinates from ORCA-job run
  C   0.60957837132779     -0.28848601953334     -0.83847680416466
  C   -0.81398392787401     -0.01015661140373     -0.40269132690358
  H   0.60151590407454     -1.28162166052219     -1.29661449426867
  H   -1.55904954753922     -0.31622533202884     -1.13638163382701
  H   0.85328266943662      0.43036489261556     -1.62448898993655
  C   1.64096699889946     -0.23585850317612      0.28488505045778
  H   1.47658379923029     -1.03405981773457      1.01154700663072
  H   1.61879514191316      0.72050633713097      0.80467326814951
  H   2.63955128826801     -0.37417609852648     -0.13315108915244
  N   -1.10924029551174      1.43413492287873     -0.10691178293222
  O   -2.29254708615731      1.68388256511616      0.09958636981128
  O   -0.18057970918553      2.23527584926799     -0.10393058694156
  N   -1.11410014534490     -0.78529233085871      0.84957495512407
  O   -1.04154681160693     -0.20038135331558      1.92270167823527
  O   -1.32822664993023     -1.97890683990987      0.66967837971804
