15
Coordinates from ORCA-job run
  C   0.59213774335349     -0.38229690839383     -0.81294238985179
  C   -0.81990155943084     -0.03499275631583     -0.38935613639282
  H   0.60864826058710     -1.45176056063311     -1.03638865998491
  H   -1.53221392872124     -0.03747914943684     -1.21379945920351
  H   0.77020136903474      0.14933344670812     -1.75205762535099
  C   1.66903123531474     -0.02351708660556      0.20688416521778
  H   1.47448648350870     -0.48430122692948      1.17390995718755
  H   1.74272693389797      1.05748354297247      0.34176404393032
  H   2.63824322241918     -0.37574646345607     -0.15035412260530
  N   -0.84289125188355      1.35510330649818      0.18176524244635
  O   -0.82020490793701      1.48008470761720      1.39948915749419
  O   -0.79906572104101      2.24955261488870     -0.65547795585642
  N   -1.40562544776137     -0.94770822737223      0.65204090674744
  O   -2.59538760087735     -0.76147768144815      0.88659930430240
  O   -0.68118483046354     -1.79227755809357      1.16792357191971
