15
Coordinates from ORCA-job run
  C   0.72008284167791     -0.57523969578739      0.19813905206518
  C   -0.66203607898574     -0.12227653454713     -0.20545821152202
  H   0.80962507586143     -0.48279211504157      1.28283649242736
  H   -0.85342682970518     -0.20961020589143     -1.27516069915303
  H   0.79438210123554     -1.63359540434281     -0.06011518913020
  C   1.80369511534144      0.23413788309007     -0.50760329072848
  H   2.78859571964198     -0.16373230726391     -0.25810280460972
  H   1.69117125396490      0.18893328822474     -1.59386074623872
  H   1.78270613734866      1.28058937347820     -0.19939154867114
  N   -0.91424140527806      1.30826856208764      0.15530256400690
  O   -1.55414523323152      1.96728334503201     -0.66073661502599
  O   -0.47470503736666      1.69959785677577      1.23120367194445
  N   -1.72481489090056     -0.95296708802502      0.47572514197712
  O   -2.53727905379118     -0.38984379007895      1.19734090386020
  O   -1.66960971581297     -2.14975316771023      0.21988127879809
