17

C	-0.262629	-0.091523	-1.518287
C	0.0	0.0	0.0
F	-1.609466	-0.409456	-1.728865
H	1.096159	0.0	0.0
C	0.02541	1.255642	-2.143698
H	-0.049888	1.141838	-3.226217
H	1.040732	1.566227	-1.877252
H	-0.684719	2.00656	-1.797381
N	0.527869	-1.095956	-2.1777
H	0.327164	-1.975802	-1.715811
H	1.498015	-0.881279	-1.932528
N	-0.408581	-1.170724	0.776116
O	-0.258908	-2.28789	0.263987
O	-0.779463	-0.997765	1.942956
C	-0.517098	1.200026	0.618081
N	-0.875918	2.228392	1.062924
H	2.481344	0.0	0.0
