17

C	-0.333378	0.028531	-1.498427
C	0.0	0.0	0.0
F	0.202216	-1.130942	-2.092344
H	1.108318	0.0	0.0
C	-1.809493	0.03836	-1.832589
H	-2.271588	-0.874763	-1.456454
H	-1.935345	0.072005	-2.919871
H	-2.287526	0.912815	-1.38946
N	0.340354	1.183702	-1.988277
H	1.319769	1.114358	-1.7006
H	0.293198	1.195797	-3.001437
N	-0.448944	-1.166747	0.757047
O	-0.746131	-2.203559	0.149869
O	-0.396666	-1.075102	1.989286
C	-0.444112	1.202804	0.669053
N	-0.766567	2.196696	1.206693
H	2.472801	0.0	0.0
