17

C	-0.265414	-0.11472	-1.514943
C	0.0	0.0	0.0
F	-1.611165	-0.431754	-1.722402
H	1.092675	0.0	0.0
C	0.0267	1.223186	-2.159234
H	1.039447	1.538677	-1.892511
H	-0.043738	1.093484	-3.239932
H	-0.686611	1.978011	-1.828352
N	0.526348	-1.129092	-2.158629
H	1.497305	-0.90202	-1.931074
H	0.336005	-2.000725	-1.676284
N	-0.399894	-1.15796	0.802439
O	-0.347446	-2.278676	0.281337
O	-0.659976	-0.969854	1.995567
C	-0.514138	1.208374	0.604833
N	-0.883725	2.233668	1.047853
H	2.488343	0.0	0.0
