17

C	-0.343898	0.136176	-1.499081
C	0.0	0.0	0.0
F	0.218457	-0.939891	-2.161918
H	1.107262	0.0	0.0
C	-1.826158	0.148912	-1.799764
H	-2.268003	-0.79037	-1.467193
H	-1.958882	0.253058	-2.878436
H	-2.318343	0.981579	-1.292171
N	0.314015	1.307405	-2.024447
H	-0.110315	2.142143	-1.637756
H	1.283505	1.271039	-1.705046
N	-0.446502	-1.19523	0.702678
O	-0.431483	-1.151908	1.941259
O	-0.697682	-2.213799	0.045251
C	-0.443071	1.174259	0.71674
N	-0.775568	2.185947	1.218837
H	2.451116	0.0	0.0
