12
Coordinates from ORCA-job run
  C   -0.14248187838845      0.20571835289343      0.10638944391716
  C   1.14291817271596      0.27422229635301      0.50082381570746
  H   1.46949440649833      1.08086029902687      1.14830783974121
  C   -0.78044977596169     -0.81037672629739     -0.77104950049699
  H   -1.20058469552715     -0.33477647660920     -1.65918928368110
  H   -1.60405477077387     -1.30014345386341     -0.24814274124595
  H   -0.04697004379307     -1.55816579344726     -1.07279089632585
  N   -1.03892717578077      1.28113747149641      0.59943949877143
  O   -0.57786017228842      2.12918357999550      1.35714396433997
  O   -2.20217486802846      1.23700810357508      0.19948468397526
  C   2.09534574410590     -0.70035854920853      0.08920838395960
  N   2.88574505722168     -1.50430910391450     -0.24962520866218
