12
Coordinates from ORCA-job run
  C   -0.14688649306378      0.21041098087665      0.09031271471508
  C   1.16835875874784      0.46734000182401      0.21849348709465
  H   1.49902853917842      1.41358097902407      0.63299796977036
  C   -0.79447870292416     -1.01378041214199     -0.44962470376218
  H   -1.41664175941718     -0.76485729018683     -1.31120739858158
  H   -1.44880455315309     -1.45997394190878      0.30150970730895
  H   -0.03653659419591     -1.73852503850065     -0.74698085709807
  N   -1.07217360077153      1.28041828766458      0.53983256057943
  O   -2.27254086372854      1.04709427451618      0.39914629891796
  O   -0.59655610193305      2.30817992803488      1.01236555978157
  C   2.14981011636808     -0.48382277220876     -0.17975265149144
  N   2.96642125489290     -1.26606499699336     -0.50709268723475
