12
Coordinates from ORCA-job run
  C   -0.12963195617491     -0.04241578868823     -0.08780680260561
  C   1.20625102658736     -0.17771263051237     -0.17743628727188
  H   1.59521209895763     -0.88112397934110     -0.90825412806023
  C   -1.13561087270710     -0.78772504330165     -0.89322250031357
  H   -1.82104740952343     -0.09097905667563     -1.38212788130471
  H   -0.63983239574468     -1.39189708931633     -1.65322748853472
  H   -1.73234971906354     -1.43360684750404     -0.24763780508851
  N   -0.70266077618822      0.87611533459985      0.91318466371166
  O   -1.74925930308032      0.50318377292921      1.44205272998805
  O   -0.11110276587552      1.92847528122425      1.13850026906104
  C   2.17483118412622      0.49776668958305      0.62038603058473
  N   3.04420088868649      0.99991935700298      1.23458919983376
