12
Coordinates from ORCA-job run
  C   -0.14300208981789     -0.07234111367295     -0.02440663668936
  C   1.14498847624667     -0.44603011538782      0.08906921966077
  H   1.40778936695668     -1.45371086109781     -0.22015558700062
  C   -1.24858583716666     -0.91559456203321     -0.55658842451496
  H   -2.07339751182920     -0.95527558851928      0.15914303777893
  H   -0.89367621999132     -1.92866581124866     -0.74660462724335
  H   -1.63911601739253     -0.48755728033927     -1.48081327215690
  N   -0.54054144579408      1.29660893983948      0.35205445190238
  O   -1.41932369975567      1.80670876255326     -0.34204407129746
  O   0.01707287778764      1.81747352519595      1.31422857552243
  C   2.21861185361669      0.36797786678688      0.55371886071291
  N   3.16818024713966      0.96940623792344      0.90239847332524
