12
Coordinates from ORCA-job run
  C   -0.15019373024458      0.20069044384899      0.10577668142217
  C   1.14219242799333      0.34721204651384      0.45364234296087
  H   1.44693209848722      1.18547432576475      1.07047968811420
  C   -0.76060754495822     -0.86772016001114     -0.72808713466188
  H   -1.25267343522819     -0.43307895593039     -1.60017920304208
  H   0.00537381349607     -1.56997066916437     -1.05705051616915
  H   -1.52418607903150     -1.40276183262783     -0.16072514195567
  N   -1.08881413882999      1.23003107422806      0.61774273957384
  O   -2.27231728074242      1.07577883945453      0.31620682741385
  O   -0.63977728761740      2.14999062890983      1.29452412402538
  C   2.13418425865353     -0.57778081336160      0.02092267183148
  N   2.96088689802215     -1.33786492762467     -0.33225307951300
