12
Coordinates from ORCA-job run
  C   -0.14153200368236      0.22450340615716      0.06130214320735
  C   1.17961594600289      0.48037370130902      0.10079546600910
  H   1.53287566728499      1.47290812881918      0.35887595315724
  C   -0.81854803156524     -1.05776913200016     -0.26567257309387
  H   -1.48493301246931     -0.92835672003383     -1.12044871652025
  H   -1.43230206805070     -1.38766644418776      0.57451332623336
  H   -0.07823471322125     -1.82393031741217     -0.49613620894951
  N   -1.04054979564867      1.35938466354114      0.38832703942310
  O   -0.54010373642777      2.44942659851606      0.64804003477706
  O   -2.24611350395100      1.11137568979942      0.37471337632217
  C   2.13690412564903     -0.53168462851876     -0.19183670960939
  N   2.93192112607940     -1.36556494598931     -0.43347313095637
