12
Coordinates from ORCA-job run
  C   -0.13982248932657      0.21784239073608      0.08308775884987
  C   1.16380618844082      0.35260467001296      0.39084703897379
  H   1.51197033573621      1.24501854492896      0.89962927112622
  C   -0.80775879298941     -0.91734392327494     -0.60581493429495
  H   -0.07720712407312     -1.68760216096635     -0.85318404512243
  H   -1.29493026697289     -0.57308165726954     -1.51989674959891
  H   -1.58407846305538     -1.34450499741146      0.03156372682798
  N   -1.02730596386182      1.34065504003010      0.47770879485152
  O   -2.21656370923809      1.21340344880370      0.18704434469745
  O   -0.53401293088939      2.30447385946853      1.05521099167287
  C   2.10938320559978     -0.65937233828863      0.06177110235650
  N   2.89552001062986     -1.49309287676940     -0.20796730033989
