12
Coordinates from ORCA-job run
  C   -0.14097846463108      0.21480995800275      0.08955107612978
  C   1.17136916368914      0.37734064931436      0.34218840176130
  H   1.52190478128522      1.27716511347558      0.83619505235774
  C   -0.81272424520049     -0.93425320966188     -0.57210672456731
  H   -1.55702370453807     -1.37403205490926      0.09430346420376
  H   -0.07772396266956     -1.69169349186532     -0.84470373416174
  H   -1.33954160142201     -0.60101695145302     -1.46813301928511
  N   -1.03448948602891      1.31915694180928      0.52020209703607
  O   -0.54024526799775      2.28554723365247      1.09269173919890
  O   -2.22961734506663      1.17496635083490      0.26323883582859
  C   2.12341666388026     -0.61502561067691     -0.02602136753922
  N   2.91465346869987     -1.43296492852294     -0.32740582096276
