12
Coordinates from ORCA-job run
  C   -0.12680556798872     -0.08184708560599     -0.05913718509143
  C   1.21430783514134     -0.19219531021310     -0.08113605839634
  H   1.65335529654975     -0.87908340384916     -0.79912781366962
  C   -1.07329486144511     -0.80919632739549     -0.94887421091368
  H   -1.59909610488578     -0.10592914139469     -1.59615951772550
  H   -0.53618224892483     -1.53427598197173     -1.56056056123149
  H   -1.82686149864771     -1.33185638236830     -0.35454881296828
  N   -0.76498782047067      0.86261237752305      0.87589331374175
  O   -1.76983285300083      1.43408503810251      0.45409804855663
  O   -0.26314890435099      1.00467650169356      1.98770691532364
  C   2.13087328331212      0.53372416302100      0.73376534598904
  N   2.96167344471144      1.09928555245835      1.34608053638528
