12
Coordinates from ORCA-job run
  C   -0.13126874931005     -0.07914907043581     -0.05209939808570
  C   1.20403583137779     -0.22933502723483     -0.12689294947467
  H   1.58693970994749     -1.19087819742850     -0.45689745593538
  C   -1.14259088996438     -1.12547731701158     -0.36668870428334
  H   -1.69800307842471     -1.39616687749923      0.53237642111053
  H   -0.65585826850480     -2.01196753470948     -0.77375583174826
  H   -1.86455308718811     -0.74817943042988     -1.09516715123356
  N   -0.69572154160828      1.19794293276623      0.42156339362187
  O   -1.71669112550395      1.11004600537535      1.10273598238568
  O   -0.12316193410106      2.23697470431116      0.10418858064506
  C   2.18054232820567      0.75044384216640      0.21628787609826
  N   3.05633080507439      1.48574597013018      0.49434923689953
