12
Coordinates from ORCA-job run
  C   -0.12567900987677     -0.03655113434556     -0.09913802607021
  C   1.21590339820965     -0.04479024082788     -0.20019085524831
  H   1.66264078439167     -0.61576757018998     -1.00954954811584
  C   -1.07342029423996     -0.75579487039199     -0.99471319682838
  H   -0.53739315328898     -1.21123260189520     -1.82771704478079
  H   -1.81724119144163     -0.06111839868716     -1.39144101843485
  H   -1.61171094970533     -1.52160644294797     -0.43442240708448
  N   -0.76697666106434      0.68635647114910      1.01776080804611
  O   -1.78408597580731      0.16634724210360      1.47448581671414
  O   -0.25191006733239      1.73284268761714      1.40084385138051
  C   2.12897610292385      0.59776276288504      0.68752585801960
  N   2.96089701723154      1.06355209553086      1.37755576240251
