12
Coordinates from ORCA-job run
  C   -0.13633438816009      0.22482534577649      0.07028589643815
  C   1.17416315484511      0.36655238446229      0.34412018490958
  H   1.53990142416314      1.28696869067038      0.78640043475562
  C   -0.82713547863514     -0.94721352806698     -0.52860104429710
  H   -1.58975734564717     -1.32758598086568      0.15343801560509
  H   -0.10692317062648     -1.73671441464338     -0.74353818506648
  H   -1.33477658871625     -0.65833421457893     -1.45065833503848
  N   -1.00662582576565      1.37873378444022      0.40800041192003
  O   -0.49221644542055      2.37844814019349      0.89984302683171
  O   -2.20462634887131      1.23853089651653      0.16253679585997
  C   2.10468399958747     -0.67369604173987      0.06389822434264
  N   2.87864701324691     -1.53051506216456     -0.16572542626072
