12
Coordinates from ORCA-job run
  C   -0.14263796613797     -0.07505707891309     -0.01865620264843
  C   1.15988661456894     -0.41196606417000     -0.05400388365420
  H   1.41001540125569     -1.46838938094082     -0.01514842560195
  C   -1.28344321825373     -1.02579187266136      0.08585832239876
  H   -0.92734065789401     -2.05406349456172      0.02258105446712
  H   -2.00108016415148     -0.84718278772065     -0.71876155568103
  H   -1.81022826966747     -0.88136275486065      1.03018411600424
  N   -0.52758179166737      1.34778217326510     -0.03336352846717
  O   0.13970243405460      2.12126327355657     -0.71499778661121
  O   -1.50824043242190      1.64219364496123      0.64931390987073
  C   2.26053660762119      0.49192914656282     -0.10532147173342
  N   3.22941144269350      1.15964519548257     -0.12668454834345
