12
Coordinates from ORCA-job run
  C   -0.13728486201124      0.22728379056546      0.05786303936804
  C   1.18570282986966      0.47440675103120      0.02502961675085
  H   1.55582672885447      1.47528783233803      0.21946746034024
  C   -0.83597551049570     -1.06325840500039     -0.17760602984388
  H   -1.53693783313560     -0.96958354253511     -1.00906801689157
  H   -0.11153948176601     -1.84664956084147     -0.40043671582511
  H   -1.41681081565074     -1.34614468609321      0.70225015000970
  N   -1.01373063409499      1.38394707048438      0.36985789360104
  O   -0.49487344907533      2.47890712432964      0.56416500906856
  O   -2.22108604483562      1.14776986254844      0.41107369110542
  C   2.12367629435883     -0.55711106100410     -0.26240922496752
  N   2.90403277798226     -1.40585517582288     -0.50018687271577
