12
Coordinates from ORCA-job run
  C   -0.13889760003459      0.22844878498723      0.04889165506612
  C   1.18536426464897      0.46807430615575      0.08136483922223
  H   1.55160482195031      1.46371483737251      0.30760353855398
  C   -0.83354170592055     -1.05495149682702     -0.23379095431996
  H   -1.52316961915588     -0.93689234485140     -1.07187768229501
  H   -0.10529902643298     -1.83082071355039     -0.47018762298900
  H   -1.42540097108599     -1.36356529307004      0.62976129985421
  N   -1.02146396228893      1.38193592523431      0.35274117265290
  O   -0.51521280680836      2.49388662357881      0.46860394073947
  O   -2.21939243189413      1.12540909476454      0.47099268178169
  C   2.13017859568615     -0.56360929957157     -0.18259509893236
  N   2.91623044133599     -1.41263042422271     -0.39950776933427
