12
Coordinates from ORCA-job run
  C   -0.14131960740844      0.22664729277575      0.05052433503171
  C   1.17877254906114      0.49053457008441      0.04361319756990
  H   1.53156554259985      1.50005171567001      0.22499614857881
  C   -0.81793968629363     -1.07768905068647     -0.17365636187921
  H   -1.42138489102074     -1.34613779888706      0.69534491415844
  H   -0.07828933394031     -1.85718075027637     -0.35658351364570
  H   -1.49487095972502     -1.01219284416317     -1.02744641445252
  N   -1.03993564332854      1.37847319022438      0.31412062418024
  O   -2.24554118324888      1.13026285387441      0.31543365964758
  O   -0.53926013200133      2.48162644572433      0.50956063718171
  C   2.13641669920716     -0.53475424882710     -0.19799847125105
  N   2.93278664609874     -1.37864137551312     -0.39690875511990
