12
Coordinates from ORCA-job run
  C   -0.13844333805243      0.22847179936879      0.05094202032778
  C   1.18499984067700      0.47492488064458      0.03748586885020
  H   1.55238226393674      1.47889024710917      0.22053517330032
  C   -0.83288483084856     -1.06648799483065     -0.17323869905310
  H   -0.10481147903853     -1.85363077518142     -0.36925995203780
  H   -1.42906464135699     -1.33351294644899      0.70126531716455
  H   -1.51918501489399     -0.98740570023960     -1.01837828287484
  N   -1.02024030207924      1.39040146092119      0.32568384405066
  O   -2.22794113894326      1.15425089302636      0.35304047795039
  O   -0.50484308202399      2.48940642156017      0.50592422534415
  C   2.12777580153703     -0.56166512704751     -0.21394894068463
  N   2.91225592108621     -1.41464315888207     -0.42105105233768
