16
Coordinates from ORCA-job run
  C   0.87956939228269     -0.76355347718924      0.10571004494426
  C   -0.56049307152024     -0.19352261887022      0.17485739562566
  Br  0.86832411264988     -2.63590875499739     -0.51278370394836
  H   -1.11169380570968     -0.87925520143942      0.82904619857820
  C   1.70041768491113      0.01014823369556     -0.82533278683014
  N   2.32056832452294      0.66626931160123     -1.57856870171429
  C   1.50354874307032     -0.76818499554278      1.42877681783730
  N   1.96957592366127     -0.75398645398810      2.50807892515441
  C   -1.22081211112804     -0.15296248983889     -1.19894758899910
  H   -1.26597318860696     -1.13715369816320     -1.66561105124842
  H   -2.24326417428822      0.21621946997603     -1.09246397620395
  H   -0.68797739958658      0.52784771862110     -1.86824489858281
  C   -0.53209957074800      1.19846705869896      0.80806818992193
  H   -0.10491059759400      1.18851419736242      1.81254304677990
  H   -1.55382734925120      1.57781590818367      0.88248562313387
  H   0.03904708733470      1.89824579189027      0.19138646555153
