16
Coordinates from ORCA-job run
  C   0.99325113306320     -0.51842458204380      0.09859299809177
  C   -0.36168631937847      0.22786609102492      0.21953881488177
  Br  1.39217616665686     -1.01829894760059     -1.76835799380740
  H   -0.44285246615982      0.43594228268893      1.29580884040665
  C   2.09183939498192      0.32908465798352      0.56132431589107
  N   2.94170164563145      1.04151933430091      0.95222536473726
  C   0.97240077610572     -1.75460510715237      0.88011504723365
  N   0.91393094893520     -2.73248017209772      1.53027834863289
  C   -1.53566267612138     -0.65296499707737     -0.19324857577259
  H   -2.46837592328333     -0.12367344393371      0.01444578455291
  H   -1.50436936311695     -0.87241845352969     -1.26223566197941
  H   -1.55674179270392     -1.59599791163941      0.35703509256363
  C   -0.34962224889281      1.55509245352889     -0.53065633416282
  H   0.47935915588397      2.19541553039108     -0.22186514838742
  H   -1.27975879251563      2.08939777222213     -0.32423313043844
  H   -0.28558963908600      1.39554549293428     -1.60876776244353
