16
Coordinates from ORCA-job run
  C   0.97616219174609     -0.62817532606751     -0.14303050732408
  C   -0.28669446165834      0.19197596248041     -0.51200620185691
  Br  1.18886644586665     -2.17560788732017     -1.34689629756685
  H   -0.15887414176705      0.46009006607916     -1.56737438134478
  C   2.18573254034287      0.18087282921710     -0.29209231156408
  N   3.13365591256242      0.86323659408489     -0.42669584751413
  C   0.88426308932411     -1.13627750572954      1.22533846346353
  N   0.76223785142423     -1.51848098006648      2.33053602312480
  C   -0.33646952790120      1.46609871664345      0.33266758820861
  H   -0.43472783439401      1.22842338951219      1.39565218720003
  H   -1.20981642338921      2.05377744098855      0.04086179167580
  H   0.54818123006739      2.09042521177899      0.19438978637556
  C   -1.56324792459057     -0.62431763039689     -0.34115971202043
  H   -2.41821721540052     -0.01755147964842     -0.64780053703141
  H   -1.55931189750706     -1.53009348933701     -0.94780762587070
  H   -1.71073983472579     -0.90439591221872      0.70541758204505
