16
Coordinates from ORCA-job run
  C   1.01406792357092     -0.52996493534927     -0.23558054698711
  C   -0.38837102882710      0.08579624400766     -0.47505770201528
  Br  2.24545596146660     -0.07408713573353     -1.70682529388070
  H   -0.70444721991843     -0.28802531828014     -1.45609491654950
  C   1.59702695147773     -0.02722299994849      1.00787440009581
  N   2.02170547364893      0.39379138581175      2.02015882250087
  C   0.94336693812414     -1.99045178469031     -0.19266389596239
  N   0.85978035211731     -3.16250186973355     -0.15349841383151
  C   -0.34282076618097      1.60969340708453     -0.49721046948741
  H   0.33117934925770      1.99219722773594     -1.26394016866072
  H   -0.03017455502416      2.00533018935116      0.47295447730407
  H   -1.34368199650001      1.99349413893825     -0.70722004917886
  C   -1.35854226373708     -0.41619291877828      0.59553859438936
  H   -2.35092357481527     -0.00354324534273      0.40032184531216
  H   -1.04989923059934     -0.08488136292282      1.59102446166023
  H   -1.44372231406104     -1.50443102215018      0.60021885529101
