16
Coordinates from ORCA-job run
  C   0.97828846069128     -0.55166448768025      0.07453113949259
  C   -0.34622771821105      0.24218742279167      0.22786808766277
  Br  1.29934393538696     -1.08808093881890     -1.79664721523750
  H   -0.38627328263823      0.46569618566414      1.30338130322125
  C   2.11838091511696      0.26472349216552      0.49068224622256
  N   3.00312815128254      0.95496546748894      0.84168113689866
  C   0.94032643672645     -1.77573882416938      0.87420423075304
  N   0.86983483978487     -2.74405526460820      1.53734916806608
  C   -1.56213590190613     -0.60246679534114     -0.13640940068126
  H   -1.57355637712703     -0.83351850686687     -1.20334714195739
  H   -1.59694051486798     -1.53869319499760      0.42468391700108
  H   -2.46909525868473     -0.03962461987312      0.09570340640363
  C   -0.31346964213314      1.55922987870523     -0.53949253023124
  H   -0.29419168130202      1.38477675524594     -1.61705936111111
  H   0.54839891582246      2.17289902535626     -0.26898087962572
  H   -1.21581127794122      2.12936440493777     -0.30714810687741
