16
Coordinates from ORCA-job run
  C   0.95622798070069     -0.50067857896445      0.31750580497928
  C   -0.25716888218095      0.19249816106767     -0.35698738851560
  Br  0.66231824296989     -0.77919897655096      2.24875551612252
  H   0.05037079287744      0.27780615676577     -1.40882618195850
  C   1.19360973055066     -1.81607265855453     -0.27650480905251
  N   1.35289523309110     -2.86165470473028     -0.79009246088258
  C   2.16004458356523      0.31845220832848      0.17847327433051
  N   3.10341714080705      1.00513891122244      0.03391698692856
  C   -0.49082364366218      1.59477979786250      0.19409677938105
  H   0.40397252614108      2.21737330759379      0.12899964148450
  H   -1.27838065049982      2.07924289105572     -0.38750645390105
  H   -0.81620688186874      1.55762274055918      1.23552151834123
  C   -1.51466792700538     -0.66680634329076     -0.28827562978629
  H   -1.86709771535494     -0.76447987177955      0.74037474593507
  H   -1.35431638531441     -1.66564439028492     -0.69956652216289
  H   -2.30519414481675     -0.18837865030009     -0.87088482124330
