16
Coordinates from ORCA-job run
  C   1.00354101271290     -0.57043712390975     -0.19266477789621
  C   -0.37399972100881      0.07917432400665     -0.48478624489102
  Br  2.27697447044653     -0.20682343675114     -1.65392732333812
  H   -0.67870645597841     -0.31662801834095     -1.46080007314881
  C   1.57717424073860     -0.03580469781584      1.04161799402562
  N   1.99168482298919      0.42847591528934      2.03921496844381
  C   0.88581433347481     -2.02508306349601     -0.09863639979763
  N   0.74804482952622     -3.19109479942967     -0.03714085751162
  C   -0.27983888910033      1.59956777443757     -0.55422218505435
  H   0.02280518917772      2.01650832130464      0.41009518402957
  H   0.42336384541238      1.93616559129123     -1.31624176788156
  H   -1.26292637259619      2.00725315140643     -0.79990984192238
  C   -1.38388020955060     -0.35724052604171      0.57770720106784
  H   -1.50145218909320     -1.44145803669310      0.61784119127019
  H   -2.35865512260121      0.07624260108513      0.34343259584562
  H   -1.08994378454957      0.00018202365715      1.56842033675903
