16
Coordinates from ORCA-job run
  C   1.01446523731520     -0.55396890445467     -0.18294176091502
  C   -0.37324638021038      0.06720149853378     -0.48786678923412
  Br  2.28888972566026     -0.18396868273511     -1.64094748061837
  H   -0.66829877467590     -0.34817631804501     -1.45867137848645
  C   1.57128815398768      0.00056261593526      1.05055848978439
  N   1.97132457130160      0.47264131591113      2.05035012149579
  C   0.92119041148028     -2.00963283547255     -0.07281568012590
  N   0.80328241879078     -3.17678374718524      0.00672982201065
  C   -0.30592166359208      1.58785370084747     -0.57940214977369
  H   0.39394362740109      1.92581468491740     -1.34387682515864
  H   -0.01457694479213      2.02415215942846      0.37988655695023
  H   -1.29532710415656      1.97389947792701     -0.83471802190008
  C   -1.37783825344778     -0.37112357549796      0.57880688711982
  H   -1.09121318106273      0.00466565407155      1.56494149250895
  H   -1.47786173060738     -1.45656577984530      0.63389644195503
  H   -2.35910011339194      0.04342873566378      0.33707027438741
