15
Coordinates from ORCA-job run
  C   0.56514085928759      0.41895057114043      0.22340851297092
  C   -0.91904883247006      0.13625105004044     -0.07029579298340
  Br  0.76821989320646      1.92170818570806      1.43125438330707
  H   -1.41968207241357      1.05789756183969     -0.36250055701501
  N   1.22867331446770     -0.69691964818915      0.72307113662687
  H   2.21692741798385     -0.52973903646983      0.85783830976841
  H   1.07444816111333     -1.53161706949278      0.16914696829657
  N   1.14573006516958      0.95211960415951     -1.14241414248175
  O   2.28411995502470      0.59431994991559     -1.40571982528265
  O   0.42404892384001      1.68353816381882     -1.80687308885505
  N   -1.59921265864958     -0.36669772150473      1.18584878589284
  O   -1.50849811540213     -1.56395339785074      1.42460312816509
  O   -2.17217271115484      0.48635616757921      1.85233125327879
  C   -1.02629465068025     -0.87521771025473     -1.11501007815363
  N   -1.06139954932280     -1.68599667043978     -1.96468899353504
