15
Coordinates from ORCA-job run
  C   0.72662835628723      0.31364187201631      0.05158289553114
  C   -0.82799939212289      0.29517951669711     -0.06151301206968
  Br  1.21262963705196      1.91984885873299      1.03454238660077
  H   -1.17876712791268      1.19406487733772     -0.56833116099305
  N   1.38376323574631     -0.80270185178027      0.58189739268805
  H   1.39490067189281     -1.58507270416326     -0.06040069247317
  H   1.01116404661941     -1.06125767123111      1.48566320949449
  N   1.18103301541126      0.49830152439935     -1.41788114001171
  O   1.91758003881468     -0.36167946084409     -1.87949808227739
  O   0.72411852291094      1.47010170155542     -2.00288809194811
  N   -1.45079564260699      0.30770437374693      1.31329191320341
  O   -1.15425545430059     -0.61989112835714      2.06014904282582
  O   -2.19488670379227      1.24661298697554      1.56321916380807
  C   -1.23737207488537     -0.91514750085409     -0.76001287510040
  N   -1.50874112911382     -1.90070539423142     -1.33982094927823
