15
Coordinates from ORCA-job run
  C   0.54984804514596      0.39447738382871     -0.14887180649594
  C   -0.77359118512156     -0.21144937536970      0.35715858749349
  Br  0.21663575419532      1.71856293048400     -1.49436059908620
  H   -0.52638621287205     -1.08946285777499      0.96372132301753
  N   1.23137093363125      0.97194944820931      0.94851681396116
  H   2.01906470653142      1.53439220339012      0.65294555395055
  H   1.53032277696267      0.25611494363434      1.60241524554534
  N   1.38697161975640     -0.78986115513760     -0.75152195168979
  O   1.79859750902269     -0.74089202318054     -1.89479994406325
  O   1.60848748104146     -1.66383915897940      0.08182470340264
  N   -1.59754309523659     -0.74520990240174     -0.79990613671863
  O   -1.03752606329637     -1.60773340760956     -1.46628427191515
  O   -2.71969782026695     -0.29144787669615     -0.96792198983280
  C   -1.53372823629722      0.75616503642969      1.12989792678972
  N   -2.15382621319642      1.50723381117351      1.78618654564132
