15
Coordinates from ORCA-job run
  C   0.60622046537757      0.45907082627255      0.04565229282691
  C   -0.86526880187036      0.19208668544123      0.38024078147841
  Br  0.81371064022902      2.44643842148879      0.03369821943243
  H   -1.04523299810693      0.57473505812020      1.38813644756161
  N   1.42008406736982     -0.23951352292613      0.93433824943496
  H   1.34207884729792      0.09003478918274      1.88729721467002
  H   2.38334341071312     -0.27681186638558      0.62652585782178
  N   0.97535571047184      0.03564068290408     -1.38393994445413
  O   2.08692570597519     -0.45589935015675     -1.52476973831657
  O   0.15523853915438      0.27027204289506     -2.25358796917684
  N   -1.04687666607561     -1.31252546861858      0.48859938431762
  O   -1.37968654895886     -1.73551906051099      1.58798701731294
  O   -0.82703604447341     -1.95774893840719     -0.52626873429627
  C   -1.86526536723681      0.73917652635980     -0.52437466160282
  N   -2.75459095986687      1.16956317434077     -1.15953441701007
