15
Coordinates from ORCA-job run
  C   0.54801619534075      0.43312141687200     -0.24653596652537
  C   -0.65223604593534     -0.33246920667259      0.36917368479673
  Br  -0.09907584592462      1.80020347027087     -1.42426389084868
  H   -0.25189661124720     -1.23015845219344      0.85199848869836
  N   1.43867200545049      1.00176069269179      0.70741828697828
  H   1.03154704618566      1.80001262582772      1.17702133672173
  H   1.75585477267545      0.30625528309965      1.37350037111373
  N   1.40636623099655     -0.60885336529118     -0.99941394357065
  O   1.79077521641327     -1.51064627661806     -0.26067454717868
  O   1.67210348013999     -0.45054391915175     -2.17368331323432
  N   -1.60164502255977     -0.83529981120234     -0.69594066545234
  O   -1.07635487480556     -1.55768744274188     -1.53506668220250
  O   -2.77493645762012     -0.49718968099617     -0.63545753941798
  C   -1.34074090679971      0.50848296997562      1.33402713619112
  N   -1.84744918230986      1.17401169612971      2.15889724393055
