15
Coordinates from ORCA-job run
  C   0.58898032985860      0.28217360689197     -0.13504276264503
  C   -0.75769270622119     -0.28293359817845      0.32767554927179
  Br  0.27944900483188      1.73715871568162     -1.42567759226209
  H   -0.55803255579573     -1.22572617824497      0.84584901496958
  N   1.35993045147531      0.64411946125147      0.99127600464512
  H   2.28191212754560      0.95826198561672      0.70760946466139
  H   0.91386376969259      1.37072641229044      1.53952671485952
  N   1.41667722864777     -0.83084444226025     -0.81035281257296
  O   1.14627615984462     -1.97672538647776     -0.48188803713843
  O   2.34080918510740     -0.46335238271066     -1.51728827990759
  N   -1.68319608302766     -0.65242501683115     -0.81883506321240
  O   -1.14796138118951     -1.03893128470353     -1.84704366769319
  O   -2.88167420847532     -0.59785353598351     -0.57986882691715
  C   -1.41900278351360      0.65780134459662      1.21844819808202
  N   -1.88033853878075      1.41855029906146      1.98561209585942
