15
Coordinates from ORCA-job run
  C   0.65533439674124      0.38276063927471      0.07715565753776
  C   -0.84746774724349      0.28473709452607      0.36122908930256
  Br  1.09919193724644      2.32894331613349      0.12726804925579
  H   -1.01225226436633      0.65680831710681      1.37574157592060
  N   1.35042557567632     -0.43057085392935      0.97006372443140
  H   2.31024949504829     -0.57995952725888      0.68624720358587
  H   1.28808935165257     -0.11051716434920      1.92741664229467
  N   1.01487050549782     -0.04847482583969     -1.35254477920346
  O   0.26339779267951      0.31732208217092     -2.23873895025514
  O   2.05429777407399     -0.68231511049945     -1.47471667971563
  N   -1.21020999976012     -1.18943932420882      0.41497667454210
  O   -1.62444492655311     -1.60224357538857      1.49012451739006
  O   -1.03801850547122     -1.82543275801302     -0.61494071994355
  C   -1.74600286342958      0.97515883357961     -0.55215475502649
  N   -2.55946052179234      1.52322285669537     -1.19812725011649
