15
Coordinates from ORCA-job run
  C   0.62248312166945      0.34764104119545      0.19430480587087
  C   -0.89536734409596      0.25349331019616     -0.04255545178920
  Br  1.05858852797103      1.83673340775048      1.35821513311892
  H   -1.28445916202146      1.22718267268203     -0.33546812567007
  N   1.15520442265906     -0.83425884404880      0.69838447075205
  H   2.16252612515252     -0.79904747746312      0.78104249468846
  H   0.86088571681200     -1.65538193434463      0.18237768917777
  N   1.21798610940757      0.77515994718425     -1.20143646251431
  O   0.56752782130160      1.57191851563232     -1.86447637495759
  O   2.29575858063045      0.27613866407035     -1.48849214855810
  N   -1.58737972336756     -0.13784969595881      1.24663672571790
  O   -2.02808330729633      0.79151526777769      1.91160593666907
  O   -1.63505523587165     -1.33251072500448      1.50990158891505
  C   -1.17069893312055     -0.75167656578952     -1.06212779194318
  N   -1.34091671983022     -1.56705758387944     -1.89091248947757
