15
Coordinates from ORCA-job run
  C   0.62061816410023      0.33105425757064     -0.22167217042269
  C   -0.72659410665520     -0.21156188191905      0.32435050011189
  Br  0.28128949740787      1.63212118385224     -1.58841129744781
  H   -0.49925227592926     -1.09588548120740      0.92891042922713
  N   1.48046222952900      0.88603649725786      0.76765024047268
  H   1.63312804614890      0.23406031135048      1.52898851677602
  H   1.13992269906846      1.77528704866244      1.10931050025135
  N   1.40317985691699     -0.88311322742053     -0.77178591080184
  O   1.80775607046232     -0.88344897728892     -1.91668345584007
  O   1.58493673444489     -1.74240070140630      0.08577038317680
  N   -1.62461827655506     -0.70341924922860     -0.78899272944853
  O   -1.11757678040057     -1.56362011977895     -1.49953027722627
  O   -2.74550400930366     -0.22497086445908     -0.88558515877478
  C   -1.38699436324415      0.80685317567598      1.12339287529641
  N   -1.85175348599081      1.64300802833922      1.80528755464972
