15
Coordinates from ORCA-job run
  C   0.56655470443831      0.37340084178438     -0.13904700413302
  C   -0.79911365406185     -0.17312350048222      0.32079610346517
  Br  0.34696921087856      1.61306088358419     -1.58449446551752
  H   -0.60947268570258     -1.01409564576423      0.99662889577074
  N   1.19304779525683      1.00760902312059      0.95960649683899
  H   2.01133468059875      1.53303558961967      0.67872146576561
  H   1.43331717868769      0.33039032535265      1.67595532262088
  N   1.41149233852206     -0.86371960919699     -0.61187944679864
  O   1.89358081234616     -0.89667415819914     -1.72780805321623
  O   1.56224720042415     -1.68540116023641      0.28780988729711
  N   -1.56281492733943     -0.76452136318777     -0.84902949698910
  O   -2.66233883816500     -0.30188735547005     -1.11440510042015
  O   -0.98314770297585     -1.67847114629060     -1.42379248778409
  C   -1.58189202788468      0.85755146693951      0.98148167209351
  N   -2.22076408502311      1.66284580842643      1.54945621100675
