15
Coordinates from ORCA-job run
  C   0.63245878580476      0.33716078751473     -0.17751132324074
  C   -0.74965447131120     -0.21356694877308      0.26167363176964
  Br  0.40123956943171      1.55982555314664     -1.63623469808775
  H   -0.56410409455405     -1.05974287768669      0.93166663993468
  N   1.37776262922993      0.96333979354839      0.86112785643606
  H   0.98234586278369      1.85622155662343      1.12558990117712
  H   1.47260959514926      0.35160890116664      1.66416645769638
  N   1.49205471368958     -0.88090077374371     -0.58495171768444
  O   1.60759342732257     -1.69155994798064      0.32953660578591
  O   2.00720653215082     -0.92699553129278     -1.68366376673132
  N   -1.52230789021413     -0.78523975605636     -0.90646778522281
  O   -2.63967199333318     -0.34437940456514     -1.13465334782519
  O   -0.92862677849348     -1.66466274129996     -1.51948070524387
  C   -1.50899605992978      0.82483177765838      0.93775869354525
  N   -2.05890982772654      1.67505961174013      1.53344355769105
