15
Coordinates from ORCA-job run
  C   0.64852039735817      0.38970723599113      0.09207593921707
  C   -0.85185844825152      0.25386253463466      0.37302036629987
  Br  1.05881953532659      2.33986274048698      0.22321121644367
  H   -1.02144962517073      0.58060656748469      1.40224740846123
  N   1.35882145579966     -0.44800158599199      0.94949734607473
  H   2.32218164037466     -0.56459772267369      0.66240803580747
  H   1.28748233490717     -0.17320157473510      1.92019500917439
  N   1.01437129082979      0.02562184928599     -1.35448187740385
  O   0.25392864661347      0.41137430428839     -2.22445071678217
  O   2.06720089185399     -0.57980236269415     -1.50334438452128
  N   -1.18924537165563     -1.22735826053390      0.36611383641710
  O   -1.00856597886462     -1.81732987990654     -0.68938075058611
  O   -1.59431539159262     -1.69114984351225      1.42389319745173
  C   -1.76349193949533      0.96633332065092     -0.50989947435943
  N   -2.58339943803302      1.53307267722486     -1.13110515169444
