15
Coordinates from ORCA-job run
  C   -0.66356931335612     -0.09842363479738      0.37420957491475
  C   0.82172615304241      0.32943177463972      0.26399077700797
  Br  -1.20032332779619      0.08543005433693      2.24836253396557
  H   0.88658323261825      1.33742086621408      0.68690256177945
  C   -0.77198700693852     -1.50895541100557      0.01156754671083
  N   -0.81781108093426     -2.63583152471657     -0.32093322161650
  C   -1.58317493266941      0.76358658132354     -0.48496831787089
  H   -1.33938001722963      0.63797603375252     -1.54217148759224
  H   -2.62215998989610      0.47551059901270     -0.32492689585743
  H   -1.46535787460772      1.81365519869253     -0.20844425921399
  C   1.18537676937481      0.41521701758598     -1.16690422988252
  N   1.50013938631866      0.49354886535416     -2.29672675996556
  N   1.67684916492402     -0.54869295991539      1.03367664401106
  H   2.58612781197186     -0.12606303685691      1.17107634837671
  H   1.80596102517795     -1.43381042362033      0.55628918523278
