15
Coordinates from ORCA-job run
  C   -0.63134447628304      0.02668343421111      0.35193985273351
  C   0.84977170863747     -0.14956601801088     -0.06208260853877
  Br  -0.87091757005109      1.83561225392807      1.08470170303099
  H   0.92379803250331     -1.17302260038965     -0.45086511974126
  C   -0.94621991919155     -0.92168343225992      1.41598703214947
  N   -1.20178149937198     -1.72860535203198      2.23217193411285
  C   -1.56611746536124     -0.16052869009208     -0.83659936183876
  H   -1.31126437440827      0.55665838401591     -1.61428060082187
  H   -1.44595057500129     -1.17444057797191     -1.23000719339984
  H   -2.60213249283932     -0.02430458119935     -0.52580388233993
  C   1.73819082167599     -0.05950755136536      1.11325651553943
  N   2.49834883954305      0.04167722268906      2.00374856783458
  N   1.18966382186129      0.75965298788168     -1.13938166144971
  H   1.31285784787041      1.69761551057396     -0.77542864711842
  H   2.06109730041626      0.47275901002131     -1.56835653015225
