15
Coordinates from ORCA-job run
  C   -0.68325965981507      0.02362781197847      0.49440454179605
  C   0.86680408170095      0.05795949043275      0.46090505624181
  Br  -1.29180871854789      1.35107960497936      1.80573246570704
  H   1.21748466838018     -0.15511740241479      1.47524082117746
  C   -1.09765070671874     -1.29090144602541      0.97627036315857
  N   -1.44670240904049     -2.34652069053765      1.35720899507348
  C   -1.30249250986337      0.32798650659184     -0.86283621040008
  H   -0.98287381067371     -0.43119681959421     -1.58048730011808
  H   -2.39018093190886      0.30315114734597     -0.79426814793128
  H   -0.99378615349226      1.31862644707616     -1.20241764029251
  C   1.33821713317829      1.40261572126431      0.08511846943923
  N   1.74806983570967      2.43552292972806     -0.29689625497511
  N   1.33707759844262     -0.98691192505006     -0.43279628676024
  H   1.46650468436261     -0.63880913293274     -1.37410668057813
  H   2.21559689828607     -1.37011224284206     -0.11007219153822
