15
Coordinates from ORCA-job run
  C   -0.66753407122183     -0.09632521319551      0.36944171579055
  C   0.81630411332321      0.33868757561965      0.26920882641031
  Br  -1.22126548745186      0.09904269879941      2.23787373632127
  H   0.87192270155974      1.34793860606831      0.69015115831850
  C   -0.76616317294276     -1.51023071754274      0.01727071018072
  N   -0.80534148298760     -2.64055944543301     -0.30404981545005
  C   -1.58362980317207      0.75456857546778     -0.50424491403803
  H   -1.47124881664144      1.80770142361035     -0.23668818656598
  H   -2.62290618037290      0.46434745497053     -0.34909324985667
  H   -1.33162827539644      0.61982273055458     -1.55863364068973
  C   1.19241866579526      0.41862076074558     -1.15879872778066
  N   1.53570858967553      0.45164488262787     -2.28267262135705
  N   1.67021916145941     -0.53253702448908      1.04754722381746
  H   1.80800269812984     -1.41798488081944      0.57314980062068
  H   2.57614136024392     -0.10473742698430      1.19053798427867
