13

C	-0.545969	0.085555	-1.423441
C	0.0	0.0	0.0
Br	0.072559	1.748916	-2.230869
H	1.091578	0.0	0.0
H	-1.634445	0.131573	-1.412149
C	-0.121993	-1.045651	-2.237374
N	0.196793	-1.95442	-2.911249
N	-0.4605	-1.293731	0.633346
O	0.214124	-1.732753	1.55066
O	-1.502169	-1.782778	0.195937
C	-0.517661	1.080104	0.829415
N	-0.973377	1.945045	1.481609
Br	3.301894	0.0	0.0
