13

C	-0.450934	0.01209	-1.466465
C	0.0	0.0	0.0
Br	0.097345	-1.626795	-2.358888
H	1.091524	0.0	0.0
H	0.110664	0.813216	-1.950711
C	-1.879195	0.220558	-1.672275
N	-3.018105	0.420481	-1.876787
N	-0.536754	-1.221063	0.699594
O	0.272845	-2.047018	1.097521
O	-1.762131	-1.294068	0.791808
C	-0.512385	1.178834	0.685994
N	-0.905581	2.154589	1.210154
Br	3.340078	0.0	0.0
