13

C	-0.539094	0.032929	-1.432357
C	0.0	0.0	0.0
Br	0.081764	1.654981	-2.319263
H	1.091552	0.0	0.0
H	-1.627482	0.083754	-1.425724
C	-0.124905	-1.136069	-2.196159
N	0.184015	-2.067362	-2.840603
N	-0.482768	-1.272758	0.665015
O	-1.538146	-1.751276	0.248691
O	0.196404	-1.705548	1.581712
C	-0.526731	1.104861	0.787103
N	-0.982084	1.97802	1.4278
Br	3.324652	0.0	0.0
