13

C	-0.39506	-0.029499	-1.469163
C	0.0	0.0	0.0
Br	-2.325539	-0.287487	-1.709452
H	1.09659	0.0	0.0
H	0.088222	-0.891986	-1.928966
C	-0.006296	1.198873	-2.145247
N	0.263406	2.188349	-2.718599
N	-0.373125	-1.299534	0.65255
O	-0.738729	-1.268217	1.822442
O	-0.216641	-2.306718	-0.029933
C	-0.553571	1.124955	0.728374
N	-0.979247	2.065714	1.28875
Br	3.248386	0.0	0.0
