13

C	-0.511212	-0.008294	-1.435078
C	0.0	0.0	0.0
Br	-0.316107	1.763942	-2.235244
H	1.095668	0.0	0.0
H	-1.574745	-0.245316	-1.48256
C	0.247867	-0.968188	-2.233238
N	0.913732	-1.710715	-2.855811
N	-0.317356	-1.311075	0.647927
O	-1.08828	-2.082839	0.05714
O	-0.060611	-1.383771	1.862084
C	-0.474914	1.096341	0.812555
N	-0.796669	2.011825	1.479221
Br	2.896525	0.0	0.0
