18

C	0.0	0.0	0.0
C	-0.260067	0.106586	-1.541997
Cl	1.796536	0.0	0.0
H	0.289005	-0.736996	-1.964898
C	-0.449221	1.144665	0.792807
N	-0.682772	2.023504	1.536813
C	-0.600494	-1.280023	0.53716
H	-0.286	-1.433416	1.57219
H	-0.274019	-2.128814	-0.07093
H	-1.697959	-1.085946	0.464352
N	0.469347	1.29634	-2.109368
O	0.229417	2.399485	-1.628248
O	1.209522	1.092239	-3.072627
C	-1.652714	0.169381	-2.133137
H	-1.524183	0.289594	-3.21652
H	-2.238915	0.962167	-1.682492
H	-2.208526	-0.731357	-1.899686
F	-2.970514	0.0	0.0
