18

C	0.0	0.0	0.0
C	-0.594216	-0.100129	-1.416153
Cl	1.793824	0.0	0.0
H	-1.675787	-0.290415	-1.160913
C	-0.40621	1.291157	0.569841
N	-0.598919	2.349137	1.043382
C	-0.465561	-1.11289	0.938432
H	-0.0849	-0.912601	1.942915
H	-0.089092	-2.074148	0.592952
H	-1.560265	-1.057062	0.896561
N	-0.004895	-1.277727	-2.116375
O	0.765667	-1.081008	-3.060507
O	-0.33069	-2.399563	-1.722181
C	-0.429249	1.153294	-2.245208
H	-1.059059	1.927848	-1.805648
H	0.60783	1.494412	-2.286515
H	-0.770781	0.971925	-3.265556
F	-2.806896	0.0	0.0
