18

C	0.0	0.0	0.0
C	-0.451782	-0.345162	-1.455473
Cl	1.802321	0.0	0.0
H	0.442323	-0.267009	-2.08436
C	-0.409186	1.315944	0.501784
N	-0.5564	2.336594	1.067632
C	-0.39725	-1.032018	1.064279
H	0.027698	-0.715158	2.018785
H	0.007601	-2.013608	0.812876
H	-1.489775	-1.002718	1.077669
N	-1.322486	0.717666	-2.077861
O	-2.24734	0.373903	-2.799619
O	-0.926366	1.872953	-1.948461
C	-1.079441	-1.71049	-1.620859
H	-1.995786	-1.697325	-1.031877
H	-1.307707	-1.877579	-2.67429
H	-0.383944	-2.487294	-1.292704
F	-2.567629	0.0	0.0
