18

C	0.0	0.0	0.0
C	-0.445963	-0.360336	-1.450315
Cl	1.806448	0.0	0.0
H	0.430688	-0.218433	-2.09324
C	-0.403959	1.324435	0.481655
N	-0.524843	2.349616	1.044776
C	-0.388752	-1.012347	1.087047
H	-1.480271	-0.991514	1.107774
H	0.020704	-1.996891	0.857869
H	0.039635	-0.672796	2.032554
N	-1.403374	0.633716	-2.064372
O	-2.283344	0.211292	-2.80218
O	-1.10558	1.817475	-1.938113
C	-0.985281	-1.764581	-1.596918
H	-1.903324	-1.794786	-1.013732
H	-1.199302	-1.9706	-2.64518
H	-0.251527	-2.492079	-1.244613
F	-2.542767	0.0	0.0
