18

C	0.0	0.0	0.0
C	-0.258702	0.029208	-1.548432
Cl	1.797602	0.0	0.0
H	0.279854	-0.843239	-1.923236
C	-0.45184	1.183939	0.729715
N	-0.7135	2.103668	1.412199
C	-0.597109	-1.253248	0.601329
H	-0.26494	-2.129924	0.037621
H	-0.279733	-1.351902	1.641872
H	-1.695736	-1.06419	0.520893
N	0.485937	1.177471	-2.177872
O	0.251845	2.307616	-1.762127
O	1.228862	0.913399	-3.124666
C	-1.648972	0.081388	-2.143817
H	-2.242805	-0.765416	-1.817872
H	-1.523384	0.103136	-3.234373
H	-2.200751	0.93917	-1.776688
F	-2.966927	0.0	0.0
