14
Coordinates from ORCA-job run
  C   0.77592240818890     -0.03458006945389     -0.00447699306009
  C   -0.61174168987461     -0.03118011830297      0.03912673047286
  N   1.56524138529563      1.02139560405318      0.26813866041350
  H   1.12076963868377      1.90087422315358      0.47657660151322
  H   2.56191614459913      0.91675258095318      0.30985103622538
  N   1.40725772014769     -1.22611002972470     -0.27475475328030
  H   0.75199341869849     -1.91561934626601     -0.61784622840913
  H   2.26072378540087     -1.15371647968601     -0.80666485252610
  N   -1.35912841073046      1.12231255724666      0.38944487947627
  O   -0.77015580250488      2.18972141507112      0.65788848375372
  O   -2.59316665126432      1.01504260171852      0.40113261314018
  N   -1.30290481018095     -1.21529317603490     -0.30616905098724
  H   -1.81727711780426     -1.57299917141569      0.49164868716771
  H   -1.99145001865499     -1.01760059131208     -1.02389581389998
