14
Coordinates from ORCA-job run
  C   0.67359297578304     -0.04679599504560      0.06318071233256
  C   -0.69783805488666      0.00822350893311      0.10213569494347
  N   1.54247564197959      0.89352990536358      0.56230734083058
  H   2.37205281404130      1.04046646715774      0.00709941395232
  H   1.07342595398218      1.74363620691288      0.84501654673478
  N   1.26602363464485     -1.23560454785829     -0.35390259679758
  H   0.84767159853541     -1.65003550669063     -1.17189179149480
  H   2.27303673992317     -1.22368937138185     -0.37734435962133
  N   -1.39754705602530      1.23753748047312      0.34368666147133
  O   -2.59014823630148      1.26653063864725      0.03541810430157
  O   -0.78367318802583      2.22052388705354      0.79871287930213
  N   -1.52255594556402     -1.11067351873713     -0.07511340930916
  H   -1.06328465803100     -1.96915773600917      0.18674715253071
  H   -1.99323222005526     -1.17449141881854     -0.96605234917658
