14
Coordinates from ORCA-job run
  C   0.78521713779860      0.02227178701642     -0.05599231664504
  C   -0.57785711728692     -0.05123772447708     -0.23676010061208
  N   1.52912636675348      1.13753716871560      0.20872689198580
  H   1.06090660212715      2.02981327208262      0.22966059066132
  H   2.42930005356489      1.13826169295846     -0.24749269044149
  N   1.57838907424684     -1.12595607875657     -0.21251643479091
  H   1.99415203839173     -1.39867876560111      0.67127827679879
  H   0.96296309769541     -1.88117367872721     -0.50309423152435
  N   -1.39847686060047      1.11768997801375      0.09038182099653
  O   -0.98298347386943      1.97530907551617      0.88188593201810
  O   -2.51583254310068      1.16602715881766     -0.44110754437103
  N   -1.23820864346254     -1.30193852141120     -0.16695676882074
  H   -1.89027093327234     -1.43138878710500     -0.92940500307321
  H   -1.73742479898572     -1.39653657704249      0.71039157781833
