14
Coordinates from ORCA-job run
  C   0.76058648649452     -0.06379537362842      0.00316386305280
  C   -0.61151157791958     -0.00000608734016     -0.05709108139207
  N   1.47519829450357      0.08166765367226     -1.14907000495986
  H   2.39075160340074     -0.33174628946851     -1.18058723473372
  H   0.93817565792809      0.15904590959193     -1.99580369822870
  N   1.56958440287257     -0.28383991857728      1.11281798753229
  H   2.31936611240805      0.39644168751386      1.10522496535643
  H   1.02935167369720     -0.23541308417345      1.96755166660720
  N   -1.42889777354015      0.01762937141748      1.13792645522267
  O   -0.93141929854277     -0.19383103613930      2.25428297128063
  O   -2.64889064387819      0.12119967698276      0.95727964179002
  N   -1.24419125930958      0.11083286403322     -1.30061947279790
  H   -1.83099717884066      0.93355036586538     -1.33146243454856
  H   -1.78710649927380     -0.71273573974977     -1.52461362418124
