14
Coordinates from ORCA-job run
  C   0.77567317771105      0.06584225203468     -0.20227193229765
  C   -0.62734705230635      0.03688771665011     -0.23336510828274
  N   1.49850220795059      1.19226665923480     -0.12599790216026
  H   0.97937419872590      1.96642230176897      0.27055848562182
  H   2.49157029520107      1.14878233932341      0.02533082739825
  N   1.48612777450816     -1.09971973842871     -0.36471223344258
  H   0.83631933586429     -1.87935095635700     -0.39080642378841
  H   2.15370381288949     -1.25420865244060      0.38025502120535
  N   -1.39684735685006      1.02057093087754      0.46268347555942
  O   -2.57569674474994      0.75777360054444      0.69114000407709
  O   -0.87037981000000      2.08663196386499      0.81489846855653
  N   -1.21054314912418     -1.24334149805042     -0.42534206621525
  H   -1.78152598810835     -1.50292784820182      0.36758973755095
  H   -1.75793070171167     -1.29462907082039     -1.26996035378251
