14
Coordinates from ORCA-job run
  C   0.77426996464050     -0.04898656627565      0.08798783310509
  C   -0.60069183969331     -0.01446518981204     -0.05472830585342
  N   1.45068469806104     -1.15123797470422     -0.38366937515779
  H   0.80982072773002     -1.89612806812243     -0.62240157480482
  H   2.22414959172252     -1.44004947498458      0.19652868101955
  N   1.54750488020749      0.91397078386882      0.66250704731936
  H   1.06223547968329      1.78315216763084      0.83519454723376
  H   2.48766775912333      0.97632488444793      0.30463898601812
  N   -1.37329666840317      1.14969499012962      0.23606876425718
  O   -2.58679380308528      1.08920259078292      0.00312260849416
  O   -0.82488126732396      2.15962001528140      0.71623717838402
  N   -1.26181956779590     -1.15106877533280     -0.57361556615234
  H   -2.00668543924716     -1.43664825479138      0.05228311453277
  H   -1.70216451561939     -0.93338112811844     -1.46115393839564
