14
Coordinates from ORCA-job run
  C   0.77187824441493      0.01251312490516     -0.09268426533886
  C   -0.61344184905190     -0.03336063628404     -0.02674527020062
  N   1.52186262502445      1.12690644453390      0.05199948860970
  H   1.05360403178148      1.93733120203873      0.42656338748227
  H   2.51991339295600      1.04267930235000      0.12321934935492
  N   1.43079111135479     -1.13823052106012     -0.45284850901952
  H   0.82289109730640     -1.94418226703986     -0.39937426378623
  H   2.34811564198140     -1.26741413175762     -0.05580593897468
  N   -1.39853682653204      1.10414029337140      0.29342014560488
  O   -2.62553621665379      0.94563783578491      0.35266235826576
  O   -0.84541988680823      2.19916454666981      0.52277039575268
  N   -1.26033047926081     -1.27433400643173     -0.22831069411538
  H   -1.83678956590532     -1.24449010989462     -1.06249494630559
  H   -1.88700132060734     -1.46536107718592      0.54562876267065
