14
Coordinates from ORCA-job run
  C   0.63746514960678     -0.03423018874508      0.06993389014074
  C   -0.70196615742422     -0.00279002669282     -0.05012282623269
  N   1.37418037643463     -1.18451183201697     -0.28101640573790
  H   0.87059399390749     -2.03384072736420     -0.05509387082350
  H   2.28160626159721     -1.20248742400692      0.16432286547982
  N   1.32414872509476      1.15966177307584      0.38038605868845
  H   1.48596667435453      1.72356093878981     -0.44380768196731
  H   2.19696834576078      0.99317764381260      0.86179548590082
  N   -1.38958637945371      1.23918394471745      0.31913674148125
  O   -2.06590321133906      1.19375357453686      1.34680757187727
  O   -1.32389726429677      2.19358217017292     -0.45221106944789
  N   -1.54796681840959     -0.97837246742230     -0.57872455459304
  H   -1.15926394490456     -1.46713728275885     -1.37031710536786
  H   -1.98134575092827     -1.59955009609833      0.08891090060184
