14
Coordinates from ORCA-job run
  C   0.65334959187255     -0.03475238663280      0.10391590944618
  C   -0.71141888242289      0.02198325004271      0.00194983654693
  N   1.47194436371499      0.93616718037814      0.62130486983108
  H   2.37725833773163      0.64033868664097      0.94587155702606
  H   0.99512722455796      1.61735547071267      1.19238609781645
  N   1.28393452799208     -1.20292522502808     -0.33788063990111
  H   0.95430125214686     -1.52540806441170     -1.23533753193755
  H   2.29054038028861     -1.17794080403904     -0.30101296657763
  N   -1.43415705897121      1.21901454789151      0.30181353662247
  O   -2.56954051305696      1.32541323890280     -0.15875017473196
  O   -0.82557822495432      2.15193817430960      0.85703815432332
  N   -1.51899529962099     -1.05873029327866     -0.40015849143259
  H   -1.90680218126394     -0.96778473447280     -1.32920056088988
  H   -1.05996351801435     -1.94566904101533     -0.26093959614176
