14
Coordinates from ORCA-job run
  C   0.75277410350382      0.13979446464583      0.14737220766450
  C   -0.59482066770921     -0.03356058419195     -0.14100066963772
  N   1.56981106936119      0.62530486209878     -0.84182760674601
  H   1.05258733421036      0.64862755809809     -1.71172112925761
  H   2.50827172828768      0.26631570516122     -0.88228478403221
  N   1.33795250278801     -0.12942919133458      1.33088607802686
  H   2.21858055787990      0.28759567070428      1.57210874608231
  H   0.74246157455157     -0.40815941107025      2.09245023327915
  N   -1.52494130741365     -0.50628157046729      0.81632204329319
  O   -1.16408139371376     -0.73797886803603      1.98571472528427
  O   -2.69004013988468     -0.66308036713031      0.42406289314283
  N   -1.03064606671542      0.18618372699578     -1.46212291740580
  H   -1.50001676497990     -0.63612255690952     -1.81806213453171
  H   -1.67889253016590      0.96079056143596     -1.51189768516204
