14
Coordinates from ORCA-job run
  C   0.77433367801082      0.08651878984646     -0.01672376840668
  C   -0.60374498841433     -0.02950782958472     -0.02168266329766
  N   1.42408149142260      0.25696051333535     -1.21971908603774
  H   2.18994835725884      0.91347407498991     -1.18605347871283
  H   0.75298675503380      0.44381823931292     -1.95401411561722
  N   1.56852939960752      0.03724152910817      1.08038956914052
  H   2.52292869101156     -0.24646732809275      0.93829569220288
  H   1.11708901238805     -0.24359764081249      1.93685003346374
  N   -1.35024917877484     -0.39086112250695      1.13753451240119
  O   -2.56397296254283     -0.57596469350692      0.98789366706752
  O   -0.76794020176236     -0.55097190189010      2.22702442611879
  N   -1.29343832230258      0.14648556644497     -1.24004997221965
  H   -2.00726776675160      0.86034975614900     -1.15516106181888
  H   -1.76528396418464     -0.70747795279284     -1.51458375428398
