14
Coordinates from ORCA-job run
  C   0.70109992183711     -0.03357370004071      0.23009165070113
  C   -0.63492241337915     -0.00572273538226     -0.02043589828121
  N   1.38789812354487     -1.23754387385266      0.18203256587418
  H   0.81503061307777     -2.04802036206921      0.00000698484027
  H   2.26162573570235     -1.21249629755702     -0.32045688946338
  N   1.44526756216401      1.12267177784657      0.50327327398001
  H   1.71241411406326      1.64034937406175     -0.32107850849287
  H   2.24588295966235      0.93350736615974      1.08919723936020
  N   -1.47362103212287      1.14311773064769      0.28495338270135
  O   -2.45590359497141      1.29035783422406     -0.46128595276716
  O   -1.25113494403412      1.82089045165032      1.28391195846275
  N   -1.28091882743820     -1.14772941800324     -0.55368921766124
  H   -2.26739563547878     -1.12076052723093     -0.32936133356384
  H   -1.20632258262720     -1.14604762045409     -1.56615925569021
