14
Coordinates from ORCA-job run
  C   0.75290087831949     -0.10682896297792      0.17764034949338
  C   -0.58190720662649      0.03834911848482     -0.14592303260692
  N   1.53766789692222      0.81587259624935      0.80856076852500
  H   1.11418766040568      1.73161419511511      0.86739260570891
  H   2.50729864666116      0.79692168877872      0.53091329498932
  N   1.38469315643593     -1.28574371634677     -0.15088068168273
  H   2.04937576545274     -1.60045502379683      0.54079667522048
  H   0.71748106155391     -1.99010455701834     -0.43729089099158
  N   -1.28767303479960      1.27072481395667      0.01387366811217
  O   -0.71813514140530      2.25763749495931      0.51321210743128
  O   -2.47695690916188      1.27976834873946     -0.32507201743455
  N   -1.28120508606112     -1.07110231289146     -0.67394475532989
  H   -1.61727709938632     -0.86639482848983     -1.60805518846106
  H   -2.10045058831041     -1.26925885476229     -0.11022290297380
