14
Coordinates from ORCA-job run
  C   0.77646587793363     -0.05002672209927      0.05012560548818
  C   -0.61019439132159     -0.05491195958356      0.05831091352844
  N   1.55879090805669      0.91788547614195      0.59114750113607
  H   2.52095277859913      0.95974938284133      0.30075334042108
  H   1.08215308464676      1.78477633672662      0.79334113228744
  N   1.40994361801926     -1.17529555996226     -0.41325400239241
  H   2.32647161866673     -1.04804225193531     -0.81175013320784
  H   0.78278491968122     -1.76899853893463     -0.93852352712457
  N   -1.37563761621761      1.05529319386308      0.50197943047837
  O   -0.80381650549450      2.05620445837324      0.98011253641027
  O   -2.60639319570678      0.97386691954511      0.39203870730059
  N   -1.28569704350290     -1.16096842716213     -0.50895555415945
  H   -1.81805535701193     -1.65612350359139      0.19855408045484
  H   -1.95676869634811     -0.83340880422277     -1.19488003062102
