14
Coordinates from ORCA-job run
  C   0.77386862154380     -0.03669487419732      0.08223405587986
  C   -0.59203684500897     -0.00076078125263     -0.12501439369581
  N   1.42985987713435     -1.23541126303680     -0.07263631901603
  H   0.83176024146931     -1.93084136487955     -0.49779365378090
  H   2.34520318522297     -1.15887769377268     -0.48980715138966
  N   1.56192682515231      1.01989369377672      0.42461366967428
  H   2.37103320784501      0.78785716042807      0.97837602676590
  H   1.04710058611099      1.84396966455000      0.70047339250957
  N   -1.38651739503294      1.13782694106342      0.20776471329468
  O   -0.83953499534446      2.19306934133747      0.57916781663433
  O   -2.61274267562736      1.01775872411500      0.09605183373512
  N   -1.24371924528613     -1.16855622186385     -0.58320902333070
  H   -1.78701672198121     -0.96383061951263     -1.41440328801270
  H   -1.90018466619766     -1.50440270675523      0.11318232073204
