14
Coordinates from ORCA-job run
  C   0.77119227947468     -0.05528052258759      0.09691602981594
  C   -0.60276415665362     -0.01808795547682     -0.04776016680427
  N   1.45259217442347     -1.14599665914430     -0.38959368215909
  H   0.81956431742436     -1.88857482701677     -0.65399372133009
  H   2.23100485019046     -1.44027534036751      0.18052900098746
  N   1.54136839169568      0.89496663631038      0.69631957415533
  H   2.47602934833245      0.97943395465980      0.32942169938593
  H   1.05255628955562      1.75805769365234      0.88740591066764
  N   -1.37067662317729      1.15097782934287      0.23824864288941
  O   -2.57568561152075      1.11151932501712     -0.03934907932164
  O   -0.82605960622316      2.14470654903465      0.75449431738632
  N   -1.26157821473916     -1.14177779850270     -0.59647029539034
  H   -1.70326722461738     -0.89971653529179     -1.47679301078637
  H   -2.00427621416537     -1.44895234962968      0.02162478050378
