14
Coordinates from ORCA-job run
  C   0.77914546736649     -0.00443735465039     -0.01203209608502
  C   -0.60070942096033     -0.05235501419128      0.04589718280061
  N   1.45894281544210     -1.13108334457340     -0.41184241060053
  H   2.32621907582491     -1.29020021101937      0.07822677619562
  H   0.84675859592587     -1.93451630328549     -0.45515609264119
  N   1.55943596911612      1.06661455035625      0.30364265260813
  H   1.04446594126753      1.92712687284967      0.42470356433146
  H   2.42478944191274      1.12916576166600     -0.20875585355560
  N   -1.39892605324519      1.11357695371235      0.25148545674201
  O   -0.85608676610796      2.20325935797637      0.51301774714343
  O   -2.62540667175285      0.97480545698443      0.16746051673405
  N   -1.25219131677827     -1.28055706342388     -0.20893613584543
  H   -1.87859826124969     -1.51079317117369      0.55431594819604
  H   -1.82783881676147     -1.21060649122759     -1.04102725602359
