14
Coordinates from ORCA-job run
  C   0.76185714182301     -0.05787031956432      0.14704625259645
  C   -0.61414739440387     -0.02971977881330     -0.03536265173304
  N   1.41114387111068     -1.23855313103864     -0.10897820333336
  H   0.83311838021813     -1.88010673043425     -0.63373973073987
  H   2.37122540704779     -1.17160583003839     -0.40624391131374
  N   1.49605889769937      0.94632413770400      0.67657768049759
  H   2.49749436771193      0.90910607116743      0.60713064134102
  H   1.03421213541425      1.84037909287426      0.74721408856335
  N   -1.39297574806966      1.12778562590061      0.21778269596459
  O   -0.84967396013964      2.16311377346934      0.65533077922672
  O   -2.60572509913532      1.05782458213912     -0.02517384362066
  N   -1.24729846417197     -1.17464724977753     -0.57220373529133
  H   -1.88443148771438     -1.58037883930751      0.10511295048655
  H   -1.81185804739032     -0.91165140428082     -1.37249301264427
