14
Coordinates from ORCA-job run
  C   0.69367128861717     -0.00748947335318     -0.01283522859974
  C   -0.67122534410398      0.00285164053387     -0.05209647425143
  N   1.47723009149292      1.05317003005006      0.42118309745020
  H   2.46040874139171      0.89007812126313      0.26663235627552
  H   1.27544532681008      1.35430740568615      1.36189151465937
  N   1.35417724533839     -1.17539437281194     -0.39139580423429
  H   0.80701624301638     -1.71168664413680     -1.05086221397105
  H   2.30538172409068     -1.03738112298115     -0.70398730462616
  N   -1.35794950039009      1.21399123838569      0.44039423181828
  O   -0.92333250829585      1.80824924529539      1.43192308181303
  O   -2.37218027966568      1.55276915569782     -0.17043212361421
  N   -1.43894738826521     -1.06272825989117     -0.43899613193199
  H   -1.74348487758146     -1.73612398827513      0.23954229788780
  H   -1.86621076245507     -1.14361297546272     -1.33996129867532
