14
Coordinates from ORCA-job run
  C   0.76564473485244     -0.08149131072259      0.13971750357849
  C   -0.60812733351095     -0.01127338813470     -0.06274640314319
  N   1.41558949767975     -1.22708454855709     -0.25506868134934
  H   0.81587001774392     -1.78497721691641     -0.85015118714764
  H   2.34997466596026     -1.09837548194667     -0.61228492720815
  N   1.50276960052062      0.86345797108099      0.75165020023687
  H   2.47436587781185      0.71966717434850      0.95602412078251
  H   1.02083807654544      1.69472202268512      1.05848414516444
  N   -1.39067714083878      1.08572401225774      0.36881028673051
  O   -0.83963970659653      2.05831373296488      0.92852325595683
  O   -2.60031869121056      1.06165469918747      0.10391608668769
  N   -1.23591788433703     -1.06007448688480     -0.77716539860190
  H   -1.91184279750609     -1.53546921875161     -0.18850284644096
  H   -1.75952891711433     -0.68379396061083     -1.56020615524616
