14
Coordinates from ORCA-job run
  C   0.74351526239253     -0.05599369166883      0.14781734653475
  C   -0.61422705013379     -0.07616905043861      0.01133676962905
  N   1.47842003311171     -1.21694678711426     -0.05218638427135
  H   0.87145636795798     -1.96699220500674     -0.35726620187396
  H   2.26056662819719     -1.08295601651953     -0.67799443267852
  N   1.48217844130259      1.02269639024889      0.54401833704681
  H   2.44228515232865      0.87416542399868      0.79313947662304
  H   1.18411092179699      1.95893093323693      0.34567918700240
  N   -1.40064997982693      1.11674836843099      0.27983720295905
  O   -2.36365523700419      1.31164362147131     -0.47208100657835
  O   -1.09282131060712      1.85443910086199      1.21978950960404
  N   -1.27550929416593     -1.20216260314440     -0.52389102379666
  H   -1.95784346031523     -1.56950944525065      0.12802088902038
  H   -1.75582647503445     -0.96889403910578     -1.38521966922068
