14
Coordinates from ORCA-job run
  C   0.76900265899475     -0.11687125376304     -0.01142749195107
  C   -0.61048372601481      0.00690865242878      0.02059441730921
  N   1.38523844935195     -0.76165754348517      1.03566275294912
  H   0.75407449771368     -0.86884566433337      1.81884692585871
  H   2.29375315254731     -0.39544220340905      1.27674383796093
  N   1.58231877122909      0.31882909414132     -1.00272675926212
  H   1.11311480954371      0.64911301795663     -1.83185153438907
  H   2.46833203877603     -0.14504490258984     -1.10375708035098
  N   -1.34263640242818      0.63878724560616     -1.02407423707147
  O   -0.75849790506409      1.00150421658400     -2.06384488175805
  O   -2.55522621554783      0.80641497562273     -0.84120447680995
  N   -1.29771616034992     -0.37291449722655      1.19682921816292
  H   -1.88190574966626      0.39205498844276      1.51621369024795
  H   -1.92036821908543     -1.15183612597536      1.01199561910388
