14
Coordinates from ORCA-job run
  C   0.77921963795408     -0.00202469943980     -0.01181398684567
  C   -0.60053608254060     -0.05441909197582      0.04984355451513
  N   1.46167824768001     -1.13072889622749     -0.40013273276516
  H   2.33225111674831     -1.28101013512654      0.08673981215702
  H   0.85269772846775     -1.93699954569731     -0.43339535311544
  N   1.55563654023308      1.07578817862254      0.28855036523164
  H   1.03789305513103      1.93579507032833      0.40117371979453
  H   2.42089350774149      1.13531678806158     -0.22426115988642
  N   -1.40233633309934      1.11125634187706      0.24024916827362
  O   -0.86311908671143      2.20555504887869      0.49026541410296
  O   -2.62838929575594      0.96802783573329      0.15661274493670
  N   -1.24787277142636     -1.28733299689599     -0.19218801138816
  H   -1.87340959200404     -1.51194853506247      0.57342030655157
  H   -1.82360667241805     -1.22827536307605     -1.02506384156233
