14
Coordinates from ORCA-job run
  C   0.77803837641343     -0.00946829921300      0.04247878101276
  C   -0.60310279527576     -0.04644450363556      0.00667010722840
  N   1.47290187476722     -1.15879837501602     -0.25321418695911
  H   0.85746637294014     -1.95961779506702     -0.29908394460805
  H   2.30287687903970     -1.29909023720462      0.30280155576230
  N   1.54415798063800      1.07167065005150      0.35620929160572
  H   2.44512770549304      1.10243631720472     -0.09374473664949
  H   1.03126249684529      1.94071588284411      0.39996438545791
  N   -1.40246939437738      1.13290542840157      0.09741376029397
  O   -0.86912417663574      2.23109561818815      0.34282005344214
  O   -2.62131317615395      0.99774637900231     -0.06643514140659
  N   -1.24648637479963     -1.28223099890941     -0.23097707078242
  H   -1.76362331840047     -1.25099209449117     -1.10290414308793
  H   -1.92571245049388     -1.46992797215557      0.49800128869040
