14
Coordinates from ORCA-job run
  C   0.77918318613563     -0.00579171187123      0.00697103124660
  C   -0.60013412703693      0.06185054432308     -0.04630715301492
  N   1.48090216857494     -0.03225152458048     -1.17502919417589
  H   2.34837918415447      0.48219305136355     -1.15827494577447
  H   0.88380008545295      0.17369047818622     -1.96431990056576
  N   1.53861893925723     -0.03860329559588      1.13734835115853
  H   2.40576684431977     -0.54486274542951      1.05357753966484
  H   1.00746754676055     -0.19142259444555      1.98286728422028
  N   -1.41975224252070     -0.11291556872967      1.10987483241678
  O   -2.64266281828599     -0.15706634026154      0.92823971742927
  O   -0.89799351656347     -0.20079568816385      2.23705135183595
  N   -1.22851674680723      0.19577261757181     -1.30539259620233
  H   -1.85915780330615      0.98959554606027     -1.29985696035978
  H   -1.79590070013508     -0.62039276842722     -1.50674935787911
