14
Coordinates from ORCA-job run
  C   0.72048807416994     -0.03627015210022      0.10804064817224
  C   -0.61878569405474     -0.03844046880496     -0.11539260916539
  N   1.45978499234876     -1.20181101733507     -0.01215029907587
  H   0.89736727959276     -1.96598680813322     -0.36233339720032
  H   2.32590722750778     -1.08557186251515     -0.51770025667948
  N   1.40106670531414      1.08142980067026      0.59334458694203
  H   1.43798866580754      1.87548667627469     -0.02473698171922
  H   2.29886348510446      0.83264152783138      0.98131413046310
  N   -1.40492350551237      1.11473644595878      0.30082383930444
  O   -2.47178940687005      0.87254283401052      0.87300190661536
  O   -0.98170427189500      2.24488708800646      0.04868008931535
  N   -1.29695608772729     -1.18884756099504     -0.57200307861965
  H   -1.96056974517252     -1.50689091183371      0.12522902724678
  H   -1.80673771861341     -0.99990559103473     -1.42711760559939
