14
Coordinates from ORCA-job run
  C   0.66405059556495      0.00813582597790     -0.13793974078924
  C   -0.70350742951973      0.04394013045159     -0.01930255951981
  N   1.25853934032549     -1.21077539333575     -0.45302824272004
  H   0.90200600913589     -1.99903527536531      0.06405567887471
  H   2.26371474446954     -1.18936600504508     -0.51567766757974
  N   1.51103695979902      1.09027358114511     -0.15226820955116
  H   2.38945768516322      0.94627039069714      0.32282330249249
  H   1.04209818288716      1.95271036040498      0.09045393591333
  N   -1.38879906547018      1.20430982068235      0.47447735735417
  O   -2.54867910898667      1.04212454448540      0.85721417902004
  O   -0.79051292800165      2.29398346409714      0.54357816109565
  N   -1.53866799034845     -1.02288623563720     -0.37616078827367
  H   -1.93149113311799     -1.55188006744570      0.38869625066911
  H   -1.12924586190061     -1.60780514111256     -1.08792165698584
