14
Coordinates from ORCA-job run
  C   0.77866769817275     -0.01206319452436     -0.02783403207270
  C   -0.60319412253504     -0.01898612382112     -0.04225884845774
  N   1.44295893783963     -1.18781087043137     -0.28669187932351
  H   2.29058004382937     -1.07996127267012     -0.82276739962896
  H   0.81291090185219     -1.89918395435306     -0.63170005736550
  N   1.57389801523755      1.06685429108058      0.21423772648966
  H   1.07747720808049      1.87111168003269      0.57057922313253
  H   2.45829254341028      0.85598837713257      0.64856226727472
  N   -1.37822099176033      1.09066702927227      0.41237538420373
  O   -2.60367098025271      0.93123586527538      0.47124512658110
  O   -0.81796893589294      2.16020177342980      0.71671205839472
  N   -1.27572600215957     -1.20404954551824     -0.41806143418112
  H   -1.93631175097838     -1.01150420756910     -1.16273902605968
  H   -1.81769256484328     -1.56549984733593      0.35934089101276
