14
Coordinates from ORCA-job run
  C   0.77842171366461      0.00052385355236     -0.03272062865850
  C   -0.60306846726894     -0.03847523448568     -0.03204576934441
  N   1.46803172257695     -1.18668382930244     -0.10676760829346
  H   2.30913190168509     -1.14733459010910     -0.66220332715086
  H   0.85310491362264     -1.95816414878424     -0.32724765106034
  N   1.54979186653612      1.12144594957563      0.02408300549066
  H   1.03677398751248      1.96123812558990      0.25179818435510
  H   2.44266713820668      1.00325328952080      0.47575067276725
  N   -1.40072566608654      1.11263095004460      0.24485601107318
  O   -0.86324991687195      2.22894164594623      0.36979451385446
  O   -2.62178430089075      0.93844106442498      0.34064903550023
  N   -1.25034615322845     -1.28293547052688     -0.20577325506745
  H   -1.91993650650688     -1.22711337135116     -0.96503559250479
  H   -1.77881223295107     -1.52676823409501      0.62486240903892
