16

C	-0.388027	0.138023	-1.450651
C	0.0	0.0	0.0
Cl	-2.09772	0.638164	-1.653928
H	1.090542	0.0	0.0
H	-0.317127	0.898023	0.530236
C	0.558974	1.158943	-2.064214
H	1.567096	0.872142	-1.742338
H	0.325591	2.146766	-1.660339
H	0.453886	1.184474	-3.150674
N	-0.167683	-1.166974	-2.228531
O	0.979386	-1.584585	-2.177791
O	-1.085237	-1.651173	-2.877468
N	-0.596841	-1.12862	0.713043
O	-0.768529	-0.993431	1.926345
O	-0.855929	-2.159486	0.087544
F	2.556956	0.0	0.0
