16

C	-0.534743	-0.025399	-1.418274
C	0.0	0.0	0.0
Cl	0.405505	-1.097407	-2.456473
H	1.086048	0.0	0.0
H	-0.357077	0.890452	0.511338
C	-2.01605	-0.335505	-1.580971
H	-2.188821	-1.373846	-1.308496
H	-2.597967	0.322989	-0.933429
H	-2.316154	-0.185035	-2.620494
N	-0.384103	1.42069	-1.944529
O	-0.915934	2.280451	-1.244353
O	0.150204	1.623725	-3.025653
N	-0.451165	-1.13347	0.807558
O	-0.651704	-2.228667	0.269947
O	-0.532321	-0.943827	2.024029
F	2.506869	0.0	0.0
