16

C	-0.495148	0.001521	-1.437551
C	0.0	0.0	0.0
Cl	0.12817	-1.380684	-2.340248
H	1.088459	0.0	0.0
H	-0.411026	0.88552	0.481616
C	-2.00115	0.084998	-1.617719
H	-2.247606	0.170382	-2.678789
H	-2.468233	-0.813222	-1.215538
H	-2.38126	0.952467	-1.076651
N	0.065415	1.29708	-2.05645
O	-0.22315	2.318748	-1.438456
O	0.673671	1.255679	-3.11298
N	-0.586122	-1.148347	0.71618
O	-1.651322	-0.962129	1.322708
O	-0.006474	-2.231321	0.677358
F	2.538116	0.0	0.0
