16

C	-0.331672	-0.011928	-1.479818
C	0.0	0.0	0.0
Cl	0.002137	1.547126	-2.244156
H	1.088588	0.0	0.0
H	-0.405743	-0.914842	0.43302
C	0.54474	-1.076159	-2.114359
H	0.456473	-1.060025	-3.201701
H	0.257707	-2.056818	-1.733919
H	1.562414	-0.842985	-1.77906
N	-1.822414	-0.34267	-1.679718
O	-2.132909	-1.495364	-1.386751
O	-2.603055	0.521455	-2.058315
N	-0.645449	1.11553	0.71714
O	-0.046598	2.184277	0.811225
O	-1.772768	0.903208	1.185308
F	2.593188	0.0	0.0
