16

C	-0.541094	0.107686	-1.419295
C	0.0	0.0	0.0
Cl	-0.131938	-1.417445	-2.234567
H	1.08899	0.0	0.0
H	-0.404892	-0.922881	0.41736
C	-2.033291	0.35087	-1.554439
H	-2.569179	-0.458207	-1.0579
H	-2.314558	0.373912	-2.60988
H	-2.30594	1.29487	-1.085649
N	0.168693	1.254162	-2.151801
O	-0.208502	2.369159	-1.792724
O	1.006921	1.023533	-3.010776
N	-0.551736	1.072999	0.862896
O	-1.632453	0.845932	1.436347
O	0.090557	2.116498	0.988028
F	2.537435	0.0	0.0
