15

C	-0.42861	-0.01456	-1.464231
C	0.0	0.0	0.0
Br	0.554525	1.285809	-2.448306
H	1.095652	0.0	0.0
N	-0.163642	-1.381479	-2.105686
O	-0.959205	-1.735541	-2.969227
O	0.849682	-1.952848	-1.732628
N	-1.944281	0.17812	-1.676034
O	-2.630499	-0.514021	-0.931008
O	-2.332626	1.001527	-2.491777
C	-0.431592	-1.177389	0.743907
N	-0.705469	-2.12431	1.384263
C	-0.478129	1.225248	0.625477
N	-0.86071	2.220556	1.121149
F	2.464176	0.0	0.0
