15

C	-0.413105	-0.103051	-1.450921
C	0.0	0.0	0.0
Br	0.558025	1.134142	-2.53409
H	1.095669	0.0	0.0
N	-0.171642	-1.497403	-2.027335
O	0.599751	-2.225523	-1.424506
O	-0.756001	-1.739282	-3.076442
N	-1.932423	0.100212	-1.606681
O	-2.58935	-0.808082	-1.107779
O	-2.361811	1.116671	-2.12966
C	-0.496157	-1.06981	0.845129
N	-0.841442	-1.936731	1.560665
C	-0.405321	1.295745	0.519624
N	-0.69686	2.349113	0.955476
F	2.404881	0.0	0.0
