15

C	-0.419278	-0.032265	-1.449488
C	0.0	0.0	0.0
Br	-2.306288	-0.347026	-1.758147
H	1.09595	0.0	0.0
N	0.014556	1.290968	-2.098396
O	1.212241	1.362322	-2.329795
O	-0.833391	2.152799	-2.268636
N	0.315548	-1.12793	-2.224193
O	0.316214	-1.003773	-3.441453
O	0.790362	-2.041296	-1.569307
C	-0.468216	-1.152178	0.746258
N	-0.845271	-2.060782	1.390368
C	-0.458864	1.225296	0.627998
N	-0.82004	2.228117	1.125517
F	2.397173	0.0	0.0
