15

C	-0.420658	0.044063	-1.451654
C	0.0	0.0	0.0
Br	0.571801	-1.212991	-2.48982
H	1.093527	0.0	0.0
N	-1.936515	-0.187865	-1.615198
O	-2.614775	0.647844	-1.028794
O	-2.343331	-1.143406	-2.255502
N	-0.194644	1.423895	-2.070867
O	-0.874226	1.683449	-3.056501
O	0.671314	2.116518	-1.565829
C	-0.430706	-1.259564	0.582382
N	-0.762785	-2.286085	1.051075
C	-0.48164	1.122434	0.784174
N	-0.824666	2.031772	1.444992
F	2.406491	0.0	0.0
