15

C	-0.445459	0.014657	-1.460974
C	0.0	0.0	0.0
Br	0.300881	-1.454005	-2.413064
H	1.095399	0.0	0.0
N	-1.979055	0.003159	-1.553327
O	-2.542953	-1.052334	-1.789121
O	-2.49322	1.079814	-1.265856
N	-0.004036	1.288755	-2.187486
O	-0.61198	1.552676	-3.220408
O	0.942025	1.890111	-1.68987
C	-0.480525	-1.207739	0.659158
N	-0.835375	-2.17738	1.226989
C	-0.448126	1.190196	0.715998
N	-0.737854	2.142367	1.34994
F	2.460464	0.0	0.0
