15

C	-0.440152	-0.002794	-1.458961
C	0.0	0.0	0.0
Br	0.274008	1.483873	-2.410078
H	1.096063	0.0	0.0
N	0.05884	-1.250829	-2.19286
O	-0.603051	-1.614692	-3.154977
O	1.021406	-1.817048	-1.687753
N	-1.973124	-0.023182	-1.515738
O	-2.461641	-1.119707	-1.262298
O	-2.565869	1.021921	-1.742224
C	-0.448914	-1.201612	0.702097
N	-0.746742	-2.136407	1.370362
C	-0.470949	1.196872	0.681775
N	-0.803805	2.142222	1.295194
F	2.466105	0.0	0.0
