15
Coordinates from ORCA-job run
  C   0.91859160562206     -0.24149521304572     -0.04103407281391
  C   -0.56375689969192     -0.49429560229308      0.26045962962795
  Cl  1.80121229506253     -1.76054617864910      0.16146720659225
  H   -0.64816173205359     -0.97640764173225      1.23352290552337
  C   1.12944995278642      0.27850042723817     -1.38248811896668
  N   1.24462271627008      0.61846497181481     -2.50186239700609
  N   1.49945142590606      0.73112375543608      0.99522040151154
  O   1.04152256028293      0.61804764876414      2.12304883255788
  O   2.38948085981926      1.47368735166030      0.61699911550558
  N   -1.15220988336143     -1.28912375754306     -0.74984313888383
  H   -2.05290007358879     -1.64679963698534     -0.46405769848528
  H   -1.22910775892194     -0.80751204109559     -1.63757208437027
  N   -1.27285865304324      0.85129669510308      0.43612609472751
  O   -2.39259049393438      0.78124429359814      0.92806360622785
  O   -0.71374592115401      1.86381492772939      0.01994971825213
