15
Coordinates from ORCA-job run
  C   0.78101542585498      0.00609515998460      0.29417660259374
  C   -0.68215238086515     -0.17741123236562     -0.21855179953715
  Cl  0.82165058401817      0.79816963970488      1.85362233826720
  H   -0.62418245049500     -0.75140804489723     -1.14374663927897
  C   1.55507322785544     -1.22399757928384      0.31536849120387
  N   2.19885994251859     -2.20819770500868      0.32876604119689
  N   1.41204433601737      0.91894618691688     -0.79351737903825
  O   1.68966061897263      2.06821176283338     -0.50659089512819
  O   1.50503851700565      0.37187348572216     -1.88484505669570
  N   -1.42636674526177      1.00177534932733     -0.40472443257792
  H   -1.25636784157276      1.44855916539011     -1.29251877130830
  H   -1.38781938254944      1.64909045966896      0.36892911484245
  N   -1.37268739238361     -1.07987336594220      0.78446039321884
  O   -1.11571749717843     -2.27691126357127      0.68523268160791
  O   -2.09604896193665     -0.54492201847953      1.61393931063348
