15
Coordinates from ORCA-job run
  C   0.89500385757767     -0.32254330844623      0.24576521128263
  C   -0.59751081719359     -0.57105920053470     -0.07105025746852
  Cl  1.34780269949173     -1.11016494052196      1.74478414402813
  H   -0.78001354695872     -1.64050774240443      0.04313852035265
  C   1.71772349723295     -0.80564544795111     -0.85337794259832
  N   2.40824201361422     -1.23392378083896     -1.70270522073205
  N   1.13957687816107      1.21471625623430      0.35975327834391
  O   1.32639403491708      1.68938300550589      1.46192511177672
  O   1.08588163670157      1.79819306483224     -0.71453514840043
  N   -0.94583599755216     -0.12882255866239     -1.36081029508878
  H   -1.86349309701028     -0.45122912458568     -1.63509880934180
  H   -0.86641306889093      0.87332869015909     -1.47006849564716
  N   -1.41743835840295      0.07231769693454      1.05795906439533
  O   -1.89466974786092     -0.67643509629751      1.90386347329686
  O   -1.55524998382674      1.29139248657692      0.98845736580084
