15
Coordinates from ORCA-job run
  C   0.84351274132486     -0.03764457472125      0.20758330559175
  C   -0.63803604586721     -0.07028261212987     -0.21390600658166
  Cl  1.02634354443205      0.55985589348042      1.84556866832919
  H   -0.69153636502473     -0.52980590879428     -1.20170204129993
  C   1.53565832300434     -1.30668079024753      0.04405669895648
  N   2.13439117508923     -2.31070665484778     -0.08317492963222
  N   1.48997656582793      0.95298717064759     -0.81181159158654
  O   1.43848590378815      0.54442134871311     -1.96222540212390
  O   1.94613817472850      1.99875825475047     -0.40039313521406
  N   -1.17062104805837      1.23113235119906     -0.22030564381236
  H   -2.04161638132602      1.27588213663186     -0.73039875929681
  H   -1.30870570701859      1.58876725532045      0.71624915552801
  N   -1.35270829910595     -1.06079791318104      0.71889415507891
  O   -1.10922309656517     -2.24779971418981      0.52767489217848
  O   -2.10305948522902     -0.58808624263144      1.56489063388462
