15
Coordinates from ORCA-job run
  C   0.90035933008664     -0.31539586617766      0.23624738298624
  C   -0.59331260315452     -0.57535038477844     -0.06533727424233
  Cl  1.37477608389054     -1.10002207650951      1.73014616314506
  H   -0.76610138016155     -1.64637694197477      0.04911357775402
  C   1.71529447118796     -0.79158873753259     -0.87158958281307
  N   2.39618724763263     -1.21472208761432     -1.73122939869047
  N   1.13410880340107      1.22384056593563      0.34865401752135
  O   1.06549220527587      1.80737976064191     -0.72473501759338
  O   1.32820818018835      1.69936732646504      1.44922268582441
  N   -0.95894953606888     -0.13344221653528     -1.35020786892187
  H   -1.87617217854591     -0.46366382608545     -1.61634934576013
  H   -0.88890144484826      0.86943928100842     -1.45878524766821
  N   -1.40657191719719      0.05910197589072      1.07374758094138
  O   -1.55489277430139      1.27714692276050      1.00884493930187
  O   -1.86952448738534     -0.69571369549414      1.92225738821518
