15
Coordinates from ORCA-job run
  C   0.91263964407622     -0.30371510301510      0.22556248919522
  C   -0.60066089307285     -0.47043480557484     -0.06122826877628
  Cl  1.46590463340961     -0.88011757186208      1.79591884299230
  H   -0.77672009299694     -1.53916599501929     -0.19731854081803
  C   1.63243419640156     -1.00203183267425     -0.83292952307621
  N   2.16601375142560     -1.63440284662601     -1.66749004554703
  N   1.26692486800733      1.18869814834816      0.15180366223183
  O   0.49078589840793      1.92713689134447      0.74295506351111
  O   2.28505893323888      1.49632531173085     -0.44617068037350
  N   -0.90377775273909      0.26087373100500     -1.23305256906292
  H   -1.68283438052210     -0.14083146325202     -1.73539860191954
  H   -1.11442794727770      1.22703236049375     -1.01085148783414
  N   -1.48873878610205     -0.11303139359613      1.14246360676078
  O   -1.49105237282314     -0.92287235154498      2.06225892222820
  O   -2.16154969943331      0.90653692024249      1.06047713048818
