15

C	-0.423349	0.015999	-1.468815
C	0.0	0.0	0.0
F	0.281691	-0.896851	-2.158505
H	1.102171	0.0	0.0
N	-1.901319	-0.40852	-1.557217
O	-2.172677	-1.38845	-2.229704
O	-2.676399	0.292227	-0.916313
C	-0.329446	1.329105	-2.118044
N	-0.276147	2.367043	-2.665525
N	-0.436178	-1.260803	0.582488
H	0.352039	-1.680629	1.058636
H	-1.192742	-1.125188	1.2383
C	-0.467319	1.179696	0.727605
N	-0.870227	2.054504	1.401523
Cl	3.19013	0.0	0.0
