15

C	-0.544415	-0.007901	-1.432628
C	0.0	0.0	0.0
F	-0.159	1.113463	-2.090058
H	1.094206	0.0	0.0
N	0.014524	-1.209756	-2.198293
O	-0.641396	-2.242367	-2.143951
O	1.066186	-1.023539	-2.787434
C	-2.012007	-0.107334	-1.455938
N	-3.187027	-0.120948	-1.423814
N	-0.420954	-1.204003	0.687033
H	0.344421	-1.532988	1.261034
H	-1.247237	-1.066972	1.253787
C	-0.459335	1.239177	0.642253
N	-0.873792	2.186058	1.202155
Cl	3.199171	0.0	0.0
