15

C	-0.422209	-0.019497	-1.470256
C	0.0	0.0	0.0
F	0.288747	-0.935539	-2.148174
H	1.095751	0.0	0.0
N	-1.897299	-0.460645	-1.551477
O	-2.173776	-1.372492	-2.31398
O	-2.66534	0.160758	-0.826403
C	-0.349975	1.28342	-2.141794
N	-0.313995	2.325215	-2.680764
N	-0.433214	-1.248118	0.608559
H	0.323558	-1.608692	1.175085
H	-1.25389	-1.115265	1.184192
C	-0.465281	1.201695	0.694903
N	-0.813218	2.134614	1.318995
Cl	3.20821	0.0	0.0
