14

C	-0.514769	-0.087035	-1.431733
C	0.0	0.0	0.0
F	-0.106565	1.045056	-2.129723
H	1.093275	0.0	0.0
H	-0.301721	-0.901893	0.544987
C	0.065931	-1.26882	-2.106499
N	0.398096	-2.23829	-2.679017
C	-2.030802	-0.156531	-1.548654
H	-2.410387	-1.051153	-1.051506
H	-2.461225	0.728336	-1.077098
H	-2.321341	-0.181421	-2.6015
C	-0.542137	1.169173	0.668287
N	-0.977373	2.11628	1.212288
H	2.723645	0.0	0.0
