14

C	-0.417666	0.055738	-1.46645
C	0.0	0.0	0.0
F	-0.170321	-1.18506	-2.049303
H	1.093766	0.0	0.0
H	-0.309309	0.924614	0.498864
C	-1.867922	0.308926	-1.628362
N	-3.009	0.557245	-1.756478
C	0.408893	1.098355	-2.196106
H	0.207814	1.046496	-3.268329
H	0.165345	2.098881	-1.831586
H	1.460803	0.888546	-1.977621
C	-0.563177	-1.141033	0.698956
N	-1.009406	-2.061678	1.276681
H	2.78522	0.0	0.0
