14

C	-0.408081	0.027781	-1.472238
C	0.0	0.0	0.0
F	-0.054971	-1.20847	-2.015282
H	1.093958	0.0	0.0
H	-0.364817	-0.920165	0.464719
C	-1.872326	0.148079	-1.656925
N	-3.032507	0.252441	-1.811573
C	0.343151	1.11181	-2.218834
H	0.038519	2.09809	-1.863043
H	0.143796	1.034386	-3.290069
H	1.406585	0.966542	-2.003571
C	-0.504194	1.160849	0.71037
N	-0.912054	2.108333	1.27419
H	2.776786	0.0	0.0
