14

C	-0.38538	-0.070259	-1.468727
C	0.0	0.0	0.0
F	-1.776189	-0.220198	-1.629771
H	1.093653	0.0	0.0
H	-0.361342	0.921358	0.463563
C	-0.050901	1.213544	-2.117519
N	0.160389	2.243839	-2.63929
C	0.321739	-1.218686	-2.155699
H	1.397112	-1.107482	-1.977614
H	-0.016958	-2.155795	-1.709333
H	0.096944	-1.224237	-3.224248
C	-0.504546	-1.152258	0.725121
N	-0.890274	-2.091197	1.317553
H	2.73157	0.0	0.0
