14

C	-0.408424	0.036763	-1.472192
C	0.0	0.0	0.0
F	-0.058983	-1.197326	-2.022276
H	1.093775	0.0	0.0
H	-0.365287	-0.922758	0.459108
C	-1.872413	0.161399	-1.655585
N	-3.033394	0.259569	-1.808611
C	0.34509	1.122265	-2.213385
H	1.408106	0.972446	-1.999805
H	0.043962	2.107728	-1.852061
H	0.144502	1.050845	-3.284648
C	-0.504152	1.15721	0.716256
N	-0.909838	2.103965	1.282843
H	2.777166	0.0	0.0
