11
Coordinates from ORCA-job run
  C   0.53190452633753     -0.04890468935072      0.13402035883199
  C   -0.78353025085161      0.25915201259371     -0.12757822998670
  N   1.21177927288166     -1.06754262258749     -0.45106713392312
  H   2.07316018240961     -1.37420639536932     -0.03035794836870
  H   0.68824827270653     -1.75999241751076     -0.96692907954133
  C   1.28616067104821      0.78571929022261      1.02523113794944
  N   1.92651503032107      1.44578710608187      1.76013381717274
  C   -1.51485929635783     -0.59416985223573     -1.00277114151580
  N   -2.03983996285384     -1.35719729693677     -1.73035871739724
  C   -1.42161805520266      1.39019847117880      0.45561550510250
  N   -1.95892039043868      2.32115639391382      0.93506143167622
