11
Coordinates from ORCA-job run
  C   0.53655389779930     -0.04915931544864      0.11838010048584
  C   -0.78553712987527      0.25891622085943     -0.10691486131704
  N   1.19720995860541     -1.07643331906551     -0.47464832606507
  H   0.65539894877854     -1.77679278731720     -0.96026357170076
  H   2.06819008550698     -1.38105832141065     -0.07206748007984
  C   1.31979981923164      0.79871122377617      0.97103766768407
  N   1.98198807234432      1.47058259513503      1.67527356044473
  C   -1.54548239839049     -0.60380713646295     -0.94794498510689
  N   -2.09529725308769     -1.37080342841436     -1.65262956555701
  C   -1.40489533552517      1.39693427680183      0.48274623424715
  N   -1.92892866538758      2.33290999154682      0.96703122696480
