11
Coordinates from ORCA-job run
  C   0.51363420607562     -0.12914202532892      0.15358376301765
  C   -0.82360595039209      0.12154784138590     -0.05235191094665
  N   1.51890322654817      0.43496863132561     -0.56327310270484
  H   1.28509446131097      0.91687102234716     -1.41931136221689
  H   2.43443666811473      0.02016429252488     -0.51410376608543
  C   0.91060253239184     -0.97878538902159      1.23997364214812
  N   1.26501695693807     -1.68234587681492      2.11481446984403
  C   -1.19222257056334      0.95982663895751     -1.14355013985772
  N   -1.40375186635322      1.65701220766012     -2.06886548778489
  C   -1.83195852521946     -0.43464099001105      0.78428703721458
  N   -2.67514913885132     -0.88647635302470      1.46979685737205
