11
Coordinates from ORCA-job run
  C   0.53126447990167     -0.06130979440985      0.13449837241187
  C   -0.77771022119883      0.27493806767341     -0.12383470314644
  N   1.20016686626904     -1.06980660525730     -0.48131045452060
  H   0.66679244945832     -1.74071753784594     -1.01536719118287
  H   2.05219801555277     -1.40405511389327     -0.06228763030046
  C   1.29286175206090      0.73460786237314      1.05428010607175
  N   1.93761621873463      1.36407287285048      1.81191745324831
  C   -1.51709967101333     -0.53764431905609     -1.03063265593384
  N   -2.05132407102974     -1.26557295032942     -1.78691462720040
  C   -1.40385549810816      1.39306448920469      0.49577578072077
  N   -1.93291032062728      2.31342302869016      1.00387554983191
