11
Coordinates from ORCA-job run
  C   0.50177267117827     -0.16669397999268      0.15420566156917
  C   -0.81994350258603      0.13316462954118     -0.08332598415676
  N   1.50531156780192      0.02980851842496     -0.73911971778951
  H   2.45387619234605      0.02084205387418     -0.40221940872946
  H   1.31924054100188      0.60510167147994     -1.54800062944726
  C   0.86811743330053     -0.80244736091024      1.38754787244176
  N   1.19892118476120     -1.31397799057227      2.39486932322054
  C   -1.84177668400444     -0.16913841240429      0.86041627959739
  N   -2.69385708962652     -0.41141741397321      1.63529646368879
  C   -1.15557458929519      0.77227255483020     -1.31132202697315
  N   -1.33608772487768      1.30048572970225     -2.34834783342152
