11
Coordinates from ORCA-job run
  C   0.53594023706195     -0.05420775790756      0.11524197438379
  C   -0.78651455356294      0.26376802929338     -0.09329383201081
  N   1.19457700078963     -1.05410137830558     -0.52478039128272
  H   0.65167437101357     -1.73093842323608     -1.04145778813660
  H   2.06727214087957     -1.37587952439615     -0.14002989629689
  C   1.32095388342054      0.75209619582942      1.00590861475800
  N   1.98528293983761      1.38946618150604      1.73957361559159
  C   -1.54738206554152     -0.55940528403983     -0.97222184716713
  N   -2.09614456623992     -1.29587349581654     -1.70955493042778
  C   -1.40306875533700      1.37540678181302      0.54734987305754
  N   -1.92259063232150      2.29066867525989      1.07426460753101
