11
Coordinates from ORCA-job run
  C   0.54053254673860     -0.03637065304699      0.10015098053606
  C   -0.79647975991463      0.23807743763679     -0.07435093329918
  N   1.21213766439716     -1.02264863632289     -0.54750626897604
  H   0.67607067074163     -1.72285671989846     -1.03957913312707
  H   2.10476919754758     -1.31253570656105     -0.18370045866680
  C   1.32449166198489      0.80384106236209      0.95997227048392
  N   1.98927986630259      1.46878558716667      1.66821744149989
  C   -1.55607588229528     -0.61721092009494     -0.92318053545503
  N   -2.10380514726156     -1.37716627117282     -1.63700267375347
  C   -1.42936249442977      1.33694430115511      0.57236694015538
  N   -1.96255832381121      2.24114051877650      1.10461237060230
