11
Coordinates from ORCA-job run
  C   0.50670723367083     -0.19244313736742      0.10477119127053
  C   -0.82130767970373      0.13606024307903     -0.04320303925245
  N   1.49573961910205      0.21571808257991     -0.73110074428402
  H   1.29214335303360      0.95622175621513     -1.38691990447124
  H   2.44894870146480      0.14322965349070     -0.41585549719838
  C   0.89563429341561     -1.08624207047208      1.15802569491624
  N   1.24073206874631     -1.80799889557841      2.02154111804187
  C   -1.18167516905972      1.03596792454697     -1.08702582625912
  N   -1.38643872536487      1.78677378256634     -1.97106668040496
  C   -1.82607483554595     -0.38427255847769      0.82046319693788
  N   -2.66440885975893     -0.80501478058249      1.53137049070363
