11
Coordinates from ORCA-job run
  C   0.53709920688770     -0.04316140107278      0.11651150882235
  C   -0.81343428630109      0.18487757557484     -0.01660748528863
  N   1.19795457226367     -1.08743426007035     -0.44577960419178
  H   0.72608461891801     -1.62418420715288     -1.15926502671852
  H   2.20167736451927     -1.04085460412822     -0.50799246502354
  C   1.31473799840078      0.81705375341490      0.96190781822105
  N   1.97701967069536      1.51569373212027      1.63944208889658
  C   -1.46671899166697      1.25164760284569      0.66252884850110
  N   -2.01550754599595      2.13254947843582      1.21747082932881
  C   -1.56202263275323     -0.67559279884176     -0.87008760909982
  N   -2.09788997496755     -1.43059487112554     -1.59812890344759
