11
Coordinates from ORCA-job run
  C   0.52746915853652     -0.08151143530153      0.13514738334184
  C   -0.79782204975171      0.24280167959243     -0.04332012996084
  N   1.12877767033859     -1.17441519761147     -0.40086100717958
  H   0.64282519020905     -1.67850763794542     -1.12861370978585
  H   2.13459469139062     -1.20153647177415     -0.43054535615157
  C   1.33805245640172      0.72518985518623      1.00222950725646
  N   2.03004746506567      1.37444663591488      1.69896687936495
  C   -1.57778122990123     -0.56537479224028     -0.91944931572666
  N   -2.14172576341862     -1.28342166769862     -1.66338743295755
  C   -1.39268125929276      1.35968748130495      0.60838318791529
  N   -1.89175632957786      2.28264155057298      1.14144999388351
