11
Coordinates from ORCA-job run
  C   0.52476306270028     -0.06650167310349      0.15546211321110
  C   -0.79795571281983      0.22800591645446     -0.08321771333550
  N   1.16159245073636     -1.17128961014069     -0.31016939192841
  H   0.70968018970015     -1.71730049491478     -1.02925446311029
  H   2.16800033664170     -1.18159871367894     -0.30284980346188
  C   1.29285398027835      0.79233016719781      1.01130989235316
  N   1.95079257308874      1.48649784174232      1.69766652433704
  C   -1.53665991070158     -0.63132826778462     -0.94654117974546
  N   -2.07087088595218     -1.39101270187165     -1.67070392418450
  C   -1.43341226553697      1.35992947222018      0.50072277464956
  N   -1.96778381813503      2.29326806387940      0.97857517121517
