11
Coordinates from ORCA-job run
  C   0.49862754179355     -0.08841482720533      0.20930091931699
  C   -0.81554598535618     -0.00492944302591     -0.18827098581367
  N   1.55161792592414      0.36894209757364     -0.51637463991372
  H   1.36264584999857      0.98933639766746     -1.29007146503556
  H   2.43064744829511      0.50013851393637     -0.04319301158570
  C   0.82947775754683     -0.77381334525676      1.42660905495069
  N   1.15885028767506     -1.33878926897680      2.40540290424264
  C   -1.87028092796982     -0.57705989228272      0.57788828264588
  N   -2.74176998313082     -1.05318317352632      1.20963300181771
  C   -1.11578390450574      0.68975737456514     -1.39524825661169
  N   -1.28848601027070      1.28801556653122     -2.39467580401356
