11
Coordinates from ORCA-job run
  C   0.54645773928737     -0.00256504144940      0.07052743209565
  C   -0.81477109649015      0.18058226665089     -0.01329305236696
  N   1.25411376442465     -0.86188718406566     -0.70644340280899
  H   2.18620787679921     -1.11109781053452     -0.41912476661176
  H   0.74678625462915     -1.55124042370044     -1.24275172128412
  C   1.31013524260682      0.80547775230907      0.97780897874589
  N   1.96001184589557      1.44580070305194      1.72179837972769
  C   -1.49311788279515      1.15231376285829      0.77531590566138
  N   -2.06352948835396      1.95019208397825      1.42587946291929
  C   -1.55244019600418     -0.64240424590493     -0.91218702123723
  N   -2.08085405999932     -1.36617186319348     -1.67653019484084
