11
Coordinates from ORCA-job run
  C   0.52711232531125     -0.05566012620853      0.14871624599528
  C   -0.80539671354387      0.21132744067852     -0.06745994756810
  N   1.17698698735177     -1.14953639140432     -0.32480300626497
  H   0.72306541504370     -1.70799877643390     -1.03309630789614
  H   2.18346626783357     -1.14286917200777     -0.33187205349536
  C   1.29358355035139      0.82099701884618      0.98765098179515
  N   1.94988350011197      1.52853572126363      1.66186516057691
  C   -1.45117338057023      1.33744059114878      0.51612644993470
  N   -1.99439665718721      2.26722679997346      0.99107391530719
  C   -1.53946982273135     -0.66693777930753     -0.91534713012543
  N   -2.06266147197100     -1.44152532654851     -1.63185430825923
