11
Coordinates from ORCA-job run
  C   0.54598221933912     -0.00973586939424      0.07865859836982
  C   -0.82065054242984      0.14376686160478      0.03295930937901
  N   1.21900134505572     -1.05703098620009     -0.46310994408120
  H   2.21146237750134     -0.96619730114063     -0.60477023553097
  H   0.72563891724313     -1.66225321513548     -1.10360261887262
  C   1.33587933819838      0.94385141888456      0.80435638720644
  N   2.00773715134687      1.71840998454857      1.38264098879077
  C   -1.47881731615799      1.22180734514247      0.68958144337606
  N   -2.03363116703222      2.11099328927772      1.22503399418907
  C   -1.58266947432264     -0.80701208574820     -0.70475261748755
  N   -2.12993284874188     -1.63559944183946     -1.33799530533882
