11
Coordinates from ORCA-job run
  C   0.54955902744921      0.01802534669468      0.03633073432609
  C   -0.81989664849493      0.15210628750939      0.03053652075952
  N   1.23762510893746     -0.86261010315819     -0.73430020789927
  H   0.72282483825780     -1.59547966680093     -1.20064047253662
  H   2.19315150626518     -1.06658871918141     -0.49235529595039
  C   1.33930562264206      0.90583569251234      0.84151645277829
  N   2.01060082917095      1.61416706442831      1.49994552665667
  C   -1.48153910330868      1.14698679212356      0.80423069421863
  N   -2.03871106002571      1.96262986648333      1.44420267003261
  C   -1.58237166066547     -0.74443729359531     -0.77153521841517
  N   -2.12954846022786     -1.52963526701577     -1.45793140397035
