11
Coordinates from ORCA-job run
  C   0.54855199475624      0.00312837753521      0.05279953299765
  C   -0.81587081426226      0.17459217662574      0.00714168776110
  N   1.23708947005015     -0.87940366534374     -0.71550106371607
  H   0.71774605713593     -1.59104591780087     -1.20931995574337
  H   2.17912388863066     -1.11331486498966     -0.44858267925432
  C   1.33547687692216      0.84995769201263      0.90334892956336
  N   2.00497198486981      1.52169865484817      1.60077977410818
  C   -1.47519250189026      1.17080290279941      0.78114920307771
  N   -2.03093664918879      1.98883620861519      1.41923078925098
  C   -1.57650326086734     -0.68463590026237     -0.83663967102804
  N   -2.12345704615631     -1.43961566403969     -1.55640654701718
