11
Coordinates from ORCA-job run
  C   0.51551893389080     -0.15823222006643      0.11337219584744
  C   -0.82716964523308      0.10677319193360     -0.02908188805422
  N   1.45935781333446      0.14142501791997     -0.81549091536096
  H   2.42517712808670      0.14547478807927     -0.53178543882313
  H   1.20748048813794      0.76424667074260     -1.56944728270847
  C   0.97322842327306     -0.86548754564258      1.27520646021571
  N   1.37814726868248     -1.43333920314482      2.22356960709390
  C   -1.78265692484093     -0.30269844569100      0.94333203510854
  N   -2.58039502065023     -0.63397288590215      1.74273021001940
  C   -1.25473429539369      0.81983579025756     -1.18577122001515
  N   -1.51495416928750      1.41597484151398     -2.16763376332307
