11
Coordinates from ORCA-job run
  C   0.50964920559031     -0.10243615936693      0.18246097043478
  C   -0.81992214053584      0.00686294844199     -0.15251505063905
  N   1.53854780759752      0.31987185211082     -0.59891418953163
  H   2.43563298715718      0.45710492011582     -0.16181936035257
  H   1.32314648418396      0.93771234423002     -1.36839835497536
  C   0.87287539907709     -0.77633920355736      1.39640125831776
  N   1.19691043900480     -1.31713356525812      2.39041984510308
  C   -1.84821681068940     -0.52982111864471      0.67249012426754
  N   -2.70362077580604     -0.96944085118390      1.35098374590261
  C   -1.15916149892025      0.69221600390312     -1.35472760067491
  N   -1.34484109665933      1.28140282920926     -2.35738138785225
