11
Coordinates from ORCA-job run
  C   0.51167057939214     -0.10705244052820      0.17414075181074
  C   -0.82274518157003      0.12166967972986     -0.07179101723844
  N   1.52436594537974      0.35208087870738     -0.60512050903380
  H   1.29698133915253      0.71078003730963     -1.52160171899690
  H   2.43603895986827     -0.06104975528435     -0.49769530773340
  C   0.89760797440024     -0.80844258688005      1.36502349394201
  N   1.24279267408507     -1.39195015048102      2.32744042760982
  C   -1.18009910771635      0.80937813001818     -1.26688519424975
  N   -1.38129811299798      1.37862102514291     -2.27808164329139
  C   -1.83898304206297     -0.32016153384666      0.82173001538424
  N   -2.68733202793068     -0.68387328388769      1.55184070179687
