11
Coordinates from ORCA-job run
  C   0.53477722205690     -0.05622478565172      0.11843364883071
  C   -0.78254099375787      0.27183890363298     -0.10507937450636
  N   1.18114614630332     -1.08728006611769     -0.48346959074356
  H   0.63107063192463     -1.77450830226722     -0.97839949346123
  H   2.04857517059253     -1.40652548646614     -0.08493369118377
  C   1.32986395339052      0.76989116017632      0.98146074450426
  N   2.00453017817831      1.42055705853218      1.69385175023239
  C   -1.55325820321533     -0.57283246629517     -0.95452959294494
  N   -2.10989382121441     -1.32831831884796     -1.66620496132755
  C   -1.38703808854830      1.41221741583312      0.49480896022045
  N   -1.89823219571031      2.35218488747129      0.98506160037960
