11
Coordinates from ORCA-job run
  C   0.49680007002403     -0.17600123239156      0.16252462542279
  C   -0.81590844962432      0.13832869398590     -0.10451900037373
  N   1.52955251610249      0.05786904058035     -0.68726797684776
  H   1.37123361315526      0.66825874330885     -1.47604422505997
  H   2.46659375063618      0.03094055569211     -0.32039744518388
  C   0.82096346767577     -0.86697823944204      1.37783649672324
  N   1.11512632879721     -1.41970147034559      2.37468857618353
  C   -1.10995382570931      0.83547913520457     -1.31151808329411
  N   -1.25740376460270      1.41275915790022     -2.32750045023335
  C   -1.86911569777446     -0.20301253303109      0.79004652397878
  N   -2.74788800868015     -0.47794185146172      1.52315095868446
