11
Coordinates from ORCA-job run
  C   0.54066535440839     -0.03500641397478      0.09945113731149
  C   -0.81403573595029      0.18513619477651      0.00139864435118
  N   1.17997501594132     -1.12094024236168     -0.40615968811484
  H   0.68119620357737     -1.70905886437688     -1.05822659131477
  H   2.18036229605267     -1.08091283710916     -0.51097466954032
  C   1.35105424426607      0.88561872886470      0.84472733570902
  N   2.04298721531883      1.62795318913461      1.44145981912464
  C   -1.44130719540467      1.30388517875474      0.61874707014674
  N   -1.96898362549539      2.22812735481178      1.12118509639413
  C   -1.59422702599871     -0.73718424240158     -0.75345909847065
  N   -2.15668674671557     -1.54661804611826     -1.39814905559663
