11
Coordinates from ORCA-job run
  C   0.54690645756271      0.00443216703360      0.06819565429679
  C   -0.81680954953522      0.17080902353783     -0.00944533437311
  N   1.26283128376549     -0.83847615944532     -0.71938231238620
  H   0.76176693118867     -1.52935984296160     -1.25945407149988
  H   2.19772357261967     -1.08063447825709     -0.43528339357342
  C   1.30282675049202      0.81425144519173      0.98032683525975
  N   1.94605680960524      1.45704100208930      1.72795909932647
  C   -1.50486072050060      1.12679025642850      0.78983587934434
  N   -2.08328786633379      1.91218898063398      1.44844627676335
  C   -1.54682592045982     -0.65520260971291     -0.91177798351363
  N   -2.06632774840438     -1.38183978453802     -1.67942064964446
