11
Coordinates from ORCA-job run
  C   0.50342830423574     -0.14421474288715      0.17220467680312
  C   -0.81749586351893      0.14512342498054     -0.08268779842287
  N   1.55133434386910      0.40959630401670     -0.48982610461488
  H   1.36487627218852      0.91519431430538     -1.34389795260013
  H   2.45272551600392     -0.03225762041735     -0.41505131374710
  C   0.83360248198238     -1.02771453973879      1.25385175568305
  N   1.13325532180910     -1.75896273363325      2.12641585344150
  C   -1.11977019991151      1.01549770745592     -1.16905686472199
  N   -1.27389884461266      1.73805205810805     -2.08627825954601
  C   -1.87276669446566     -0.40469232109328      0.69851865590597
  N   -2.75329063757999     -0.85462185109677      1.33680735181933
