11
Coordinates from ORCA-job run
  C   0.49849975981288     -0.13070558179421      0.19642552106687
  C   -0.81583962754076      0.07334126634029     -0.15599117253260
  N   1.55997182525442      0.14653750750261     -0.60363818104837
  H   1.40385669205039      0.71168672882204     -1.42594855569909
  H   2.47224236047543      0.20816107048605     -0.18237899396112
  C   0.79955189781411     -0.74826366850296      1.45649031308578
  N   1.07268897225666     -1.24208552185809      2.48965715273479
  C   -1.09074403475380      0.69887911344840     -1.40592066828434
  N   -1.22348089676363      1.22373718655081     -2.45185942237708
  C   -1.89069226600609     -0.31347767677560      0.69328773598693
  N   -2.78605468259963     -0.62681042421934      1.38987627102821
