11
Coordinates from ORCA-job run
  C   0.51847893168748     -0.05832268295883      0.17832189130203
  C   -0.82954549811821      0.02188187609682     -0.08554837733009
  N   1.47754880215749      0.59884765454428     -0.52302013325522
  H   2.43229754322088      0.29419302847586     -0.42855754585841
  H   1.22234584856460      1.01650916951149     -1.40637221875596
  C   0.96962222316204     -0.81755522472449      1.30952754847220
  N   1.36484562711021     -1.44572408982378      2.22331827651909
  C   -1.79705344042898     -0.62643750912717      0.73294004814294
  N   -2.60474305174809     -1.16049634123118      1.40195564968896
  C   -1.25038776224835      0.77118227390750     -1.22164191479759
  N   -1.50340922335907      1.40592184532951     -2.18092322412795
