11
Coordinates from ORCA-job run
  C   0.54508270697607     -0.01909484325281      0.07192496471516
  C   -0.82121126569238      0.14460342518502      0.05531663827390
  N   1.20748184605066     -1.00353751545900     -0.58770157797962
  H   0.70576004866840     -1.53482154411931     -1.28466740973417
  H   2.20041189819162     -0.90724751981726     -0.72164803836676
  C   1.34720255960961      0.84418975250765      0.89115816520210
  N   2.03042391007588      1.54371737436732      1.54658162204936
  C   -1.46749784584545      1.15062542556244      0.82729374336379
  N   -2.00911799179948      1.98266957981243      1.45940369656954
  C   -1.59243973205254     -0.72109093317548     -0.77235715507089
  N   -2.14409613418239     -1.47901320161101     -1.48530464902241
