11
Coordinates from ORCA-job run
  C   0.54994611980334      0.04318155219085     -0.01635460232984
  C   -0.81957641695951      0.12139955484928      0.09105929906548
  N   1.20962947433573     -0.88063171520397     -0.76118833493961
  H   0.69178186278154     -1.67703177905806     -1.10372642002250
  H   2.19087861060515     -1.02300973091223     -0.58739814499455
  C   1.36264081132870      1.03630421669721      0.62609668981282
  N   2.05216881813571      1.83244469177553      1.15202442735214
  C   -1.60525851072093     -0.88185894235432     -0.54565626075490
  N   -2.17337219389554     -1.75324712385903     -1.09802500302963
  C   -1.45915419618900      1.16279898930024      0.82088521893324
  N   -1.99968437922519      2.01865028657450      1.42128313090735
