11
Coordinates from ORCA-job run
  C   0.54125397104522     -0.03445993674524      0.10217752786376
  C   -0.81551220862583      0.17263487113656      0.00400066288642
  N   1.20431445711238     -1.06551466725003     -0.48170162714158
  H   2.20499754727193     -1.00097952474464     -0.57063450445890
  H   0.72295261510215     -1.60471441336341     -1.18696135055328
  C   1.32594594632436      0.83349737831487      0.93314027193620
  N   1.99417782414630      1.53716593599361      1.59964164111335
  C   -1.46940578809403      1.22376392495607      0.70666563511133
  N   -2.02176892555015      2.08889604977944      1.28249026344375
  C   -1.57178764250920     -0.69471334340766     -0.83572371131092
  N   -2.11516779622312     -1.45457627466957     -1.55309480889013
