11
Coordinates from ORCA-job run
  C   0.54666846935425      0.00429093767653      0.07145381666439
  C   -0.82468099578745      0.11520912407246      0.05222594490052
  N   1.24375546507438     -0.99873268217910     -0.52175889816420
  H   2.23066010689201     -0.87058243141173     -0.67407907122698
  H   0.75971547823411     -1.59440744038789     -1.17795907340637
  C   1.31820046211033      0.95387057728835      0.82182358476562
  N   1.97626875389681      1.72581257690404      1.41909606695514
  C   -1.50616999402741      1.14543448932921      0.75939177341653
  N   -2.07878368990405      1.99500196854528      1.33870506579591
  C   -1.56738454657877     -0.82880194960838     -0.71346692806914
  N   -2.09724950926420     -1.64709517022878     -1.37443228163142
