11
Coordinates from ORCA-job run
  C   0.49020554068410     -0.23897399690671      0.07651621412967
  C   -0.80939800687461      0.20446527749018     -0.01145937082191
  N   1.49438795263265      0.16041575085246     -0.74524071683864
  H   1.34095361619113      0.96740895688827     -1.33263465652568
  H   2.44395281296582     -0.01587879989861     -0.46142271114313
  C   0.82561052575526     -1.24723424038369      1.04119278259800
  N   1.13187243318524     -2.06356386562002      1.83213827659411
  C   -1.83766971975699     -0.30820946684210      0.82881587933472
  N   -2.69379643044360     -0.72234423236912      1.52214207735800
  C   -1.11403889596476      1.21432868054068     -0.96884909910857
  N   -1.27107982837425      2.05058593624865     -1.78319867557656
