14

C	0.000339	0.016255	-0.058087
C	-0.2	0.385403	-1.547425
Cl	1.820448	-0.075419	0.21868
H	0.508429	-0.233872	-2.105119
H	0.103417	1.431339	-1.673693
C	-0.421126	1.130779	0.822436
N	-0.68405	2.036596	1.523841
N	-0.595483	-1.243526	0.23843
H	-0.360115	-1.484259	1.197053
H	-1.640863	-1.005563	0.232563
N	-1.539549	0.170322	-2.060694
H	-1.621674	-0.822577	-2.247231
H	-2.219893	0.311604	-1.293672
F	-2.924824	-0.184552	0.188753
