14

C	0.015281	0.061786	-0.054344
C	-0.211313	0.211012	-1.577663
Cl	1.842626	-0.281684	0.143673
H	-0.022781	-0.782819	-2.003184
H	0.539396	0.893315	-1.991435
C	-0.207027	1.367095	0.588416
N	-0.35221	2.443742	1.03466
N	-0.725707	-0.941051	0.610268
H	-1.779077	-0.700749	0.503554
H	-0.589818	-1.805277	0.091865
N	-1.542861	0.655709	-1.926006
H	-1.631553	1.634604	-1.676597
H	-2.242409	0.158648	-1.341301
F	-3.127463	-0.396356	-0.010199
