18

C	-0.557238	-0.050424	-1.422721
C	0.0	0.0	0.0
Cl	-2.336187	0.063984	-1.361507
H	1.091583	0.0	0.0
N	-0.01624	1.100104	-2.287846
O	-0.787939	1.927108	-2.752068
O	1.190756	1.041593	-2.472264
C	-0.138663	-1.336062	-2.105196
H	0.945757	-1.429466	-2.028237
H	-0.443318	-1.313281	-3.154134
H	-0.611892	-2.173079	-1.59788
N	-0.443098	-1.12329	0.746727
H	0.197478	-1.280369	1.513275
H	-1.372046	-0.969258	1.117512
N	-0.405041	1.32906	0.641368
O	-0.975603	1.293494	1.730114
O	-0.113149	2.34975	0.028018
Cl	3.279424	0.0	0.0
