18

C	-0.449007	-0.100676	-1.459663
C	0.0	0.0	0.0
Cl	-2.175246	-0.534745	-1.601668
H	1.095195	0.0	0.0
N	-0.210582	1.210745	-2.21249
O	-0.928305	1.482489	-3.165588
O	0.777753	1.829604	-1.844716
C	0.40239	-1.135718	-2.173535
H	0.127908	-1.170558	-3.229455
H	0.237529	-2.116348	-1.728368
H	1.454588	-0.864923	-2.046576
N	-0.389593	-1.10743	0.81097
H	0.404168	-1.685361	1.031645
H	-1.178592	-1.631019	0.464193
N	-0.503882	1.268667	0.655585
O	-0.088312	1.486667	1.784591
O	-1.310497	1.972819	0.042035
Cl	3.282851	0.0	0.0
