18

C	-0.4491	-0.19284	-1.463044
C	0.0	0.0	0.0
Cl	-2.202729	-0.535299	-1.555749
H	1.09134	0.0	0.0
N	-0.19154	1.0879	-2.265646
O	-1.080582	1.927231	-2.324105
O	0.922845	1.175063	-2.766861
C	0.331647	-1.326897	-2.088086
H	0.090726	-1.409908	-3.149237
H	1.398315	-1.138969	-1.953264
H	0.059532	-2.257717	-1.590483
N	-0.386223	-1.040458	0.883843
H	0.361813	-1.707195	0.991985
H	-1.274982	-1.469323	0.681873
N	-0.519916	1.323646	0.505204
O	0.111301	2.322818	0.169513
O	-1.541313	1.31577	1.188518
Cl	3.272404	0.0	0.0
