18

C	-0.559246	0.029364	-1.449568
C	0.0	0.0	0.0
Cl	0.397863	1.079853	-2.498518
H	1.087877	0.0	0.0
N	-0.376592	-1.406998	-1.949314
O	-1.386599	-2.114738	-1.952065
O	0.751552	-1.773107	-2.236673
C	-2.021264	0.411459	-1.552926
H	-2.375988	0.244785	-2.570213
H	-2.634843	-0.168192	-0.864572
H	-2.123235	1.46906	-1.31368
N	-0.410638	-1.116324	0.779394
H	-1.298748	-1.524393	0.533671
H	0.328004	-1.803654	0.801876
N	-0.503757	1.276142	0.641553
O	0.101325	2.312879	0.380595
O	-1.524438	1.203175	1.324917
Cl	3.285309	0.0	0.0
