18

C	-0.56316	-0.106296	-1.419314
C	0.0	0.0	0.0
Cl	-2.344479	-0.167283	-1.341322
H	1.09159	0.0	0.0
N	-0.149978	1.090524	-2.28942
O	1.043143	1.117257	-2.555902
O	-0.999265	1.88283	-2.674077
C	-0.021989	-1.349888	-2.092534
H	-0.387818	-2.221923	-1.555743
H	-0.352675	-1.382998	-3.133147
H	1.067835	-1.320321	-2.042167
N	-0.406044	-1.125937	0.770438
H	0.28849	-1.290973	1.487309
H	-1.303731	-0.963435	1.207258
N	-0.432836	1.322166	0.621694
O	-0.119434	2.344102	0.020409
O	-1.048976	1.286646	1.686304
Cl	3.245181	0.0	0.0
