17
Coordinates from ORCA-job run
  C   0.80416833954904      0.39005585317570      0.25841947192786
  C   -0.63109995714140      0.46052904984618     -0.23535576836438
  F   1.10185656706101      1.47752977233073      0.97718608048088
  H   -0.68522300336049      1.33705504673728     -0.88199962123746
  N   1.13672182916712     -0.84178685138760      1.08234018351951
  O   1.09176644140271     -1.88668862842772      0.44541763409838
  O   1.42436700381554     -0.67590189366727      2.25344388371540
  N   1.80244479950982      0.35334886630511     -0.89520530528542
  O   2.96541373365486      0.18745094471333     -0.55489062532736
  O   1.37218725165940      0.54987427135583     -2.02513215768008
  N   -1.48042649058932      0.79166663750722      0.96063087328325
  O   -2.18195532289967      1.79414367492799      0.88512626498838
  O   -1.42517536508496      0.00084563510371      1.89882985684787
  C   -1.20994052083899     -0.76676440811410     -0.91323718736268
  H   -0.61372516427438     -1.03880714644544     -1.78196233557776
  H   -1.25268768474221     -1.61005293237620     -0.22746522979871
  H   -2.22069245688807     -0.52349789158475     -1.24714601822767
