17
Coordinates from ORCA-job run
  C   0.73036643121714     -0.32495761456132      0.22254516498711
  C   -0.59762722408179      0.32587555112701     -0.09224673541531
  F   0.65316718549832     -1.62688417453548      0.43930278154246
  H   -0.42485809870585      1.37616901506502     -0.32249909760749
  N   1.66266376319159     -0.09933216915396     -0.97689449443007
  O   1.79056744481873      1.06851164120184     -1.32288966800264
  O   2.17421054960677     -1.09378196366371     -1.46569498839614
  N   1.45573374405081      0.33661753423326      1.38951033208047
  O   2.22135671681413     -0.38106831455914      2.01311334281597
  O   1.22811913997280      1.52770679418869      1.54890124553873
  N   -1.46983707841663      0.32175426235923      1.13604696119776
  O   -2.52972375915269      0.92459119509819      1.02448106156486
  O   -1.07433243067845     -0.28248183115019      2.12901113319430
  C   -1.31955797993318     -0.39182337245693     -1.21993352859921
  H   -1.50031889631897     -1.43565156943841     -0.96037521135883
  H   -2.27141023819624      0.10394968206558     -1.40478705694121
  H   -0.72851926968650     -0.35219466581969     -2.13659124217077
