17
Coordinates from ORCA-job run
  C   0.70571749355914     -0.36330267477868      0.24203083042274
  C   -0.58238555922037      0.35148243896664     -0.09821991780287
  F   0.57534254044780     -1.67294155940569      0.37119964714752
  H   -0.36524998600002      1.40948979183320     -0.23915000209280
  N   1.70645152522289     -0.09706001247353     -0.89183765217771
  O   2.20220037892710     -1.07693327125097     -1.42424928079481
  O   1.89651220222277      1.08505387040355     -1.14939567782013
  N   1.38926293300885      0.19847557140070      1.48423959434836
  O   1.19120161625569      1.38422327296280      1.70909709062634
  O   2.09872706737385     -0.58323469086391      2.09713569926148
  N   -1.52470687158757      0.28707840705274      1.07651404420243
  O   -1.19097671400357     -0.37502530332164      2.05500801507144
  O   -2.57072667681980      0.90852794809935      0.94011710753464
  C   -1.25645368551022     -0.25705807825100     -1.31598313716930
  H   -0.61460251992931     -0.16226080824422     -2.19353393508393
  H   -1.47542201490042     -1.31261101153617     -1.14982020483614
  H   -2.18489172904681      0.27709610940684     -1.51215222083727
