17
Coordinates from ORCA-job run
  C   0.80720625167249      0.37653419524552      0.26814148325997
  C   -0.62385157085260      0.47141853484179     -0.23310846833534
  F   1.11501780357352      1.45272966541717      0.99977396607146
  H   -0.66242690292738      1.35682115917616     -0.86874673229314
  N   1.11922592809492     -0.86817172689120      1.08069356154233
  O   1.06189851355323     -1.90562753995058      0.43263495226984
  O   1.40482932345220     -0.71841511244161      2.25445283934089
  N   1.81226500412800      0.33934128528733     -0.88059905403172
  O   1.39175054390640      0.56105834790470     -2.00948977418453
  O   2.97013138012298      0.14895716084911     -0.53598672239796
  N   -1.47619757582863      0.79795172360066      0.96207442587884
  O   -1.43603927137757     -0.00515332021073      1.89064198808289
  O   -2.16514254715094      1.80974111953721      0.89538911173817
  C   -1.21390581562815     -0.73928279538800     -0.93086375728846
  H   -2.21902472683727     -0.47863672014509     -1.26855681102614
  H   -1.27182746696289     -1.59082678648090     -0.25650643051638
  H   -0.61490887093833     -1.00743919035153     -1.79894457811073
