17
Coordinates from ORCA-job run
  C   -0.63026919092912     -0.50346623245924     -0.40279147861000
  C   0.78082461783813     -0.01912162820712     -0.09523155619864
  F   -0.57556965005620     -1.14243297517753     -1.61654021084310
  H   1.45408032164057     -0.86079289635554     -0.24784154013521
  N   -1.61220388680521      0.48091965517153     -0.45221471407556
  H   -1.63696976251605      0.99176488632694      0.42076253640865
  H   -2.51798260150176      0.06722949195974     -0.63760029049901
  N   -0.97639158112730     -1.68091710535573      0.56425734094938
  O   -2.16834339679809     -1.87897493845354      0.76682654417096
  O   -0.04005076429896     -2.34632394631738      0.99395331858583
  N   0.93049096447596      0.33732031697982      1.35073015295943
  O   2.05692363218550      0.24562981338819      1.82067985473898
  O   -0.06675455287866      0.74591823395424      1.94877953851556
  C   1.17749387984609      1.17656510130632     -0.94245445677748
  H   1.03841412571585      0.92969696067196     -1.99521158625677
  H   0.55859210147609      2.04245234645702     -0.70802340549207
  H   2.22771574373316      1.41453291611033     -0.76808004744095
