17
Coordinates from ORCA-job run
  C   -0.70436917733711     -0.42881634796964     -0.36392918028522
  C   0.76760556100756     -0.13621652616838     -0.10365021805960
  F   -0.76760559299190     -1.13374791040063     -1.54014202254992
  H   1.31028154201607     -1.07333033094085     -0.21483161316677
  N   -1.53700900396287      0.68212864854758     -0.45581598373481
  H   -1.46942003762372      1.23812077037531      0.38675650471110
  H   -2.49614627839987      0.39255036965184     -0.60478046650871
  N   -1.19483483814807     -1.49021534748754      0.67253951970072
  O   -0.35301197817488     -2.25092120946529      1.13815058021023
  O   -2.40033773008253     -1.51180659765781      0.89022710591775
  N   0.99838391415218      0.27694005078362      1.31630828051638
  O   0.08133308699360      0.85224879941103      1.90540029531356
  O   2.11232993911417      0.05635215390613      1.77303327134010
  C   1.31323646840641      0.93955623124248     -1.02566537276170
  H   0.82894032339014      1.89728886692432     -0.83597937104407
  H   1.11862960289779      0.65516624552770     -2.05999911718630
  H   2.38999419874304      1.03370213372012     -0.87862221241274
