17
Coordinates from ORCA-job run
  C   -0.65599862716571     -0.50008142662805      0.18874293336023
  C   0.59723455630686      0.26141511860207     -0.23700039713476
  F   -0.72995816527277     -0.62795065586817      1.53035215470502
  H   0.51912868377946      0.48058012688793     -1.30167332854152
  N   -0.75961504668158     -1.76312422436211     -0.40452890048856
  H   -0.65282767601902     -1.73503167848670     -1.40856325523561
  H   -1.60781316531136     -2.24436076374811     -0.13536001248617
  N   -1.83914357212553      0.44384339217714     -0.19773674452568
  O   -2.52981050105597      0.92223199452705      0.69052718890799
  O   -1.97086614708801      0.61028000342344     -1.40777534304610
  N   1.74941877067808     -0.69371998366654     -0.12041587230726
  O   2.10019995295746     -1.25275552974486     -1.15734131012570
  O   2.23654783930053     -0.85615949812404      0.99317507699425
  C   0.83933651797282      1.50423174206038      0.59193668953670
  H   0.02720141946734      2.21876644479253      0.44623964328788
  H   0.90750093718058      1.25095405616288      1.64771841188535
  H   1.77046422307680      1.97988088199515      0.28070306521395
