17
Coordinates from ORCA-job run
  C   -0.68990806250552     -0.42891603057077     -0.28203325336098
  C   0.78387860615119     -0.06867444186256     -0.09238300267655
  F   -0.84659987842350     -0.97593936381603     -1.52347161159238
  H   1.33349329506003     -1.00351546171891      0.02558475738416
  N   -1.56134869165650      0.65376210291523     -0.15447418392955
  H   -1.47890354532746      1.11571314003892      0.74154402241156
  H   -2.52088532673861      0.35434755199409     -0.27546617049427
  N   -1.04200093131971     -1.63726646100073      0.65177285052387
  O   -0.28407346088718     -2.59596685944631      0.60406709644828
  O   -2.06119177452456     -1.53472837583387      1.32412521202891
  N   0.89032837229591      0.62716076729834      1.23602844242779
  O   1.23648705669014      1.80499514304837      1.25506934835730
  O   0.56858571480904     -0.04136724356018      2.21847678836281
  C   1.31699278235449      0.78109814889164     -1.22183231038333
  H   2.35247207608879      1.05769664562848     -1.02234855024486
  H   0.72387100657166      1.68583886987833     -1.33856272672895
  H   1.28080276136177      0.20476186811595     -2.14609670853381
