17
Coordinates from ORCA-job run
  C   -0.63611064820631     -0.65518126979834     -0.19494814384345
  C   0.75570171452193     -0.01686473718178     -0.26617591660968
  F   -0.53756115845128     -1.99862058549157      0.09048322177929
  H   1.16459286838803     -0.30638041396419     -1.23732492845244
  N   -1.34439327436859     -0.36887023740668     -1.36916220706530
  H   -2.34053457942908     -0.50233000029037     -1.25522942352022
  H   -0.98907796722988     -0.91877905600218     -2.14042306783124
  N   -1.40825238734292     -0.08925855509043      0.99789081941275
  O   -0.87851120303292     -0.27981043103562      2.08497880687891
  O   -2.47352081755779      0.47940150593552      0.78656568180864
  N   1.71244362003294     -0.64534588062502      0.71565006448722
  O   2.17842435495050     -1.73144955732082      0.38128288373437
  O   1.97587750551590     -0.03108579381765      1.74428119845930
  C   0.70971974050040      1.48789114173536     -0.11107095337991
  H   0.41159713634937      1.76428349593898      0.89924487609085
  H   1.69693594127074      1.91214603550520     -0.29656174628722
  H   0.00266915408897      1.90125433890958     -0.83048116566189
