17
Coordinates from ORCA-job run
  C   -0.56728253919071     -0.69193831968927     -0.25288618000168
  C   0.74618860567701      0.08633323987208     -0.26038441418934
  F   -0.23910210841020     -2.02784445349709     -0.23867041017696
  H   1.23697050904352     -0.17231945784205     -1.20245874896627
  N   -1.37154961262844     -0.31877027995042     -1.34338591393160
  H   -2.26166376974657     -0.80229674416687     -1.33320457518735
  H   -0.89700077973706     -0.50303310599881     -2.21824272752981
  N   -1.40421944957384     -0.46002054928067      1.01195186295453
  O   -1.78310807935765      0.69094942695612      1.18542051291624
  O   -1.65310108277912     -1.43217654303313      1.70819336394402
  N   1.64570565763045     -0.48211069473563      0.79498642695462
  O   1.20868459800206     -0.47778754298023      1.94262866920483
  O   2.75463825248120     -0.86872639792454      0.43884678811876
  C   0.65987786202971      1.58969383860435     -0.08572472729739
  H   0.32207575342888      1.84461682339497      0.91609240860921
  H   1.64801099620844      2.02187580731930     -0.25756391056267
  H   -0.04512481307769      2.00355495295190     -0.80559842485914
