14

C	0.0	0.0	0.0
C	-0.438393	0.305759	-1.440698
F	1.377882	0.0	0.0
H	0.229211	-0.298656	-2.067411
H	-0.364398	0.749121	0.707011
C	-0.429916	-1.34438	0.416869
N	-0.665308	-2.449837	0.733298
C	-0.117929	1.708853	-1.726975
N	0.119758	2.814935	-2.040609
C	-1.894854	-0.03456	-1.756354
H	-2.617498	0.377095	-1.04805
H	-2.031186	-1.116939	-1.738299
H	-2.148578	0.328581	-2.753892
Cl	-4.801517	0.0	0.0
