14

C	0.0	0.0	0.0
C	-0.41728	0.082711	-1.480152
F	1.377941	0.0	0.0
H	0.301914	-0.566318	-1.994764
H	-0.373346	0.843165	0.584486
C	-0.426234	-1.26974	0.609845
N	-0.674144	-2.31	1.093165
C	-0.152039	1.446087	-1.951956
N	0.054423	2.521603	-2.374922
C	-1.839413	-0.380062	-1.79512
H	-1.913173	-1.456132	-1.627024
H	-2.056763	-0.180858	-2.84648
H	-2.612035	0.089693	-1.18047
Cl	-4.69405	0.0	0.0
