14

C	0.0	0.0	0.0
C	-0.507845	-0.044363	-1.440866
F	1.379037	0.0	0.0
H	-1.582407	-0.268047	-1.363045
H	-0.373868	0.899116	0.492098
C	-0.397598	-1.192051	0.772434
N	-0.542405	-2.175931	1.395747
C	0.178627	-1.101048	-2.181977
N	0.740948	-1.921581	-2.806677
C	-0.328421	1.315351	-2.116946
H	0.708817	1.654094	-2.05444
H	-0.615787	1.261249	-3.16847
H	-0.984279	2.034348	-1.621541
Cl	-3.368011	0.0	0.0
