14

C	0.0	0.0	0.0
C	-0.25486	0.035325	-1.537164
F	1.381766	0.0	0.0
H	0.55379	0.696502	-1.874285
H	-0.385027	0.87869	0.509046
C	-0.417683	-1.233128	0.674834
N	-0.47147	-2.271768	1.220329
C	-1.451287	0.638111	-2.13762
N	-2.097229	1.151942	-2.977519
C	-0.003882	-1.345192	-2.151806
H	-0.013744	-1.275074	-3.242223
H	0.972716	-1.717859	-1.833086
H	-0.776284	-2.047581	-1.836241
Cl	-3.01605	0.0	0.0
