14

C	0.0	0.0	0.0
C	-0.510815	0.057305	-1.439299
F	1.37889	0.0	0.0
H	-1.586527	-0.165477	-1.372904
H	-0.373959	0.861846	0.554745
C	-0.394382	-1.244569	0.687275
N	-0.525617	-2.272675	1.237749
C	0.168252	-0.949759	-2.252783
N	0.724401	-1.724201	-2.938784
C	-0.325129	1.458527	-2.022027
H	-0.972788	2.14721	-1.47534
H	-0.618704	1.477606	-3.073022
H	0.714682	1.785419	-1.943737
Cl	-3.367856	0.0	0.0
