14

C	0.0	0.0	0.0
C	-0.3785	0.134857	-1.49241
F	1.377962	0.0	0.0
H	0.372186	-0.485303	-1.998081
H	-0.374476	0.82347	0.610442
C	-0.433002	-1.292131	0.552966
N	-0.683498	-2.349782	0.995341
C	-0.110604	1.516543	-1.905785
N	0.110873	2.615491	-2.25508
C	-1.770775	-0.334911	-1.906953
H	-2.582139	0.147027	-1.357614
H	-1.895374	-0.156286	-2.977976
H	-1.861848	-1.407004	-1.723521
Cl	-4.536645	0.0	0.0
