14

C	0.0	0.0	0.0
C	-0.510882	0.064493	-1.438778
F	1.378709	0.0	0.0
H	-1.587307	-0.155472	-1.3723
H	-0.373868	0.859315	0.558892
C	-0.395329	-1.247845	0.680677
N	-0.527864	-2.280095	1.223118
C	0.16362	-0.942923	-2.256062
N	0.715199	-1.718247	-2.944948
C	-0.321041	1.466793	-2.016969
H	0.720696	1.788268	-1.942602
H	-0.962312	2.156772	-1.464596
H	-0.620113	1.491168	-3.066496
Cl	-3.369477	0.0	0.0
