14

C	0.0	0.0	0.0
C	-0.444424	0.079065	-1.469763
F	1.37806	0.0	0.0
H	0.22942	-0.603493	-2.00083
H	-0.363499	0.850114	0.581533
C	-0.434556	-1.261007	0.621707
N	-0.686556	-2.299762	1.106186
C	-0.144349	1.426571	-1.966178
N	0.088324	2.480718	-2.426812
C	-1.89822	-0.328463	-1.713577
H	-1.995272	-1.408479	-1.598539
H	-2.611665	0.121561	-1.019857
H	-2.200078	-0.057513	-2.724936
Cl	-4.809178	0.0	0.0
