14

C	0.0	0.0	0.0
C	-0.517687	0.17349	-1.429541
F	1.378114	0.0	0.0
H	-0.159848	-0.686609	-2.007913
H	-0.346598	0.820946	0.633899
C	-0.439788	-1.28669	0.562658
N	-0.706083	-2.340947	1.003771
C	0.102442	1.373127	-2.000232
N	0.58078	2.340923	-2.461588
C	-2.045851	0.249835	-1.467125
H	-2.517372	-0.630904	-1.026307
H	-2.428764	1.103229	-0.904671
H	-2.392331	0.339991	-2.497786
Cl	-5.013329	0.0	0.0
