15
Coordinates from ORCA-job run
  C   0.69758822290799     -0.27836073832110      0.49649830447228
  C   -0.67879271215596      0.11058361998797     -0.02483262049038
  H   0.59818808519651     -0.56296558533623      1.54737647162714
  H   -1.08417960085187      0.95486623177345      0.53689668647256
  H   1.02860823332393     -1.16893982714903     -0.05135832824739
  C   1.70285152250896      0.85587732524791      0.33790426928736
  H   2.67904490822257      0.56015942021107      0.72815424999469
  H   1.37619441654636      1.74174154789006      0.88857725155680
  H   1.81456796100055      1.13380720851505     -0.70953891919631
  N   -1.61549275228622     -1.04873321176442      0.35056796264938
  O   -1.81648133392231     -1.91036037830306     -0.50231827898918
  O   -2.05728926235592     -1.05287755504318      1.49599809162856
  N   -0.66855992072590      0.39422381941996     -1.41451880212863
  H   -1.57606672471296      0.70076728094279     -1.73940200768273
  H   -0.40018104269571     -0.42778915807125     -1.94100433095416
