15
Coordinates from ORCA-job run
  C   0.33515611564243      0.77252683674525      0.68434901131624
  C   -0.89647230057032      0.24296258552455     -0.04032105261003
  H   0.35440675852747      1.85200885537822      0.51283396428698
  H   -1.80094820958467      0.68786526416597      0.37937100403226
  H   0.19499484273791      0.60824801219910      1.75526642983701
  C   1.64343885977063      0.14203077478800      0.21642959197361
  H   2.47704639168879      0.53711863637231      0.80010918379403
  H   1.64026651557326     -0.94322075124271      0.33933633753453
  H   1.84897794560105      0.37012859929298     -0.83165626211974
  N   -1.02178300576638     -1.24198305859398      0.35359639420433
  O   -0.72877740094264     -2.08673261218355     -0.48993540106323
  O   -1.36930718124469     -1.47221876472964      1.50816118503825
  N   -0.85328888173060      0.44927631676065     -1.44275412581865
  H   -0.10380367555734     -0.08266500586481     -1.86425579732244
  H   -1.71990677414490      0.16565431138766     -1.88053046308316
