15
Coordinates from ORCA-job run
  C   0.28225880854748      0.75130660489945      0.62281789660154
  C   -0.95177915345546      0.12190458060875     -0.03466871229939
  H   0.27091697684169      1.81388896333340      0.35620106662969
  H   -1.85536773695377      0.55140839860358      0.40152553609347
  H   0.15453611560624      0.69275439522415      1.70811304253422
  C   1.60846238146173      0.11983353958343      0.21336534783769
  H   2.43801603536163      0.66402681597665      0.66890569337640
  H   1.75671945142945      0.14822149687127     -0.86849220922031
  H   1.67708410255383     -0.92061700255785      0.53502814800532
  N   -0.96921930524023     -1.32290401154820      0.39642487117342
  O   -0.50240602125144     -2.15108822945711     -0.37998407104469
  O   -1.37686537497199     -1.54988023514652      1.53282293408752
  N   -1.06571915027707      0.16184870031752     -1.46575407779546
  H   -0.23315218656325     -0.19518736362874     -1.91423777655652
  H   -1.23448494308884      1.11148334692021     -1.77006768942291
