15
Coordinates from ORCA-job run
  C   0.70190910247441     -0.27978982504179      0.48954463329554
  C   -0.67893078783408      0.10805317585828     -0.02096685044874
  H   1.03355096741378     -1.16385293845291     -0.06837814713580
  H   -1.08342697218620      0.94764694146707      0.54839324001762
  H   0.60953151881119     -0.57413610053928      1.53838450875160
  C   1.70148782981466      0.86008703890484      0.33572376176604
  H   1.37704381619854      1.73765861752524      0.90080066853750
  H   2.68254152867908      0.56324550714210      0.71273732037608
  H   1.80213962363461      1.15133519374654     -0.70923647279681
  N   -1.60997126629164     -1.05626379618984      0.35293774104049
  O   -1.81149464175170     -1.91445741535862     -0.50333463916722
  O   -2.04665990127991     -1.06739730491853      1.50029511695717
  N   -0.67759045668604      0.40034970874805     -1.40889209428733
  H   -1.58782231334690      0.70620138477862     -1.72685147747182
  H   -0.41030804764981     -0.41768018766978     -1.94215730943432
