18
Coordinates from ORCA-job run
  C   0.79979602261722     -0.34303865537557     -0.12080245976806
  C   -0.58698060365614      0.25455678848345     -0.04831699898897
  H   1.43946499020578     -0.08367989219156      0.72173555807067
  H   -1.08710526671423      0.00436786695558     -0.98821334682047
  N   1.55654791906087      0.05447848704435     -1.36028678535760
  O   2.78146499221817      0.01679149081393     -1.25927536445982
  O   0.91460324388957      0.34967368240865     -2.36220516985162
  N   0.72635126867145     -1.84174358711599     -0.14971323065167
  O   1.11363124660927     -2.42632091292391      0.85750663691763
  O   0.23621950756929     -2.34703570727746     -1.15447480586360
  C   -0.47881064213327      1.77190032311994      0.08897553743660
  H   0.04816316431544      2.04329933544215      1.00876701318350
  H   0.03936299579708      2.22220379649661     -0.75911985986387
  H   -1.47757854476999      2.21091656314210      0.13604291730989
  C   -1.35322988352141     -0.35960935130816      1.12286541222174
  H   -1.53355455252482     -1.42698903569383      0.98081428500994
  H   -0.81352825054241     -0.22676763382520      2.06499281968288
  H   -2.32481760709186      0.12899644180491      1.21970784179284
