18
Coordinates from ORCA-job run
  C   0.78685613001838     -0.39054563305796     -0.02742756726748
  C   -0.61413890979475      0.17675502114048     -0.05354852385777
  H   1.35266647917412     -0.13582894791160      0.86772900354975
  H   -1.10197470656339     -0.22880951389918     -0.94439581032583
  N   1.58406279502189      0.12307061716080     -1.19081824840019
  O   1.23484268203142     -0.25577762727428     -2.30419691830741
  O   2.48037515829663      0.91942269237981     -0.92891123977658
  N   0.82473918716500     -1.89159360644644     -0.13499451364504
  O   -0.10278995514561     -2.45611160033313     -0.70438705641706
  O   1.82315314367219     -2.42510247817639      0.34531621902145
  C   -0.55209275782667      1.70099836586732     -0.14896509761406
  H   -1.56177485617424      2.11209850411115     -0.08851365432264
  H   0.03518685564686      2.12738929319451      0.66947349738270
  H   -0.11567583891759      2.03620350043506     -1.09193709300999
  C   -1.36772172040178     -0.27399567517469      1.19611158646784
  H   -1.44100109610372     -1.36085926448999      1.25890052526801
  H   -2.38432096375412      0.12438830607119      1.17817010340945
  H   -0.87939162634464      0.09929804640336      2.10139478784483
