15

C	-0.068104	0.02444	-0.011442
C	-0.439019	0.08054	-1.49918
F	1.326161	-0.135393	0.057003
H	-1.528671	0.202896	-1.503289
H	-0.529733	-0.867718	0.412066
N	-0.457428	1.142447	0.776526
H	-0.315206	2.0059	0.264143
H	-1.453794	1.027271	0.954803
C	-0.067747	-1.205097	-2.237959
H	-0.598405	-2.037868	-1.771342
H	1.006877	-1.385662	-2.181487
H	-0.365821	-1.155482	-3.287536
C	0.180879	1.248615	-2.125138
N	0.68551	2.185689	-2.622659
Cl	-3.397741	-0.36728	0.172936
