15

C	-0.058225	0.039958	-0.011502
C	-0.438079	0.226891	-1.486389
F	1.340394	-0.085325	0.038084
H	-1.530653	0.318661	-1.476256
H	-0.492104	-0.901601	0.325632
N	-0.475697	1.065638	0.880312
H	-1.46702	0.903827	1.050272
H	-0.362626	1.978205	0.452884
C	-0.034694	-0.971744	-2.344882
H	1.044758	-1.126695	-2.307622
H	-0.338576	-0.831034	-3.384482
H	-0.539917	-1.859633	-1.958562
C	0.1459	1.466305	-1.99952
N	0.620631	2.460404	-2.40778
Cl	-3.374377	-0.462858	0.145024
