12

C	0.0	0.0	0.0
C	-0.435783	0.070661	-1.483144
Cl	1.776507	0.0	0.0
H	0.212578	-0.614361	-2.043745
H	-0.367253	0.856887	0.552921
C	-0.44108	-1.240832	0.636105
N	-0.577263	-2.276784	1.17346
C	-0.165518	1.420203	-1.990634
N	0.067994	2.496194	-2.400057
C	-1.844501	-0.297732	-1.793871
N	-2.589003	-0.60392	-2.663773
F	-2.394345	0.0	0.0
