12

C	0.0	0.0	0.0
C	-0.44758	0.160933	-1.471405
Cl	1.776354	0.0	0.0
H	0.217484	-0.460223	-2.084378
H	-0.362624	0.821663	0.607328
C	-0.44134	-1.276098	0.561512
N	-0.565502	-2.344045	1.034706
C	-0.22482	1.55146	-1.8814
N	-0.02894	2.659163	-2.217759
C	-1.844715	-0.245283	-1.791283
N	-2.569403	-0.59741	-2.661453
F	-2.400469	0.0	0.0
