17

C	0.0	0.0	0.0
C	-0.285956	-0.156916	-1.55487
Br	1.97207	0.0	0.0
H	0.598599	0.226941	-2.062395
C	-0.576882	1.257635	0.481405
N	-0.581235	2.371812	0.894953
N	-0.299751	-1.201608	0.767096
H	0.130982	-1.09661	1.682005
H	-1.319853	-1.155502	0.852886
C	-1.486999	0.482967	-2.227675
H	-2.401705	-0.055127	-2.011492
H	-1.285041	0.50259	-3.309517
H	-1.60085	1.506115	-1.867196
N	-0.254049	-1.623528	-1.890529
O	0.834414	-2.096845	-2.219217
O	-1.302057	-2.259116	-1.837889
H	-2.251012	0.0	0.0
