17

C	-0.341813	-0.049856	-1.506203
C	0.0	0.0	0.0
Br	0.02112	-1.988316	-2.095135
H	1.096225	0.0	0.0
C	-1.774263	0.233784	-1.905684
H	-1.859419	0.178142	-2.99395
H	-2.45815	-0.481802	-1.455395
H	-2.030431	1.246448	-1.580017
N	0.554127	0.858924	-2.089916
H	1.520537	0.692212	-1.802389
H	0.473918	0.885552	-3.096848
N	-0.551184	-1.140093	0.802016
O	-1.758184	-1.352691	0.69282
O	0.217716	-1.743257	1.540156
C	-0.519005	1.230155	0.582453
N	-0.954727	2.217409	1.046823
Cl	3.235215	0.0	0.0
