17

C	-0.301536	-0.063197	-1.50534
C	0.0	0.0	0.0
Br	-2.280201	-0.235086	-1.798799
H	1.094813	0.0	0.0
C	0.126365	1.253848	-2.14121
H	-0.436393	2.105562	-1.757392
H	1.19325	1.387584	-1.93185
H	-0.026525	1.194247	-3.221993
N	0.338308	-1.220192	-2.047925
H	1.24538	-1.351587	-1.603679
H	0.467585	-1.102301	-3.045163
N	-0.462881	-1.224431	0.730034
O	-1.463947	-1.127647	1.439255
O	0.198153	-2.241737	0.555802
C	-0.535146	1.188025	0.639571
N	-0.921977	2.174048	1.147094
Cl	3.19429	0.0	0.0
