17

C	-0.472872	-0.18154	-1.453867
C	0.0	0.0	0.0
Br	-0.045221	1.529111	-2.345742
H	1.089996	0.0	0.0
C	0.351039	-1.246758	-2.16978
H	0.108176	-1.2396	-3.235135
H	0.107193	-2.226644	-1.756348
H	1.417518	-1.055233	-2.032408
N	-1.91444	-0.317268	-1.515808
H	-2.148136	-1.231295	-1.141958
H	-2.208698	-0.281672	-2.485403
N	-0.368203	-1.173437	0.890858
O	-0.880841	-2.175246	0.387505
O	-0.093529	-1.048515	2.075705
C	-0.544515	1.185439	0.648632
N	-0.987686	2.127244	1.192637
Cl	3.199067	0.0	0.0
