17

C	-0.374656	-0.143624	-1.508307
C	0.0	0.0	0.0
Br	0.002244	-2.013641	-2.005798
H	1.106636	0.0	0.0
C	-1.825075	0.145665	-1.843235
H	-2.061071	1.182252	-1.582978
H	-1.964956	0.006725	-2.914715
H	-2.495969	-0.512421	-1.292596
N	0.496617	0.692721	-2.293942
H	0.238583	1.665333	-2.149344
H	1.464401	0.568794	-1.990288
N	-0.558504	-1.079185	0.874603
O	0.228766	-1.866154	1.385726
O	-1.786704	-1.104693	0.997947
C	-0.496845	1.277688	0.489848
N	-0.905116	2.323745	0.836583
Cl	3.236479	0.0	0.0
