17

C	-0.476679	0.031342	-1.467582
C	0.0	0.0	0.0
Br	0.111371	1.86147	-2.144408
H	1.106334	0.0	0.0
C	0.258531	-0.972037	-2.335976
H	1.333492	-0.890291	-2.164109
H	0.036903	-0.777412	-3.38767
H	-0.073132	-1.979106	-2.07866
N	-1.882083	-0.13316	-1.536924
H	-2.371869	0.570129	-0.993832
H	-2.203159	-0.096849	-2.496238
N	-0.467384	-1.304499	0.601831
O	-1.461102	-1.287926	1.328362
O	0.166507	-2.304665	0.285303
C	-0.565565	1.091807	0.780103
N	-1.057836	1.984872	1.363752
Cl	3.213072	0.0	0.0
