17

C	-0.489047	0.175062	-1.455143
C	0.0	0.0	0.0
Cl	0.17447	-1.145454	-2.440472
H	1.09783	0.0	0.0
C	-1.994944	0.225761	-1.617602
H	-2.394944	1.086852	-1.076744
H	-2.247738	0.309198	-2.673407
H	-2.446088	-0.684809	-1.220302
N	0.053111	1.479762	-2.047929
O	0.73092	2.195705	-1.322467
O	-0.271559	1.72249	-3.206974
N	-0.364325	-1.275009	0.603082
H	-1.25918	-1.623117	0.286989
H	0.360556	-1.944578	0.382452
C	-0.555082	1.082768	0.819344
N	-1.083297	1.908081	1.467564
Cl	3.278369	0.0	0.0
