17

C	-0.399886	-0.0528	-1.476556
C	0.0	0.0	0.0
Cl	-0.257565	1.554355	-2.231118
H	1.100695	0.0	0.0
C	0.443394	-1.053659	-2.225498
H	0.181157	-1.063669	-3.281645
H	1.49042	-0.776499	-2.084967
H	0.278604	-2.040197	-1.791497
N	-1.879707	-0.420569	-1.589478
O	-2.243292	-1.011192	-2.601401
O	-2.616423	-0.074686	-0.669288
N	-0.399846	-1.258272	0.624903
H	-1.275087	-1.152206	1.120612
H	0.326543	-1.536938	1.272882
C	-0.478066	1.186153	0.716391
N	-0.849073	2.088022	1.372141
Cl	3.286201	0.0	0.0
