17

C	-0.475493	0.255633	-1.437026
C	0.0	0.0	0.0
Cl	-2.228204	0.600924	-1.473074
H	1.105641	0.0	0.0
C	0.301625	1.375028	-2.090801
H	1.367536	1.159657	-1.993398
H	0.021509	1.471791	-3.142181
H	0.076375	2.31139	-1.577167
N	-0.238114	-1.048276	-2.205307
O	0.928953	-1.236844	-2.525466
O	-1.175786	-1.804318	-2.415441
N	-0.445143	-1.286419	0.492966
H	0.223351	-1.622447	1.174092
H	-1.364021	-1.233508	0.913198
C	-0.405858	1.139579	0.839133
N	-0.750833	2.014027	1.544872
Cl	3.270526	0.0	0.0
