17

C	-0.481055	0.046795	-1.455637
C	0.0	0.0	0.0
Cl	-2.230152	0.386778	-1.532278
H	1.093781	0.0	0.0
C	0.29754	1.053983	-2.272438
H	0.080293	2.057512	-1.901001
H	0.010084	0.996501	-3.324456
H	1.36358	0.848504	-2.150063
N	-0.240385	-1.353599	-2.025768
O	0.941354	-1.619853	-2.200741
O	-1.188488	-2.092951	-2.246803
N	-0.448458	-1.207522	0.666709
H	-1.339457	-1.07806	1.125528
H	0.249331	-1.478231	1.346593
C	-0.404973	1.240873	0.678628
N	-0.742361	2.19954	1.269156
Cl	3.282365	0.0	0.0
