17

C	-0.317742	0.094261	-1.504748
C	0.0	0.0	0.0
Cl	0.030013	1.735283	-2.096113
H	1.093824	0.0	0.0
C	0.487176	-0.911592	-2.296376
H	0.324831	-0.772721	-3.363442
H	0.184424	-1.923999	-2.01983
H	1.540282	-0.767745	-2.040821
N	-1.805843	-0.131891	-1.783854
O	-2.579798	-0.093622	-0.828329
O	-2.132236	-0.342292	-2.947748
N	-0.371956	-1.249455	0.633062
H	0.339083	-1.947776	0.474602
H	-1.292522	-1.573512	0.379348
C	-0.524584	1.13629	0.762493
N	-0.943441	2.027099	1.402407
Cl	3.290747	0.0	0.0
