17

C	-0.542258	0.040585	-1.437411
C	0.0	0.0	0.0
Cl	0.132161	-1.34594	-2.318936
H	1.100396	0.0	0.0
C	-2.051978	0.020631	-1.522167
H	-2.366106	-0.042571	-2.563126
H	-2.456565	0.933342	-1.075608
H	-2.405847	-0.84369	-0.96179
N	-0.060873	1.297608	-2.156785
O	-0.390069	1.409536	-3.334129
O	0.568341	2.121442	-1.502927
N	-0.476105	-1.259114	0.62137
H	-0.571759	-1.101549	1.618409
H	0.285239	-1.922869	0.51439
C	-0.528577	1.124546	0.768678
N	-1.018199	1.962112	1.431335
Cl	3.287003	0.0	0.0
