17

C	-0.4835	0.070464	-1.454013
C	0.0	0.0	0.0
Cl	-2.239081	0.375817	-1.516074
H	1.093153	0.0	0.0
C	0.271429	1.110479	-2.250432
H	0.034179	2.101041	-1.858723
H	-0.016165	1.068735	-3.302998
H	1.341001	0.923974	-2.134807
N	-0.214689	-1.312451	-2.053169
O	0.973174	-1.55402	-2.218943
O	-1.147601	-2.060722	-2.306485
N	-0.44781	-1.221077	0.641623
H	-1.344067	-1.104678	1.094818
H	0.245686	-1.50155	1.322302
C	-0.407487	1.228762	0.699222
N	-0.726252	2.189689	1.296379
Cl	3.281007	0.0	0.0
