15

C	-0.431013	0.085703	-1.453735
C	0.0	0.0	0.0
Cl	-2.199489	0.260276	-1.659487
H	1.094018	0.0	0.0
C	0.214848	1.217716	-2.110529
N	0.666357	2.142722	-2.676682
N	0.015781	-1.201965	-2.169908
O	1.114383	-1.157178	-2.7071
O	-0.729703	-2.169493	-2.090518
C	-0.546484	-1.169866	0.663748
N	-1.001338	-2.063451	1.280502
N	-0.337311	1.258895	0.651556
H	0.470387	1.529043	1.199388
H	-1.152074	1.183391	1.245363
F	2.479442	0.0	0.0
