15

C	-0.431049	0.076626	-1.455169
C	0.0	0.0	0.0
Cl	-2.202445	0.230012	-1.663557
H	1.094077	0.0	0.0
C	0.202989	1.216634	-2.11041
N	0.648468	2.149683	-2.667047
N	0.031066	-1.205823	-2.167967
O	1.119077	-1.145888	-2.721689
O	-0.692632	-2.186513	-2.070637
C	-0.543446	-1.16669	0.671763
N	-0.997475	-2.056649	1.29466
N	-0.339503	1.260797	0.64516
H	-1.143461	1.183573	1.252124
H	0.472545	1.543724	1.17922
F	2.478238	0.0	0.0
