15

C	-0.555139	0.009423	-1.422382
C	0.0	0.0	0.0
Cl	0.08445	-1.346472	-2.363254
H	1.093396	0.0	0.0
C	-2.016374	-0.028143	-1.454587
N	-3.18876	-0.103373	-1.402832
N	-0.100866	1.319996	-2.084741
O	-0.980678	2.123551	-2.365983
O	1.097051	1.450387	-2.2577
C	-0.481728	-1.183619	0.696496
N	-0.882648	-2.108711	1.303856
N	-0.371385	1.256293	0.636426
H	-1.154174	1.170842	1.269251
H	0.44632	1.582747	1.135738
F	2.491812	0.0	0.0
