12
Coordinates from ORCA-job run
  C   0.97301283467390      0.30624592532813      0.11656724463872
  C   -0.52703003006021      0.00007990557274      0.18556363037119
  Cl  1.77998636044027     -0.82610111080499     -0.98696021634369
  H   -0.99173989614353      0.68041533770866      0.90746226859941
  H   1.39173624159823      0.14830444379406      1.11246286793023
  C   1.17684182523211      1.68808401911967     -0.30015192705512
  N   1.32313332706179      2.81090576064747     -0.61299822430152
  N   -0.70047385423528     -1.38833596224497      0.78778472234209
  O   -1.40993327422795     -2.18801614638495      0.19745860180002
  O   -0.11046385499187     -1.55560651708186      1.84768178060471
  C   -1.18758493446695      0.09879622040044     -1.10630982437656
  N   -1.71548474488050      0.22522812394559     -2.14756092420946
