12
Coordinates from ORCA-job run
  C   0.69888957991674      0.80781359070751      0.28579356195439
  C   -0.61417113108422      0.02004121502348      0.39731923072883
  Cl  1.75555423816527      0.39017740399265      1.65317728142016
  H   -1.07838461162195      0.23417217421927      1.36189036557395
  H   0.44701519392020      1.86680929810427      0.38860052989717
  C   1.38614643103781      0.61626920816810     -0.98651758537630
  N   1.95635797543726      0.53234191470019     -2.01003996323074
  N   -0.33825689495220     -1.46960843084893      0.39634094944836
  O   -0.60644325808049     -2.06570404440000      1.43192738923014
  O   0.13783562359830     -1.92991541926808     -0.63296170097346
  C   -1.50993653759066      0.34765901868638     -0.70393751527108
  N   -2.23160660874607      0.64894407091517     -1.58059254340143
