12
Coordinates from ORCA-job run
  C   0.59944200319469      0.86767561505658     -0.07910369663329
  C   -0.46211146101420     -0.13171734814063      0.40412755894883
  Cl  0.54970920659678      2.31031865784609      0.95613241474741
  H   -0.26072552490867     -0.44243114551321      1.43090004883344
  H   0.36292966734538      1.17487789335687     -1.09914923282731
  C   1.91975746378180      0.24767856121426     -0.04339449714708
  N   2.97172143740632     -0.27439272250594     -0.01702616661592
  N   -0.35423365444839     -1.37618842178491     -0.45699798010960
  O   -0.19439438701821     -2.43745260987656      0.13033504527248
  O   -0.42670417432912     -1.19055786536827     -1.66616633235707
  C   -1.80827352856041      0.41030798580856      0.27194343553845
  N   -2.89511704804596      0.84288139990716      0.16739940234966
