12
Coordinates from ORCA-job run
  C   0.61241296745637      0.80879121986855     -0.29445600235425
  C   -0.45617191685590     -0.02290077027908      0.43041881654693
  Cl  0.60341530555719      2.46008836378187      0.36077092797994
  H   -0.24168092152666     -0.08118662654704      1.49910518137787
  H   0.36236912902845      0.86467656423910     -1.35512337010346
  C   1.92349593514275      0.19170003472859     -0.12566863882455
  N   2.96821680573147     -0.32593898769296      0.01705141987318
  N   -0.38709338300179     -1.43944852728143     -0.10722639960535
  O   -0.48147924706725     -1.54862732925813     -1.32417985153607
  O   -0.23428283024329     -2.33190026480981      0.71567229423489
  C   -1.79472782260284      0.50082448261443      0.18966771244475
  N   -2.87247402161851      0.92392184063592     -0.00703209003387
