12
Coordinates from ORCA-job run
  C   0.60343004245170      0.86336306989903     -0.08555741868686
  C   -0.47007809064084     -0.12349691668108      0.39695143256010
  Cl  0.53476618894800      2.32896821668719      0.91595498303355
  H   -0.28929724066853     -0.41500671548413      1.43313839033297
  H   0.38915703706480      1.14806318412205     -1.11693979423180
  C   1.92117605982238      0.24216257314182     -0.00579951675917
  N   2.97076237719529     -0.28124276141587      0.06030638904952
  N   -0.35068809581399     -1.38449561525683     -0.43801396956629
  O   -0.20356651251291     -2.43472728385516      0.17215367989704
  O   -0.40312076754663     -1.22223340807606     -1.65164633977974
  C   -1.81160685421329      0.42012354558226      0.22856053453915
  N   -2.89293414408598      0.85752211133678      0.09189162961154
