12
Coordinates from ORCA-job run
  C   0.61532067124499      0.85833979356452     -0.04623045316750
  C   -0.49832825930598     -0.11682721657631      0.36312957319480
  Cl  0.48851352357787      2.32968221370812      0.94136538603986
  H   -0.39517883118811     -0.40315225701425      1.41133390428286
  H   0.47741317622048      1.14003003650462     -1.09142747862823
  C   1.91889668663328      0.22676948143605      0.12856108013102
  N   2.95707112625565     -0.30473344263528      0.26840123543934
  N   -0.32909164138285     -1.38388397940940     -0.45389645166944
  O   -0.29490374054340     -1.22892014850343     -1.66907219895423
  O   -0.23253897752601     -2.43109769634955      0.17136854528966
  C   -1.81983522282736      0.43579862462841      0.09538749406762
  N   -2.88633851115856      0.87799459064651     -0.11992063602576
