12
Coordinates from ORCA-job run
  C   0.61882907081625      0.83760559305538     -0.18270398774655
  C   -0.46787479748815     -0.07083011615055      0.41098063882568
  Cl  0.58762011174272      2.40281092866326      0.65696951386580
  H   -0.28218532940040     -0.25344224803483      1.47098093095734
  H   0.39995811345136      1.01501475294696     -1.23693913262974
  C   1.92544133497929      0.20261724855243     -0.04770418814656
  N   2.96518276113506     -0.33252894803803      0.06469237845124
  N   -0.38021513957119     -1.41588126672343     -0.28522388906004
  O   -0.24549575835812     -2.39754755940160      0.43242833597550
  O   -0.44383581996267     -1.38321444652406     -1.50867534956575
  C   -1.80114080068306      0.47751685114304      0.19790088765049
  N   -2.87628374666109      0.91887921051141      0.02929386142260
