12
Coordinates from ORCA-job run
  C   0.62416146612094      0.82031615492888     -0.23233050533575
  C   -0.47758358487844     -0.03931061671311      0.40497793496608
  Cl  0.57796512530727      2.44512385212968      0.48541869019529
  H   -0.31569093694760     -0.13918711451339      1.47978053644383
  H   0.42867186604386      0.91778887532738     -1.30150093921079
  C   1.92630200560429      0.19723246204691     -0.02054919818003
  N   2.96348100088844     -0.32566378732358      0.15506103459101
  N   -0.37695844869640     -1.43395881671859     -0.18307785766829
  O   -0.41224467803642     -1.49579231353913     -1.40656185607165
  O   -0.26003474995261     -2.35726136169788      0.61117315291401
  C   -1.80418804459449      0.49172390191515      0.11931919121130
  N   -2.87388102085883      0.91898876415769     -0.10971018385501
