12
Coordinates from ORCA-job run
  C   0.96685994788038      0.34589568522451      0.01348871878596
  C   -0.47349082086945     -0.10571316290716      0.27823882631178
  Cl  1.54814054844847     -0.32894552017953     -1.52215911528913
  H   -0.78923576531629      0.27897089569269      1.25412733412663
  H   1.59577310061049     -0.05898006161164      0.80888464797659
  C   1.03517683595389      1.80204602512719      0.01060395309940
  N   1.07412692674197      2.97582072447173      0.03212641435623
  N   -0.47394372210079     -1.62043030438815      0.43587894793828
  O   0.33233965954411     -2.04213841960762      1.25535736390449
  O   -1.26729402834191     -2.26903775547204     -0.22847286421557
  C   -1.40122495271457      0.31622713122576     -0.75920558019211
  N   -2.14522772983629      0.70628476242427     -1.57986864680253
