12
Coordinates from ORCA-job run
  C   0.87794115467675      0.47790011725150      0.23666111693244
  C   -0.54773930097832     -0.06372193145816      0.08660819377188
  Cl  2.04038432886901     -0.64302372981904     -0.50092035692727
  H   -1.23865707148965      0.61985302632723      0.59211239073055
  H   1.10514877297338      0.53091704207548      1.30329102898534
  C   0.96716912438542      1.80370093818729     -0.36251569870542
  N   1.01280098367863      2.88098755472791     -0.82865488032899
  N   -0.64577165909606     -1.36698882078777      0.86872558595262
  O   -0.26482984406605     -1.28815560244006      2.02986247948581
  O   -1.10422146816831     -2.34651037540142      0.30146159948814
  C   -0.94122456211149     -0.25181614086225     -1.30070722859509
  N   -1.26100045867331     -0.35514207780070     -2.42592423079001
