12
Coordinates from ORCA-job run
  C   0.63963784577566      0.82923257015766     -0.13967891572308
  C   -0.49597153660791     -0.06456033443622      0.38055076640835
  Cl  0.57434428825973      2.39435605698529      0.69827079916513
  H   -0.38398336142530     -0.24852129245721      1.45056315050202
  H   0.49195381796546      1.01003798525996     -1.20567783331920
  C   1.92625464001090      0.17697400491799      0.07901679851491
  N   2.95039249938456     -0.36979201218748      0.25827467033563
  N   -0.37893271490836     -1.41146241080986     -0.30807675805389
  O   -0.36159248420263     -1.37935273045261     -1.53302712291570
  O   -0.30235747525168     -2.39369791183962      0.41738322958589
  C   -1.80392638686458      0.50090271474867      0.07582031050552
  N   -2.85781913213584      0.95588336011343     -0.17241909500560
