12
Coordinates from ORCA-job run
  C   0.62331798298636      0.80294002035618     -0.28888866748749
  C   -0.46401810650774     -0.01726937142273      0.42101978713321
  Cl  0.61006160352212      2.45992725349593      0.35165885994746
  H   -0.26819700450140     -0.07234837749772      1.49337027461955
  H   0.39569918670404      0.85061362686876     -1.35503432780203
  C   1.92704798070996      0.17969976235474     -0.08738389572393
  N   2.96522924308098     -0.34300445746200      0.08275161863475
  N   -0.39454473606688     -1.43754477420912     -0.10796497112086
  O   -0.26604182391839     -2.32656485241428      0.72264911635123
  O   -0.46577912290712     -1.55242906471795     -1.32599873715028
  C   -1.79473686753974      0.51347569017640      0.15459576249645
  N   -2.86703833556219      0.94150454447179     -0.06077481989805
