12
Coordinates from ORCA-job run
  C   0.68920150736025      0.80096161024037     -0.02276560613380
  C   -0.55062561475767     -0.04751697177875      0.29673562377315
  Cl  0.56018527691861      2.35655743283227      0.82573136528135
  H   -0.61337200914216     -0.25222968491041      1.36701481422777
  H   0.71797234842024      1.00200847907546     -1.09491327551590
  C   1.89653520558743      0.08874232516619      0.38161532317446
  N   2.85420520645849     -0.50676411869809      0.71065140380035
  N   -0.38628572079754     -1.38817858113781     -0.39427707469040
  O   -0.46754132471820     -2.38350193102253      0.31263286213332
  O   -0.17546902081793     -1.33926633548933     -1.60055217667745
  C   -1.77051214025885      0.58155053197467     -0.19266751511691
  N   -2.75329371425266      1.08763724374798     -0.58920574425594
