12
Coordinates from ORCA-job run
  C   0.67692135838657      0.83850295622110      0.25023461692981
  C   -0.61370722965430      0.01977873781267      0.39813008316057
  Cl  1.74771940374429      0.50615873185947      1.63006289120724
  H   -1.08122632546838      0.25985354625847      1.35483596060950
  H   0.39613413142181      1.89362129031858      0.31072216873436
  C   1.36585081824043      0.61292458992089     -1.01583349519512
  N   1.93440506796611      0.50095809658092     -2.03757536197722
  N   -0.29616800434889     -1.46041059179766      0.45715144176009
  O   0.18596761270152     -1.95021651156827     -0.55566106516901
  O   -0.54126116741025     -2.01987032552904      1.51852354462568
  C   -1.52062378216079      0.27689315476771     -0.71268149051822
  N   -2.25301188341813      0.52180632515515     -1.59790929416768
