12
Coordinates from ORCA-job run
  C   0.64981034573628      0.80200235271538     -0.08456384634605
  C   -0.49061423223976     -0.15834464435703      0.31530815058236
  Cl  0.40329855717082      2.36690416190935      0.73229959604389
  H   -0.34344864411084     -0.49191708970443      1.34719892506555
  H   0.59847604495123      0.98720551284041     -1.16070971981789
  C   1.96807447385097      0.29017487540660      0.27338812748466
  N   3.04712132294738     -0.05376853957511      0.58444809342194
  N   -0.41717058865268     -1.41862166141625     -0.54465376452824
  O   -1.43350815270996     -1.77374515813642     -1.12424810304911
  O   0.67431151377136     -1.97296605858068     -0.55679615396768
  C   -1.80081804812056      0.45834414565699      0.16046065590171
  N   -2.85453259259423      0.96673210324122      0.05886803920887
