12
Coordinates from ORCA-job run
  C   0.64220175030134      0.81442945372706     -0.20127150961624
  C   -0.48311191188848     -0.04139032084590      0.39902494243584
  Cl  0.61919905620071      2.41883004828109      0.56130422823416
  H   -0.33621352247153     -0.17542097302804      1.47223827499343
  H   0.46056391882712      0.94514465677227     -1.26932396959660
  C   1.92970777231712      0.16009051421005      0.00560320915176
  N   2.95437109890333     -0.38887356271828      0.17468662641710
  N   -0.40196193048175     -1.42060807621872     -0.22769144773265
  O   -0.42282429555013     -1.44714678186896     -1.45277926096299
  O   -0.31222513277801     -2.36818147038809      0.54112310993820
  C   -1.79560385467097      0.52347511482046      0.11303783759026
  N   -2.85310294870875      0.97965139725707     -0.11695204085228
