12
Coordinates from ORCA-job run
  C   0.71162536054510      0.80649794256514      0.26109541248368
  C   -0.60120517447173      0.02546597008383      0.41821529473335
  Cl  1.81364421491530      0.38635393508293      1.59141145877089
  H   -1.02910632689576      0.23950208258845      1.39932591784367
  H   0.46807462720556      1.86698197487511      0.37094380682151
  C   1.35401662688354      0.60714634794820     -1.03365061171306
  N   1.90795595345734      0.49591791921325     -2.06343351567249
  N   -0.33431089545308     -1.46570399792055      0.40220492323577
  O   0.08278971245070     -1.92851580455853     -0.65146631997901
  O   -0.55005658432384     -2.06082759794208      1.45050211744716
  C   -1.53415262870170      0.36195951307484     -0.64905497499149
  N   -2.29027488561142      0.66622171498942     -1.49509350897999
