12
Coordinates from ORCA-job run
  C   1.00348931954744      0.21826396029243     -0.00598503348398
  C   -0.47987358693104     -0.03509814257630      0.28345848549413
  Cl  1.47342389481555     -0.56575652023136     -1.52808313549904
  H   -0.73223662113219      0.41728943278855      1.24877045761480
  H   1.58453648596422     -0.24502392016237      0.79394369313929
  C   1.26051688237003      1.65237698182975     -0.04783765549618
  N   1.45279978073753      2.81118839441785     -0.05392653534362
  N   -0.67527714672386     -1.53134329596021      0.48948240768089
  O   -1.55965704664416     -2.08917155349447     -0.14151746945580
  O   0.08336192120103     -2.03062055081876      1.31085773707952
  C   -1.35695558685901      0.47149720746873     -0.76022336076384
  N   -2.05412829634555      0.92739800644615     -1.58793959096618
