12
Coordinates from ORCA-job run
  C   0.69045473954750      0.83828188236996      0.21099044742183
  C   -0.59391340022997      0.02478127476236      0.42694679648838
  Cl  1.82472213969549      0.51656081787763      1.54177288934194
  H   -1.01504551688028      0.27405560757757      1.40263474346690
  H   0.41499613622828      1.89471777728393      0.27413188164910
  C   1.31811655121521      0.59842308379508     -1.08388142846061
  N   1.83698546346372      0.47316764016076     -2.13018681149269
  N   -0.27851619550271     -1.45582168486138      0.48233170494821
  O   -0.46704469212071     -2.00471650258078      1.56071128471911
  O   0.14550014637039     -1.95699324067572     -0.55084172379606
  C   -1.55147261783479      0.27680229463316     -0.64170975097232
  N   -2.32378275395210      0.51974104965743     -1.49290003331377
