12
Coordinates from ORCA-job run
  C   0.65178183224411      0.85014383090218      0.27746320984868
  C   -0.61241400591725     -0.01254621525152      0.39950367373453
  Cl  1.73456055167788      0.50868936782892      1.64588626863305
  H   -1.08527470272791      0.18118826041139      1.36404917338238
  H   0.33762780014703      1.89349600016683      0.37113280334124
  C   1.34541134918517      0.68674732460707     -0.99554274254386
  N   1.91292906681804      0.62581498186026     -2.02213919473121
  N   -0.25071491837878     -1.48341372890102      0.40774911857097
  O   -0.47286736860637     -2.08505683930281      1.45099344515005
  O   0.23947910871804     -1.92501742149940     -0.62328983037343
  C   -1.52937054406289      0.25389100108927     -0.70091821072497
  N   -2.27114816909707      0.50706343808884     -1.57588771428743
