12
Coordinates from ORCA-job run
  C   0.65595508925624      0.85258030062227      0.25947933624936
  C   -0.62009613083778      0.00843696767724      0.38823044111957
  Cl  1.70932195648544      0.54756395745314      1.65899214772330
  H   -1.10781096173818      0.24087275046929      1.33670972827593
  H   0.35260735984015      1.90204823718854      0.31054416187454
  C   1.37088432602818      0.63683308256881     -0.99383237164351
  N   1.95791811489826      0.53298296607321     -2.00589725444538
  N   -0.27490808485158     -1.46509823689132      0.45471016793469
  O   0.23002901736834     -1.94765456240271     -0.55049217004280
  O   -0.52457688969478     -2.02769080024092      1.51346466450601
  C   -1.51415805231146      0.24546216210636     -0.73743101779857
  N   -2.23616574444282      0.47366317537612     -1.63547783375314
