12
Coordinates from ORCA-job run
  C   0.67591639357922      0.84273734559988      0.24039479227018
  C   -0.61016395757278      0.01979311377806      0.40343916398619
  Cl  1.75789546770697      0.52553766343974      1.61498684359988
  H   -1.07078079184584      0.26290651880742      1.36270139488667
  H   0.39089520800970      1.89713906303849      0.29466102707211
  C   1.35624991159673      0.61045935999190     -1.02910204711928
  N   1.91689474095859      0.49228799605790     -2.05447642575763
  N   -0.28725173153553     -1.45890925123762      0.46701753705358
  O   0.18549087707669     -1.95300563581556     -0.54818449984958
  O   -0.52067386343011     -2.01377263226758      1.53348233286900
  C   -1.52736733111860      0.26801095941203     -0.70094868609159
  N   -2.26710492342503      0.50581549919535     -1.58197143291954
