16

C	-0.516228	0.00608	-1.431979
C	0.0	0.0	0.0
Cl	0.227578	1.378653	-2.35749
H	1.093425	0.0	0.0
H	-0.336301	-0.948638	0.443297
C	-0.109582	-1.226963	-2.115577
N	0.112303	-2.241917	-2.664341
C	-2.030788	0.150759	-1.569094
H	-2.337415	0.103881	-2.616265
H	-2.519923	-0.655681	-1.014606
H	-2.345103	1.108715	-1.153926
C	-0.486117	1.175551	0.836621
H	0.068587	1.165813	1.777998
H	-0.246789	2.119908	0.341144
H	-1.558214	1.164711	1.068834
F	2.654871	0.0	0.0
