16

C	-0.508153	-0.018464	-1.432391
C	0.0	0.0	0.0
Cl	0.14203	1.437487	-2.292559
H	1.093444	0.0	0.0
H	-0.363391	0.930197	0.456207
C	-0.012775	-1.198151	-2.151598
N	0.278869	-2.17978	-2.727703
C	-2.028803	0.029036	-1.571474
H	-2.401714	0.912054	-1.047567
H	-2.470182	-0.864569	-1.124032
H	-2.328207	0.083919	-2.62039
C	-0.4534	-1.214615	0.803847
H	-0.106333	-2.136667	0.328236
H	-1.536213	-1.289489	0.96487
H	0.034176	-1.168695	1.780864
F	2.65521	0.0	0.0
