15

C	0.0	0.0	0.0
C	-0.614954	0.167224	-1.390149
Cl	1.783291	0.0	0.0
H	-1.675699	0.344929	-1.168271
H	-0.327106	0.82963	0.629741
C	-0.411203	-1.257673	0.628535
N	-0.651844	-2.291622	1.129784
N	-0.409954	-1.05711	-2.167912
H	-1.087517	-1.739901	-1.83809
H	-0.666477	-0.858535	-3.129133
C	-0.03226	1.361735	-2.123134
H	-0.041041	2.253705	-1.491612
H	-0.639583	1.575624	-3.007452
H	0.993431	1.160849	-2.440556
Cl	-3.68983	0.0	0.0
