15

C	0.0	0.0	0.0
C	-0.46704	-0.182873	-1.501961
Cl	1.789999	0.0	0.0
H	0.423628	0.055388	-2.090241
H	-0.32268	0.977686	0.360693
C	-0.448445	-1.03653	0.92232
N	-0.6899	-1.913208	1.664821
N	-1.51977	0.696486	-1.942508
H	-1.22099	1.660832	-1.882166
H	-2.354305	0.574745	-1.359648
C	-0.847304	-1.630495	-1.779311
H	-1.028236	-1.737822	-2.850736
H	-1.767594	-1.879614	-1.246039
H	-0.054793	-2.322034	-1.475751
Cl	-3.894266	0.0	0.0
