15

C	0.0	0.0	0.0
C	-0.522311	0.494534	-1.404101
Cl	1.791813	0.0	0.0
H	0.349059	0.98031	-1.858473
H	-0.305424	0.718911	0.761309
C	-0.446457	-1.328731	0.404307
N	-0.716885	-2.429704	0.713376
N	-1.58782	1.462644	-1.351159
H	-1.331072	2.249171	-0.765121
H	-2.444219	1.046002	-0.96828
C	-0.946709	-0.677643	-2.276356
H	-0.166319	-1.441447	-2.339827
H	-1.857949	-1.120292	-1.869326
H	-1.165538	-0.303705	-3.278327
Cl	-4.111302	0.0	0.0
