15

C	0.0	0.0	0.0
C	-0.551023	-0.231628	-1.437245
Cl	1.787093	0.0	0.0
H	0.31837	-0.176112	-2.09993
H	-0.307094	0.997862	0.311972
C	-0.423289	-0.984016	0.994718
N	-0.636599	-1.835367	1.775004
N	-1.404838	0.909957	-1.754058
H	-1.609017	0.885891	-2.747288
H	-2.299821	0.780691	-1.269734
C	-1.210134	-1.600923	-1.60299
H	-1.481765	-1.73575	-2.654498
H	-0.541282	-2.417869	-1.313159
H	-2.12551	-1.639217	-1.009827
Cl	-4.032218	0.0	0.0
