15

C	0.0	0.0	0.0
C	-0.519712	-0.14948	-1.470807
Cl	1.790118	0.0	0.0
H	0.257371	0.336424	-2.073973
H	-0.298963	0.978342	0.379206
C	-0.461627	-1.031486	0.922341
N	-0.765647	-1.896245	1.656633
N	-1.764082	0.510756	-1.74763
H	-2.563426	0.144603	-1.218798
H	-1.708882	1.500014	-1.540595
C	-0.610163	-1.615644	-1.862651
H	-0.812599	-1.683811	-2.932149
H	0.312005	-2.156259	-1.633978
H	-1.43805	-2.087979	-1.328446
Cl	-4.413152	0.0	0.0
