15

C	0.0	0.0	0.0
C	-0.164309	0.209575	-1.553929
Cl	1.793757	0.0	0.0
H	0.560414	-0.514132	-1.953308
H	-0.429146	0.798446	0.596792
C	-0.388292	-1.358973	0.376056
N	-0.609013	-2.459889	0.728296
N	0.244588	1.582036	-1.861351
H	1.216849	1.608757	-2.130226
H	-0.311028	1.911306	-2.64148
C	-1.423039	-0.129128	-2.321917
H	-2.204661	0.604539	-2.186912
H	-1.807453	-1.101999	-2.035257
H	-1.055173	-0.16011	-3.361128
Cl	-3.162948	0.0	0.0
