15
Coordinates from ORCA-job run
  C   1.08747614325554      0.12414745092081      0.41601361014035
  C   -0.42924965163440      0.32961193469308      0.39139862131504
  Br  1.61130579729640     -0.88871180571421      2.02053033818527
  H   -0.71178384286081      0.77822730299775      1.35415477536795
  H   1.57364187033241      1.09418070075843      0.58564711670216
  N   1.51523727573923     -0.57164204556356     -0.76099074785131
  H   2.52053477105701     -0.52698301538609     -0.86587626339240
  H   1.07060399292748     -0.11227289432611     -1.55008869917390
  C   -1.20437881338919     -0.96317749276634      0.19835716213452
  H   -0.97466509145675     -1.67808486785815      0.98769214095423
  H   -2.27872574800084     -0.75820368144265      0.22739591141005
  H   -0.95664978582812     -1.41685905240043     -0.76111648614392
  N   -0.68866515295994      1.21991591365432     -0.74898398553576
  H   -1.67250285331814      1.19318170397754     -0.98858721628967
  H   -0.46317891115989      2.17766984845561     -0.50454627782260
