15
Coordinates from ORCA-job run
  C   1.08185437252615      0.24920805168821     -0.04022691370464
  C   -0.37557955106138      0.31431213518354      0.40809355090265
  Br  2.16174937389128      1.48403250224868      1.01597777978830
  H   -0.37694526199083      0.20664673435262      1.49694883286847
  H   1.15819122298053      0.64221740314297     -1.06435125926288
  N   1.63138665193119     -1.08333696489993      0.14310563238165
  H   1.27962279085417     -1.68742348606297     -0.59237288787908
  H   2.63951514436855     -1.05188477234507      0.05165155006657
  C   -1.17818268392452     -0.83718856158232     -0.20322169424692
  H   -1.11746631182660     -0.81352748483391     -1.29797316418035
  H   -0.83274366627074     -1.80984890420887      0.15089849085302
  H   -2.23064800943743     -0.73297970146604      0.07081202286935
  N   -0.90843451714145      1.63278388174662      0.07946354078617
  H   -1.70835996638032      1.84069384594422      0.66301912693290
  H   -1.22495958851858      1.64729532109224     -0.88382460817521
