15
Coordinates from ORCA-job run
  C   1.05026031093247     -0.31363347969775      0.20495455955756
  C   -0.35231534526555      0.27779717553611      0.29178651979646
  Br  1.03219845125551     -1.77634115049085     -1.25030844570591
  H   -0.26651674358381      1.01608151699522      1.09916975080251
  H   1.29932076346549     -0.90502830128243      1.08542022119296
  N   1.99324010516661      0.68973724915580     -0.03168030311759
  H   2.93201074386079      0.34316876335852     -0.16590219493584
  H   1.69263829572768      1.27374802884506     -0.80281823498115
  C   -1.42635720661382     -0.73428145598423      0.67135800225554
  H   -2.36759937631240     -0.21515139300487      0.87084239071395
  H   -1.15005932775040     -1.29145239502291      1.57167602549915
  H   -1.59160828574331     -1.45055036700270     -0.13488176631935
  N   -0.60570262518163      1.03035338524791     -0.93530068839312
  H   -0.85986705144837      0.38637278288404     -1.67661320793705
  H   -1.37964270850926      1.66817964046308     -0.79770262842811
