15
Coordinates from ORCA-job run
  C   1.07439893632668      0.29886235418347      0.23976838976079
  C   -0.45308199869024      0.36871873519228      0.35726128647320
  Br  1.76610286073627     -0.45467719498088      2.01940315320070
  H   -0.67856084683766      0.68457660358329      1.38390478610868
  H   1.49970027008675      1.30261352796019      0.25089627856194
  N   1.53987299009178     -0.40707083505638     -0.87702871043659
  H   1.28216812154427     -1.38394565933198     -0.85891072298731
  H   2.53928866606819     -0.32377229086175     -0.99815266752447
  C   -1.10960824494159     -0.97785832902502      0.10422658286847
  H   -0.99706993113815     -1.25243834817079     -0.94692736791252
  H   -2.17862962790291     -0.92185016183368      0.32497434350150
  H   -0.68144948673864     -1.75547554047581      0.73954406695574
  N   -0.92072521771622      1.32849729527317     -0.64353511864302
  H   -0.76336652026086      2.27502830535533     -0.31720253696667
  H   -1.91903997062770      1.21979153818857     -0.77822176296045
