15
Coordinates from ORCA-job run
  C   1.14875033745301      0.25409385846071     -0.00509631927749
  C   -0.33300263365865      0.28209811840966      0.39688118270382
  Br  2.16625824662036      1.37583002351342      1.24133680159057
  H   -0.38887662290591      0.01712263184851      1.45929096598571
  H   1.25998675134813      0.74015559535329     -0.97964330661180
  N   1.79041681533772     -1.03205909911252     -0.06631945932986
  H   1.45119933905793     -1.56378123039256     -0.85765303677871
  H   1.63635939585064     -1.55722863952382      0.78587413453941
  C   -1.12399004101107     -0.74593563493779     -0.41801965380117
  H   -0.81376509803775     -1.77356844428555     -0.21884790362909
  H   -1.01056752660821     -0.55304693133356     -1.49109798880362
  H   -2.18648484133490     -0.66496590691695     -0.17655402972874
  N   -0.84094300739022      1.64152705595848      0.25598604643708
  H   -1.06368668317181      1.82631651444865     -0.71616224288401
  H   -1.69365443154927      1.75544208851003      0.78902480958790
