15
Coordinates from ORCA-job run
  C   1.09191382635957      0.27800846498779      0.29921284098226
  C   -0.41988172913138      0.40722148266171      0.46080674241705
  Br  1.83385256336295     -0.75391245679625      1.87408385141839
  H   -0.60489201013865      0.75940267037514      1.47962667077203
  H   1.54019406928928      1.26272717754532      0.41707003224943
  N   1.44828000586511     -0.26874203076630     -0.95643807132835
  H   2.43613915076823     -0.16606751340032     -1.14573809295694
  H   1.20351194549995     -1.24795710374780     -1.02587683545774
  C   -1.16430115847944     -0.90873993654015      0.24353356841559
  H   -2.22969128250640     -0.76327647058278      0.43917734544245
  H   -0.80571391763450     -1.69936126378021      0.90665436079428
  H   -1.06826207684392     -1.23953747261264     -0.79447231232953
  N   -0.81306353330831      1.48474318885397     -0.44794748108176
  H   -0.64292698654634      1.18358894903374     -1.40097592869867
  H   -1.80415886655615      1.67190231476878     -0.34871669063850
