15
Coordinates from ORCA-job run
  C   1.02201241885040      0.15838377500052      0.39880621066282
  C   -0.50233380644060      0.32305201212460      0.46813788951282
  Br  1.67208463314875     -0.94287013477439      1.88495182218094
  H   -0.72768668181482      0.72637630474505      1.46157478469403
  H   1.48619179844161      1.13447963416371      0.59827144223816
  N   1.43820176250561     -0.46162753801075     -0.83952770557590
  H   1.17278464268056      0.14661013831219     -1.60652279740171
  H   2.44594204912303     -0.56075640267066     -0.85951193937230
  C   -1.25801988412648     -0.98073937368151      0.27405333353416
  H   -1.01413031747259     -1.42373868424304     -0.69340679301368
  H   -1.00288482792978     -1.70542332818081      1.04655808294514
  H   -2.32936992806198     -0.77823731556108      0.31567456774703
  N   -0.98576366932217      1.29623756846129     -0.51056394261741
  H   -0.96682849196120      0.91382154468691     -1.44791692772989
  H   -0.44919969762034      2.15543179962797     -0.48957802780423
