15
Coordinates from ORCA-job run
  C   0.98189212149832      0.26362625816529     -0.08070661312278
  C   -0.46185548977284      0.23770125804529      0.43023840867039
  Br  1.98492576293589      1.67584653881172      0.84148370111318
  H   -0.40979704701228      0.09373731245061      1.51411492925675
  H   0.98610606608335      0.58939594201270     -1.13171744566637
  N   1.66330683077659     -0.98862008128191      0.17725019222784
  H   1.29430125418224     -1.69692729080708     -0.44789204816621
  H   2.65271861796485     -0.89460868702389     -0.01860675186273
  C   -1.21111158055389     -0.93761274896137     -0.19041164436862
  H   -0.80881656840941     -1.89567281904241      0.14065468729163
  H   -1.17201020362155     -0.89476413232726     -1.28537692785067
  H   -2.25787023410763     -0.88126582687436      0.10976900795781
  N   -1.21665188175130      1.45540362328342      0.17461830975152
  H   -0.74937742005165      2.25126432988954      0.59176319876359
  H   -1.27776022816070      1.62249632365973     -0.82418100399532
