15
Coordinates from ORCA-job run
  C   1.12789363865467      0.24885466050383      0.42597578800803
  C   -0.40639901282757      0.34817007908521      0.39621807941303
  Br  1.69818744405019     -0.69779994160883      2.03793789896049
  H   -0.73415475607722      0.74764846420546      1.36708823580797
  H   1.53543790269870      1.25702857564205      0.54503032939711
  N   1.75318477645496     -0.35651017477193     -0.72344349280178
  H   1.51858742845363     -1.34114973332795     -0.76956073856075
  H   1.36359658603148      0.10281742770788     -1.54184048092368
  C   -1.09137584619866     -0.98483644087532      0.15322177073009
  H   -0.85262313765686     -1.35772230375199     -0.84505200712499
  H   -2.17655840218294     -0.86631564062293      0.21516492415964
  H   -0.79289617198950     -1.72695524407716      0.89420222970997
  N   -0.70728466986724      1.24969776384465     -0.72225267875015
  H   -1.68157874695791      1.16405628158925     -0.98653591021267
  H   -0.55401703258575      2.21301622645778     -0.44615394781232
