15
Coordinates from ORCA-job run
  C   1.04699080224538      0.26314838313658     -0.06700965869562
  C   -0.41933434460814      0.21298245085576      0.39904614900061
  Br  1.99876157040533      1.63086078620393      1.00985148415433
  H   -0.41044178360902     -0.08316582719419      1.45610029893568
  H   1.08905586050253      0.64792059426105     -1.09045262210229
  N   1.79206151615325     -0.95697536766513     -0.00066667262354
  H   1.60222445933488     -1.54537734600049     -0.80024924145626
  H   1.60153082319415     -1.46300221801015      0.85513040803825
  C   -1.17275466856523     -0.84107723814330     -0.40749085784683
  H   -2.21925116987293     -0.83805230200012     -0.10126032770284
  H   -0.76844784510439     -1.84277358801581     -0.25927201613458
  H   -1.13275170347599     -0.60933782303774     -1.47800302690666
  N   -1.14972319308943      1.46733097964186      0.30646423661113
  H   -1.18554545659789      1.77182376417327     -0.66088682207233
  H   -0.67237486691251      2.18669475179447      0.83569866880095
