15
Coordinates from ORCA-job run
  C   1.03206090279383     -0.24342100610029      0.19766428376095
  C   -0.45019194849466      0.18029332975125      0.21713257817907
  Br  1.29854047941515     -1.65546863328762     -1.14975889763771
  H   -0.48577636754924      0.95285720925101      1.00000431588888
  H   1.28625418565790     -0.71431043298813      1.15087180489275
  N   1.99669486545591      0.79270382266098     -0.05810352503290
  H   1.75821982075992      1.31061957206114     -0.89464163346962
  H   2.04158690562562      1.42739651434984      0.73074448253418
  C   -1.37952227657576     -0.95175454496700      0.62693833207182
  H   -1.02452191425019     -1.45127169431287      1.53241473149865
  H   -2.37699214273218     -0.55061931294658      0.81091468576492
  H   -1.45157127082533     -1.69942918238353     -0.16514584235470
  N   -0.94965375632057      0.79916191339546     -0.99948715536205
  H   -0.44191220500595      1.64619613805201     -1.22205011296445
  H   -0.85421527795445      0.15604630746433     -1.77749804776978
