17

C	-0.665756	-0.002156	-1.375531
C	0.0	0.0	0.0
Br	0.032824	-1.654513	-2.323353
H	1.094971	0.0	0.0
N	-2.047907	0.033595	-1.24024
H	-2.331207	-0.709699	-0.610545
H	-2.531287	0.018048	-2.127914
N	-0.205899	1.106176	-2.314213
O	0.967272	1.429814	-2.26259
O	-1.05816	1.537635	-3.089685
N	-0.526502	-1.139227	0.742784
H	-0.579333	-0.847226	1.71335
H	0.178831	-1.868219	0.689149
N	-0.427077	1.263838	0.712203
O	-0.663407	1.193369	1.918086
O	-0.469054	2.295546	0.052023
Br	3.443263	0.0	0.0
