15

C	0.0	0.0	0.0
C	-0.540163	0.25061	-1.400747
Cl	1.776361	0.0	0.0
H	-1.640103	0.188529	-1.326406
H	-0.180339	-0.520563	-2.082682
C	-0.496029	0.990686	1.022321
H	-0.164953	1.988424	0.728186
H	-1.588489	0.947079	1.040949
H	-0.08937	0.751562	2.00303
N	-0.389638	-1.424967	0.406177
O	-0.501808	-2.249792	-0.493465
O	-0.485986	-1.652211	1.604621
C	-0.135944	1.56232	-1.888845
N	0.202826	2.610556	-2.294095
Br	-3.807159	0.0	0.0
