15

C	0.0	0.0	0.0
C	-0.572458	0.064271	-1.407838
Cl	1.787095	0.0	0.0
H	-0.46826	1.095637	-1.756906
H	-1.652879	-0.137794	-1.313181
C	-0.524017	1.120426	0.862607
H	-0.203024	2.072859	0.434856
H	-0.138181	1.027481	1.875617
H	-1.617472	1.059387	0.86501
N	-0.364537	-1.346643	0.635433
O	-0.605042	-2.276123	-0.12492
O	-0.327494	-1.406413	1.858134
C	0.051244	-0.814188	-2.390163
N	0.551297	-1.45391	-3.23733
Br	-3.851211	0.0	0.0
