14
Coordinates from ORCA-job run
  C   -0.57585916536224     -0.28516354509366      0.18268319450968
  C   0.68099022052044      0.26587888082662      0.82622224475058
  Cl  -1.79899235805227     -0.63529473051970      1.49212002231957
  H   1.09051203175695     -0.52780047821807      1.46981019101349
  H   0.40666050436227      1.10599261527353      1.46206872793587
  N   -1.22599081966908      0.81425519785383     -0.65859623683354
  O   -1.70001923927201      0.48018399557147     -1.73805960401753
  O   -1.25712729278872      1.92927253461031     -0.16444771159004
  N   -0.29501364495858     -1.37785310761043     -0.65509899223646
  H   -1.07328011159849     -1.59077665782599     -1.26567707058142
  H   -0.03985867756504     -2.18905904691774     -0.10739018849784
  N   1.54677400389712      0.72727840414392     -0.24107263426236
  H   1.97319753975624     -0.05337503120121     -0.71966281203086
  H   2.26700700897341      1.33846096910711      0.11710086952084
