14
Coordinates from ORCA-job run
  C   -0.62683641607082     -0.27921010320742      0.13966506743618
  C   0.65082272413379      0.17267539638295      0.83168989157195
  Cl  -1.83174298156614     -0.67492344593204      1.44444663011958
  H   0.42329727440471      1.08783990299733      1.38714902526223
  H   0.88995295434384     -0.60768481948901      1.55797588967307
  N   -1.29278079286086      0.88950231013077     -0.61632041515739
  O   -2.31129628489032      0.61971043502220     -1.23328350609681
  O   -0.72354050243120      1.97824534113182     -0.59158792696021
  N   -0.41537078746771     -1.28428308287981     -0.79477971051949
  H   0.45957806773278     -1.77077784260076     -0.68712657178930
  H   -1.21477117456113     -1.85727546742565     -1.00995557419928
  N   1.74811562397392      0.26678405330517     -0.11768683896999
  H   1.62502775047012      1.09070748371743     -0.69308771398165
  H   2.62054454478901      0.36768983884702      0.38490175361109
