14
Coordinates from ORCA-job run
  C   -0.57067874573492     -0.29735236539864      0.22269925458451
  C   0.93825010768283     -0.12465559961149      0.07678319084261
  Cl  -1.02462845630476     -0.09875171341813      1.91716545150226
  H   1.40828818279819     -0.90967366395682      0.68733384653181
  H   1.17112852721938     -0.32214453291162     -0.97215026053001
  N   -1.20575522183467      0.81180019281861     -0.62571757587891
  O   -0.99013770064388      0.66130342155045     -1.82576667579084
  O   -1.83427616790053      1.71415957230488     -0.10575085181328
  N   -1.13164964124979     -1.52175485574859     -0.26436265497309
  H   -0.86414506349488     -2.29497600797458      0.32988738790131
  H   -0.82175619753497     -1.68442640848325     -1.21484771929933
  N   1.32628631565431      1.23579406724105      0.39049451095676
  H   1.36915681528993      1.37949926557408      1.39048021033089
  H   2.23091724605374      1.45117862801405     -0.00424811436470
