14
Coordinates from ORCA-job run
  C   -0.69809281981773     -0.30657409592685      0.24904311152698
  C   0.66999755905465      0.13833286076269      0.76938195469257
  Cl  -1.79657337659341     -0.54855420357655      1.61692416155502
  H   1.07227035441339     -0.69761151432008      1.34672882748419
  H   0.54273981382992      0.99353863153735      1.43847380444909
  N   -1.22208285869835      0.89777508186637     -0.56720240257235
  O   -1.27214840858805      1.96485029923778      0.03686091346040
  O   -1.47400259165509      0.72247960531220     -1.74984377251259
  N   -0.72483870380896     -1.44576730546586     -0.59166407617013
  H   0.01811483334720     -1.35465489428490     -1.27630560826336
  H   -0.59665938475011     -2.28492072671368     -0.04195376107564
  N   1.51693631944269      0.39322476939338     -0.38877648914574
  H   1.48362125205531      1.37114337684416     -0.64693336306127
  H   2.47971801176857      0.15673811533399     -0.19573330036717
