14
Coordinates from ORCA-job run
  C   -0.50279379267924     -0.21171719452690      0.17492366980581
  C   0.72935242824321      0.67547563422493      0.24595950288928
  Cl  -1.13480593160526     -0.60880190340768      1.77799459920673
  H   0.47480101681068      1.57391807119324      0.80645136182145
  H   0.94521786459425      0.98230541299114     -0.79403122627920
  N   -1.63037120258580      0.64098396595582     -0.49674089184128
  O   -2.26315324950997      0.10232967746817     -1.39935610243785
  O   -1.79110225202475      1.78073053624405     -0.08067654101893
  N   -0.23778830114322     -1.39978095258261     -0.53880303118980
  H   -1.03467040529788     -2.02339930384977     -0.52900224393497
  H   -0.00935903450644     -1.18323192895055     -1.50232087761368
  N   1.79460185850719     -0.03614033285252      0.91867138828385
  H   2.59996385715571      0.56439175634805      1.02974724216366
  H   2.06010714404152     -0.85406343825537      0.38718315014493
