14
Coordinates from ORCA-job run
  C   -0.60124900582676     -0.36211493503169      0.31701616468140
  C   0.72495502057078      0.18230702949951      0.81954764262536
  Cl  -1.73020210989883     -0.59472424392231      1.67283601479773
  H   1.15186032041628     -0.60406667454607      1.44443989561227
  H   0.54045904931319      1.06102655874996      1.44013420702509
  N   -1.27800839946126      0.75124326067008     -0.54820176482374
  O   -0.99106230900217      1.91907900483433     -0.30372409437708
  O   -2.06004403586488      0.36740774287516     -1.40896557864562
  N   -0.42967272318628     -1.54964338868448     -0.40409178126861
  H   -1.28025234496313     -1.82239345386590     -0.87921378941367
  H   0.32447644407997     -1.40184868001045     -1.06724445025041
  N   1.58094892049743      0.42388677531626     -0.33606855092688
  H   1.49779783108222      1.38656377183211     -0.63532709643179
  H   2.54899334224344      0.24327723228348     -0.11113681860407
