14
Coordinates from ORCA-job run
  C   -0.55847564856219     -0.04536182645451      0.03283327979622
  C   0.83941771981868      0.55435822874281      0.03589749282635
  Cl  -1.17389517506943     -0.02818603665284      1.77410369868274
  H   0.81325240239978      1.52310704671672      0.53883433685911
  H   1.11535317724660      0.71457317913972     -1.00841867128656
  N   -1.54901259256427      0.85435659586806     -0.69052299461615
  O   -1.20654350459431      2.01182975493058     -0.90690690756627
  O   -2.61857306788971      0.34309942379077     -0.99406420796782
  N   -0.57344046352953     -1.28866299443602     -0.58441917173639
  H   -1.46312394275800     -1.76175383845990     -0.51581421662376
  H   0.20451349069038     -1.84156426489965     -0.24524906317152
  N   1.74429280455859     -0.42785067585317      0.62425451789490
  H   2.68920915555778     -0.26338089621382      0.30541541764934
  H   1.73602564469563     -0.34656369621876      1.63305648925978
