14
Coordinates from ORCA-job run
  C   -0.49889541664711     -0.22189739170839      0.17945368138956
  C   0.72081788593075      0.68361355382697      0.24116140079798
  Cl  -1.10489406275277     -0.63757378609725      1.78764690047954
  H   0.91922550478148      1.00039346942974     -0.79934632631594
  H   0.45966503659558      1.57438536761631      0.81089916614031
  N   -1.64421276118470      0.61988024150084     -0.47429885528882
  O   -2.26315722201614      0.08900948051139     -1.39121106353859
  O   -1.82859255627821      1.74683133425018     -0.03393568477122
  N   -0.22444161046424     -1.40168026156562     -0.54440173543260
  H   -1.01005056676601     -2.03920871633682     -0.52547283704968
  H   -0.01459389957269     -1.17631225608586     -1.51005732087830
  N   1.80491884715480     -0.01568770851081      0.89595999145955
  H   2.08344628859949     -0.82081006342064      0.35191617866535
  H   2.59876453261979      0.59905673658996      1.01168650434286
