14
Coordinates from ORCA-job run
  C   -0.53091349072896     -0.18010937020034      0.02268434019850
  C   0.69793815809809      0.70164862602312      0.18541079032980
  Cl  -1.00994733704188     -0.78053445142950      1.70211556305564
  H   0.49572174704594      1.46301922611119      0.94146096143258
  H   0.85666603463223      1.20017414663739     -0.77303398243807
  N   -1.74364126200340      0.62922925912714     -0.41206877639852
  O   -1.67878694325104      1.84854362006213     -0.29841098510714
  O   -2.69466069641095     -0.01243735584146     -0.83771773705479
  N   -0.31666866945457     -1.17637129872582     -0.91980997230338
  H   -1.07365537540172     -1.84212262731484     -0.98128790513225
  H   0.58616766516965     -1.60544834421483     -0.75665040527191
  N   1.83581709444029     -0.16762354453993      0.46674027000731
  H   2.69660842909525      0.29201756604119      0.20335303046025
  H   1.88035464581101     -0.37098545173542      1.45721480822205
