14
Coordinates from ORCA-job run
  C   -0.54226958972055     -0.13203788032942     -0.05062329699903
  C   0.72768508985821      0.63574049846974      0.28342664312492
  Cl  -1.28532516427507     -0.69626509569737      1.54477708767448
  H   0.49734735165139      1.40747829027519      1.02056969892403
  H   1.05203657754885      1.12354994291129     -0.63817029103607
  N   -1.61342134680243      0.78464035915146     -0.62122800517291
  O   -2.55335784380791      0.23354424137610     -1.17833813478428
  O   -1.46737727736574      1.99150561270782     -0.45997198697287
  N   -0.29624284133679     -1.13844808757156     -0.97344523075084
  H   0.53692800094235     -1.64720008779867     -0.70382275949041
  H   -1.09427524540370     -1.73268837776465     -1.14620514786499
  N   1.73936899666594     -0.33321301540533      0.69291540364345
  H   2.66370571907091      0.05079271298408      0.55213470522065
  H   1.63619757297450     -0.54639911330869      1.67698131448388
