14
Coordinates from ORCA-job run
  C   -0.57444286416647     -0.28693920721910      0.18070291518570
  C   0.67660995779004      0.27091845827145      0.82910606674683
  Cl  -1.79923571045582     -0.64647636887454      1.48485602593613
  H   0.39410411290754      1.11093803151648      1.46165119666866
  H   1.08695513734811     -0.51936532169037      1.47655720169283
  N   -1.22801290850111      0.81002666804036     -0.66161440587847
  O   -1.69293132390856      0.47539954800091     -1.74494263254979
  O   -1.27401865875755      1.92265309810713     -0.16319187391573
  N   -0.28382948566345     -1.37666430737074     -0.65824923007714
  H   -1.06032031010856     -1.59614004007153     -1.26881158818412
  H   -0.02313042076527     -2.18581213693697     -0.10992604126821
  N   1.54495147617677      0.73639391426264     -0.23459713165739
  H   1.95820928989917     -0.04457316526791     -0.72452502171877
  H   2.27609170820519      1.32964082923216      0.13198451901949
