14
Coordinates from ORCA-job run
  C   -0.62293989847449     -0.20315471198474      0.23649853197738
  C   0.76734383200500      0.17189477867560      0.72737642958645
  Cl  -1.68305053263058     -0.36142178112370      1.70995500602120
  H   1.02714884227949     -0.56992805600192      1.48642462177111
  H   0.69240796113093      1.14448367839249      1.22392211744108
  N   -1.27123876069195      0.95844641552722     -0.54219360928371
  O   -2.37310645230733      0.73568326203511     -1.01935315505960
  O   -0.61729149086558      1.99046198611999     -0.67129150442243
  N   -0.62630552258903     -1.29780577664067     -0.61811585223842
  H   -1.50620685372970     -1.78132228840142     -0.69891549675537
  H   0.18717711543732     -1.88579047391765     -0.53807907094003
  N   1.73980759294555      0.08561054399252     -0.34997337697652
  H   2.67367671557614      0.14697773208201      0.03500919500131
  H   1.61357745191424      0.86786469124514     -0.98026383612243
