14
Coordinates from ORCA-job run
  C   -0.47712950637867     -0.21209463596872      0.08533437669139
  C   1.04147968997482     -0.17126175136704      0.30192528527272
  Cl  -1.29478776995032      0.75952008559390      1.40232085112316
  H   1.48040397116066     -0.64678136121395     -0.57811669965640
  H   1.23008038515861     -0.82909052108829      1.15696071533303
  N   -0.89651286164150      0.48773437947165     -1.20577337560396
  O   -0.05174267821324      1.14928373648799     -1.80007618928722
  O   -2.05771015796584      0.32128303303194     -1.55483868390434
  N   -0.93994991887037     -1.53014682259403     -0.03632361251618
  H   -1.93924993249754     -1.56734648728369     -0.19355469658595
  H   -0.68210270318888     -2.09112243147165      0.76399051454937
  N   1.69484013010127      1.08859411265172      0.54119221920177
  H   1.32537572437067      1.53846065393949      1.36722860676109
  H   1.56500562794028      1.70196800981070     -0.25026931137848
