14
Coordinates from ORCA-job run
  C   -0.56885442659962     -0.25007149281031      0.21042986807594
  C   0.96260192400568     -0.13016302128496      0.32806163004519
  Cl  -1.33132844800697      0.40584727936009      1.65870783261164
  H   1.38000736122068     -0.63682277074124     -0.54722078135577
  H   1.24600864808788     -0.70520953240276      1.21477825466541
  N   -0.95108407113398      0.59504923434401     -1.00820274072595
  O   -1.45974404869827      1.69612391340968     -0.86756279397696
  O   -0.61423452465219      0.07857224480575     -2.07165440950194
  N   -1.09207253956527     -1.55916434892342     -0.03647212395305
  H   -1.00822840622854     -2.13181621295060      0.79285704813642
  H   -0.59820186103392     -1.98823160454816     -0.80951364550170
  N   1.52523599887298      1.19433701117432      0.41184535948376
  H   1.11566902480970      1.72023414866837      1.17231398854878
  H   1.39422536892180      1.71131515189924     -0.44736748655176
