14
Coordinates from ORCA-job run
  C   -0.47588387773650     -0.42670878556945      0.16388514806887
  C   0.98481504546129     -0.02262866074222      0.29642937478124
  Cl  -1.29615387558567     -0.31914756107760      1.72341018565279
  H   1.43296023865967     -0.71711777830313      1.01742419089331
  H   1.44963387461270     -0.19065312502722     -0.67817255000609
  N   -1.10967823625009      0.62441603429371     -0.79831249995053
  O   -0.67503340262415      0.52388630746947     -1.94391930436642
  O   -1.93386162235072      1.42951956394018     -0.40451032848049
  N   -0.59976943836083     -1.74324489578101     -0.34715497203582
  H   -0.23396030771830     -1.77561754671919     -1.29128170520728
  H   -1.56323600455225     -2.05485793599676     -0.34266040902120
  N   1.08447271552327      1.38707592375573      0.62056747861241
  H   1.99555617778677      1.74584604198399      0.37296267386210
  H   0.93913871313482      1.54123241777345      1.60933271719714
