14
Coordinates from ORCA-job run
  C   -0.45811031674416     -0.16827913497146      0.11644920823521
  C   0.80732654429291      0.69604893635813      0.17913768854584
  Cl  -1.04380307879375     -0.56804400756095      1.74440856198751
  H   0.57322607835913      1.60768196626197      0.72759443638914
  H   1.03961416202280      0.98536283466396     -0.85412895958262
  N   -1.57744981877034      0.71719422889896     -0.51316986846956
  O   -1.77671273053143      1.80895025499588      0.00302632257075
  O   -2.14458851835210      0.26640020258462     -1.50407511583069
  N   -0.23612760107224     -1.35863808552901     -0.60373343135887
  H   0.02549965750211     -1.14517322669604     -1.55920662701283
  H   -1.05966874746121     -1.94696293254816     -0.61740554887414
  N   1.95647270473079      0.04986756635308      0.76601154068626
  H   1.81156757697463     -0.07704211103859      1.75931492187602
  H   2.08075408784293     -0.86736649177240      0.35577687083802
