14
Coordinates from ORCA-job run
  C   -0.59958115349298     -0.30108530837355      0.12117010442481
  C   0.91129888059673     -0.05702488465376      0.22014635049256
  Cl  -1.38372410408853     -0.07584129976336      1.69147987234123
  H   1.27604136923506     -0.09210510259419     -0.82194740067860
  H   1.30150066860619     -0.94507719027359      0.72561064429704
  N   -1.20791150183867      0.75116913915997     -0.83629820369613
  O   -0.69201511606452      1.86544850572923     -0.80653012479833
  O   -2.14308225053817      0.41453615184381     -1.54577400990230
  N   -0.97038680248269     -1.57826194789249     -0.38763400072890
  H   -0.73393794815139     -2.30346868679273      0.27594083456764
  H   -0.53126855855812     -1.76147668068075     -1.28185917418100
  N   1.31706976476296      1.10292381924172      0.97914741155687
  H   1.15897260031416      1.94649226358151      0.44853161060481
  H   2.29702415169997      1.03377122146819      1.21601608570030
