14
Coordinates from ORCA-job run
  C   -0.53548546514131     -0.25335931860304      0.09534538106280
  C   0.97560851307069     -0.13406459513458      0.25251601596239
  Cl  -1.35385945291462      0.20206345884134      1.64009307585246
  H   1.39811331325286     -0.40387976858226     -0.72280157884794
  H   1.25539340067627     -0.91591133829768      0.96508746875716
  N   -1.05706245587410      0.73243581822737     -0.94959744263192
  O   -2.24594954139613      0.64318626060730     -1.22503236909107
  O   -0.25287914158253      1.50314530543473     -1.46310568493994
  N   -0.89837937019091     -1.52510492091536     -0.40186709992724
  H   -1.90336039051480     -1.59262166701674     -0.51089932168277
  H   -0.57267865106449     -2.25795264668501      0.21496121102588
  N   1.39581159459282      1.14817368710175      0.77146823664080
  H   2.24004854117936      1.05412854776215      1.31586653643353
  H   1.55467910590690      1.79876117726002      0.01696557138587
