14
Coordinates from ORCA-job run
  C   -0.45323925109481     -0.17743205985039      0.12617736560607
  C   0.79482496160791      0.71399103333130      0.16125615304473
  Cl  -1.00267483835225     -0.57674773676283      1.76627971047219
  H   0.55083095376378      1.62408746832243      0.70820905290060
  H   1.00316342467812      1.00050986411514     -0.87784560397898
  N   -1.59725939268086      0.68225669368622     -0.49342499163628
  O   -2.14971983373536      0.22728657803827     -1.49091235533819
  O   -1.82827523229885      1.76175015244086      0.03507877301080
  N   -0.21801229645256     -1.36878528055118     -0.58882705206696
  H   0.01288216971527     -1.15738143203771     -1.55263771954731
  H   -1.02617310085199     -1.97815153787810     -0.57637172198023
  N   1.96742207905514      0.09661942524468      0.73224413489859
  H   2.10627744138096     -0.81881253709151      0.32269363231827
  H   1.84095291526551     -0.03019063100717      1.72808062229673
