14
Coordinates from ORCA-job run
  C   -0.60066094517467     -0.36640113426488      0.31217164653591
  C   0.72033461355770      0.18181760579688      0.82388746871857
  Cl  -1.73487229359670     -0.61178928881410      1.66150140435109
  H   0.52891306287614      1.05678564422365      1.44760636716639
  H   1.14771454990383     -0.60555798403780      1.44714769634162
  N   -1.27924309540053      0.74794807979471     -0.55034574056088
  O   -0.99764967459577      1.91588794382295     -0.30016574993544
  O   -2.05682999335176      0.36459017925331     -1.41532286345781
  N   -0.41981618229739     -1.54927771555347     -0.41404684903776
  H   0.33633006956206     -1.39486396636866     -1.07331961937056
  H   -1.26704896932209     -1.82488431444755     -0.89341579676230
  N   1.58096054041831      0.43302187168957     -0.32653169239060
  H   2.54863540309300      0.25571391390834     -0.09732158494513
  H   1.49523291432788      1.39700916499704     -0.62084468665309
