14
Coordinates from ORCA-job run
  C   -0.59149589128598     -0.10652946238929      0.11431111067454
  C   0.76269460449152      0.63028755780239      0.20924315977385
  Cl  -1.17510824585484     -0.47487625736727      1.74131390763317
  H   0.62012020250895      1.53034706089487      0.81319722892341
  H   1.01603523261597      0.94263466165370     -0.80951778255996
  N   -1.53126960760250      0.89842003375131     -0.55824886734636
  O   -2.15591531594560      1.68672586345993      0.13556551806202
  O   -1.48096109930451      0.88636753624982     -1.78576717297300
  N   -0.64138350284118     -1.30087991984136     -0.66614584811929
  H   -0.28963466090154     -1.13429364075211     -1.60002654666990
  H   -0.13109198441293     -2.04505430912355     -0.21205656217608
  N   1.85924586352029     -0.13415661055200      0.74890427175949
  H   1.66618154898374     -0.43962597004703      1.69322563677548
  H   2.07258285602859     -0.93836654373938      0.17500194624265
