14
Coordinates from ORCA-job run
  C   -0.59150255964040     -0.28133272144604      0.18917145248107
  C   0.92604379280606     -0.12351375076288      0.16829586790103
  Cl  -1.19219884139400      0.02529391039199      1.82113250142382
  H   1.33252446019575     -0.87041442911023      0.86613823167416
  H   1.24933601103071     -0.38732961881336     -0.84145216889053
  N   -1.13804057914163      0.77471985161434     -0.77987124286401
  O   -0.82322242397284      0.54548055695970     -1.94508322666271
  O   -1.79356754956220      1.71545536241512     -0.37369011417018
  N   -1.11795967655122     -1.53200591582260     -0.26844798262013
  H   -0.89666154432840     -2.26953025264970      0.38719566327999
  H   -0.73668493769398     -1.74717230854165     -1.18189495155110
  N   1.29747824076516      1.25278985132126      0.42865769774419
  H   2.23936984067296      1.43566920078739      0.11222768226047
  H   1.24408576681403      1.46189026365667      1.41662058999393
