14
Coordinates from ORCA-job run
  C   -0.58887152764710     -0.13040598846648      0.09370650692848
  C   0.73621341261033      0.64622903138207      0.25540650770420
  Cl  -1.19739256951394     -0.59361398937824      1.68614606021999
  H   1.00447697544241      1.00985942434709     -0.74205812767453
  H   0.54805581190995      1.51445146920031      0.89275951248661
  N   -1.54875806622835      0.87004553966836     -0.55835922004451
  O   -1.43475511136429      0.94086243337735     -1.77978880670112
  O   -2.25538481331060      1.57351365168878      0.14736197277025
  N   -0.57801254216206     -1.28765397360617     -0.74283868994936
  H   -0.06863821658203     -2.04195637370219     -0.30502389281040
  H   -0.19513841498345     -1.06811006075468     -1.65321718200343
  N   1.84408584749807     -0.10390424383529      0.79246785116465
  H   1.63877792461608     -0.45070190044509      1.71978280474329
  H   2.09434128971494     -0.87961501947578      0.19465470316587
