14
Coordinates from ORCA-job run
  C   -0.57024251367660     -0.31010318632693      0.20893758629085
  C   0.93810307834418     -0.11020342258980      0.09302299357639
  Cl  -1.05800450940155     -0.13937983187033      1.89676375632952
  H   1.19384393932766     -0.29068071008737     -0.95364971674665
  H   1.41025499038974     -0.89454751290098      0.70264183337653
  N   -1.20830584548533      0.79873605882080     -0.63816188382910
  O   -1.86189239473820      1.68391259298156     -0.11958214389613
  O   -0.96389726424788      0.66896056363207     -1.83510439463883
  N   -1.10159758573764     -1.53740077608142     -0.30325906828524
  H   -0.83493550233425     -2.31313089419173      0.28806353323853
  H   -0.76948112247969     -1.68468946829196     -1.24872810555178
  N   1.29665069652550      1.25257615221941      0.43056681867498
  H   2.19812808450865      1.49367236547595      0.04378966758181
  H   1.33037594900541      1.38227806921069      1.43269912387912
