14
Coordinates from ORCA-job run
  C   -0.69603064406711     -0.31397529957138      0.24989812026929
  C   0.66495880961470      0.15473129794572      0.76951720936536
  Cl  -1.79232987265169     -0.56172061568135      1.61763295223107
  H   0.52273731386638      1.01637253968894      1.42777685554332
  H   1.07543359829646     -0.66864723714702      1.35901978631503
  N   -1.23234189158770      0.87735181919801     -0.57631884910584
  O   -1.32964693717840      1.94150985282998      0.02678352278631
  O   -1.44019006431059      0.69787151148477     -1.76725601499887
  N   -0.70496535440667     -1.45947122968896     -0.58298133204402
  H   0.04036712739092     -1.36425786259527     -1.26444398481100
  H   -0.56864520312557     -2.29277349503012     -0.02633514305208
  N   1.51501751946347      0.40462688537818     -0.38724874137656
  H   2.48097573236764      0.19321334660505     -0.18110375932319
  H   1.46365986632819      1.37616848658353     -0.66594062179883
