14
Coordinates from ORCA-job run
  C   -0.53561602332074     -0.20787728417302      0.26857215183241
  C   0.83265290836715      0.19747424502113      0.81097750747616
  Cl  -1.70152065006130     -0.29731628404287      1.67254604380555
  H   1.15777858910636     -0.61915927001439      1.46480341138866
  H   0.71555228753954      1.08207611222695      1.43442063196503
  N   -1.11695945337169      0.89540756657099     -0.61291379486628
  O   -0.74450564366462      2.04113812541155     -0.39065209142089
  O   -1.93716186356267      0.55181206723323     -1.45559486628425
  N   -0.47223564400618     -1.37112667575871     -0.51514464827222
  H   -0.16092688942959     -2.15966948827886      0.03679456429958
  H   -1.35811236465728     -1.57598329697145     -0.95955814839330
  N   1.83491592290864      0.44564104724552     -0.19912231427882
  H   1.84023894106012     -0.30039957900869     -0.88233497862825
  H   1.64589988309226      1.31798271453862     -0.67379346862342
