14
Coordinates from ORCA-job run
  C   -0.49106216853939     -0.06473643245176     -0.02685003012531
  C   0.77879670017981      0.68569669245290      0.38208767747717
  Cl  -1.33563482724998     -0.62950331804959      1.50574761988146
  H   0.51486393287942      1.43235208485015      1.12884398127405
  H   1.13288752245921      1.21196972112125     -0.50754579373900
  N   -1.50288445672152      0.88359975375401     -0.66060267860315
  O   -1.39142083793946      2.07416231560343     -0.39556948109050
  O   -2.36466153161273      0.37340952971214     -1.36598942468716
  N   -0.24417515255727     -1.08282101322505     -0.95535049956181
  H   -1.10353353199862     -1.50665077381424     -1.28131713565564
  H   0.37002212286866     -1.78382022092778     -0.56574223557260
  N   1.84387328541542     -0.14964257755392      0.88706325055678
  H   1.55141602324084     -0.70115983626959      1.68180660016311
  H   2.24051291957562     -0.74385592520196      0.17341814968255
