14
Coordinates from ORCA-job run
  C   -0.50004573952682     -0.25581354848043      0.17439384210454
  C   1.01401643820365     -0.04775895948961      0.38848404073072
  Cl  -1.46315259252184      0.62713624752449      1.37805349656967
  H   1.50565204497383     -0.44968455171144     -0.50643694148174
  H   1.26642138823752     -0.70453820772293      1.22428383179094
  N   -0.90059589709574      0.38726391845232     -1.19216615155735
  O   -1.55117718879535     -0.31152301128959     -1.96192123381082
  O   -0.51921446669973      1.53125139446414     -1.41282892999166
  N   -0.81855117821466     -1.62340249665424      0.22656220779717
  H   -0.21323337010383     -2.15441087900541     -0.38799659291183
  H   -1.78268394599700     -1.79415553165597     -0.02934266652616
  N   1.53322533478588      1.26814381139348      0.65085542635562
  H   1.25688606943504      1.90823266800790     -0.08048207649794
  H   1.17445310331906      1.61925914616727      1.52854174742883
