14
Coordinates from ORCA-job run
  C   -0.47267096252129     -0.22955759256762      0.05618695337068
  C   1.03226440183179     -0.14524030294350      0.34501841888937
  Cl  -1.38323993912482      0.68277678730550      1.35564393211159
  H   1.52653124026388     -0.57879864181930     -0.52736636074512
  H   1.20372438103158     -0.82315963182553      1.18786199789776
  N   -0.85472413648950      0.48996123163946     -1.23554513953472
  O   -0.01049216229085      1.20615253377254     -1.76353680592392
  O   -1.98679698237582      0.28356326509674     -1.65240157003788
  N   -0.88490721042954     -1.55819058179507     -0.11768611119578
  H   -1.87195275469429     -1.62286798695109     -0.33269257387823
  H   -0.65460684444655     -2.12773154518670      0.68492067164145
  N   1.63128744360705      1.12689184041788      0.65169427412290
  H   1.21134513542067      1.53721594940784      1.47422114976187
  H   1.51423839021768      1.76098467544884     -0.12531883647995
