14
Coordinates from ORCA-job run
  C   -0.49837438105666     -0.32518081400477      0.25167771643691
  C   1.00258314314255     -0.06201254236071      0.45405160980826
  Cl  -1.44223061278096      0.33234298834790      1.58896179872783
  H   1.52637894330992     -0.58239714913530     -0.35401584230978
  H   1.26255492583480     -0.55422279262725      1.39368558911845
  N   -0.87322656405983      0.47094654611355     -1.03719250290481
  O   -1.38735327785047      1.57720053799062     -0.96128893557560
  O   -0.50474017925928     -0.08652011226065     -2.07026005289953
  N   -0.75554803020193     -1.70723964600043      0.12018206069917
  H   -0.27874389908619     -2.07485983139901     -0.69351129775890
  H   -1.74636280154102     -1.90503875383083      0.05683137283819
  N   1.43662822508649      1.31076219398945      0.48143890111542
  H   1.31956389562714      1.76506807318735     -0.41389048376103
  H   0.93687061283540      1.84115130199010      1.18233006646545
