14
Coordinates from ORCA-job run
  C   -0.66215674105170     -0.30531680972660      0.26176112487974
  C   0.65327426260095      0.19707401877547      0.89099307446523
  Cl  -1.82370794086238     -0.59681599580705      1.57150336538962
  H   1.01517568275970     -0.60833006408550      1.53749825348683
  H   0.42453729410496      1.05385111627347      1.52779020048824
  N   -1.16373682029960      0.85986003197428     -0.59561704677810
  O   -1.02667579867609      0.74613714240754     -1.81086600289600
  O   -1.54698101273169      1.85926180717751     -0.00379816386373
  N   -0.60943110628613     -1.45530669667324     -0.57253183549145
  H   -0.21091305833278     -2.23980927964477     -0.07462187024222
  H   -0.11668184428703     -1.26795996314931     -1.43414768093346
  N   1.68865187303928      0.56471339062860     -0.04389247539386
  H   1.44984530894458      1.38466485463708     -0.58463652919627
  H   1.92779990107790     -0.19102355278746     -0.67043441391458
