14
Coordinates from ORCA-job run
  C   -0.55134626623994     -0.34733466144620      0.32876393576819
  C   0.73354731971499      0.24725000433344      0.90687294592429
  Cl  -1.71833151080469     -0.65605737828143      1.63046548078397
  H   0.46522766039123      1.11192584079384      1.51170424782735
  H   1.14840716458826     -0.51588740270218      1.56853844696578
  N   -1.23065046217048      0.75726144234759     -0.54932788697480
  O   -1.74844282918221      0.38547190476787     -1.59723990544475
  O   -1.17694977588813      1.91135058762344     -0.14118443864177
  N   -0.32907404484062     -1.53088046046372     -0.39863484700095
  H   0.32101222985843     -1.35311432171336     -1.15409348805624
  H   -1.19039641578711     -1.88730977439298     -0.79302982518131
  N   1.73361370334230      0.63974473008237     -0.05789773134700
  H   1.41834897975574      1.37150619211991     -0.67802649722116
  H   2.12503424726223     -0.13192670306866     -0.57691043740163
