17

C	-0.372576	0.031565	-1.469061
C	0.0	0.0	0.0
Cl	-2.17132	0.080201	-1.692003
H	1.095327	0.0	0.0
H	-0.06154	-0.912934	-1.910933
C	0.277313	1.193036	-2.193106
H	1.351988	1.163176	-1.989879
H	-0.126279	2.149615	-1.857145
H	0.106415	1.109727	-3.268288
N	-0.418388	-1.317062	0.586779
O	-0.245883	-2.323785	-0.097372
O	-0.88216	-1.327371	1.727162
C	-0.499906	1.15025	0.843961
H	-0.133623	2.085279	0.416944
H	-1.589122	1.176654	0.898206
H	-0.097195	1.065194	1.851798
Cl	3.318108	0.0	0.0
