17

C	-0.520792	-0.003538	-1.437836
C	0.0	0.0	0.0
Cl	-0.033203	1.527642	-2.240311
H	1.091398	0.0	0.0
H	-1.613696	0.004281	-1.428832
C	0.022071	-1.18159	-2.227884
H	-0.385167	-2.114957	-1.82879
H	1.111679	-1.206658	-2.149139
H	-0.270162	-1.10569	-3.277012
N	-0.474136	-1.301691	0.579881
O	0.353525	-2.140222	0.918922
O	-1.699487	-1.455725	0.655894
C	-0.538078	1.120322	0.868997
H	-1.630388	1.145042	0.856238
H	-0.143468	2.069575	0.507051
H	-0.189827	0.98385	1.895334
Cl	3.397968	0.0	0.0
