13
Coordinates from ORCA-job run
  C   -0.59971708586432      0.14281161972091     -0.36508080941173
  C   0.92153631832437     -0.04756569590131     -0.13438376575564
  F   -0.78858456535763     -0.10103884256210     -1.72979849422088
  H   1.42284773323575      0.71887922178522     -0.74033170019539
  C   -1.37321333289637     -0.87039529104622      0.37208114113366
  N   -1.99966312920165     -1.67827817749503      0.94958401139447
  N   -0.98386648418631      1.43358476177523      0.03727060508271
  H   -0.52708120056494      2.15242186161838     -0.51040476379080
  H   -1.98712556451375      1.56178839295806      0.02045639500303
  C   1.36368861546362     -1.36419098320704     -0.60153097008570
  N   1.72162138123161     -2.41911969555902     -0.97120568964182
  C   1.26632568158352      0.15520697627731      1.27404683221344
  N   1.56323163274609      0.31589585163561      2.39829720827464
