13
Coordinates from ORCA-job run
  C   -0.59033718042843     -0.03203297741534     -0.28144829434972
  C   0.81657270755334     -0.06934454804708      0.36739155050887
  F   -0.71290233063269     -1.12425004180569     -1.09767240247324
  H   0.92048779542739      0.81339980140929      1.01174602843790
  C   -1.61978635685562     -0.14651915184960      0.78280298691087
  N   -2.44249950307602     -0.14594173641459      1.62217364366362
  N   -0.70021349115582      1.13188994367677     -1.10096360807486
  H   -0.70668220530659      1.98096507275061     -0.54850127280788
  H   -1.55177370650045      1.08824289558113     -1.64941153257347
  C   1.84366083256770     -0.01866980180305     -0.67717700847420
  N   2.68845321760167      0.01941868554873     -1.49061699892817
  C   0.97011068196514     -1.26992070295484      1.19434194502881
  N   1.08390953884036     -2.22623743867634      1.86533496313147
