13
Coordinates from ORCA-job run
  C   -0.68841504449570     -0.10809073080764     -0.24450169777063
  C   0.73619328248267     -0.62021605929792      0.10151272965924
  F   -1.04827059965493     -0.81864212895417     -1.39776005292929
  H   0.68813360786540     -1.71400514071648      0.14840458066627
  C   -1.62899137491086     -0.50728414902516      0.81724066645280
  N   -2.38137568996947     -0.84221474354668      1.65395581695402
  N   -0.69647548368929      1.28459223299829     -0.40460626845225
  H   -0.09281115134306      1.58654062034596     -1.16037509372920
  H   -1.62903143656939      1.65748719117619     -0.52262188785570
  C   1.18300266149625     -0.09515830430858      1.39281606924823
  N   1.54045424148572      0.30387227938912      2.43727777859380
  C   1.65550237519338     -0.23301246407231     -0.97281759913787
  N   2.36008461210928      0.10613139681940     -1.84852504169942
