13
Coordinates from ORCA-job run
  C   -0.58751262588387      0.12913472956277     -0.38596838809955
  C   0.92869325679030     -0.01472885192759     -0.09505916359245
  F   -0.71178244807445     -0.09402533326136     -1.76161378575046
  H   1.42735944871397      0.78068341513712     -0.66476599036586
  C   -1.35595342920859     -0.92327801923448      0.29975095181484
  N   -1.97895104640703     -1.76134981354756      0.83657612133033
  N   -1.03189763238470      1.39825669409203      0.02332033089286
  H   -2.03729483340591      1.49357414893926     -0.03583707877678
  H   -0.57618447902443      2.14272746062759     -0.48990485403101
  C   1.43422147942135     -1.30508305697893     -0.57075462081810
  N   1.83957453045251     -2.33748417713820     -0.95476193609158
  C   1.20646842745048      0.17084747825062      1.33026949402136
  N   1.44525935156036      0.32072532547874      2.46974891946638
