13
Coordinates from ORCA-job run
  C   -0.51437018289293      0.18271885383703     -0.36225255254578
  C   0.75466434021744     -0.27983987891535      0.39711565425247
  F   -0.16183961198085      0.45426843639655     -1.65711077261438
  H   0.47515314353615     -0.48559268201332      1.43863986724703
  C   -1.49935086074696     -0.92835065611914     -0.38800917805029
  N   -2.32172493671636     -1.76681619848059     -0.34134461845609
  N   -0.99315486315728      1.39644805021310      0.21714763957959
  H   -1.34581918720301      1.25104516280188      1.15567773114523
  H   -1.73288352157825      1.78505266681186     -0.35717409569968
  C   1.75963660671654      0.78701736249203      0.37657474275154
  N   2.58729140939319      1.61877589202952      0.37416802786523
  C   1.28803487020816     -1.51102811809770     -0.19311425530500
  N   1.70436279420415     -2.50369889095587     -0.66131819016988
