13
Coordinates from ORCA-job run
  C   -0.58690782251085      0.14782316999479     -0.37926374511376
  C   0.92734912431042     -0.04836393064427     -0.10836303110693
  F   -0.73894998580361     -0.08412337005762     -1.75048531995760
  H   1.44728248672679      0.72260106201631     -0.69245697816962
  C   -1.38225570680515     -0.86967225209441      0.32827742795649
  N   -2.02793634983031     -1.68012020623049      0.88043014685508
  N   -0.97964930925504      1.43602367779970      0.02303658008119
  H   -0.50863038279777      2.15830660487134     -0.50781205632038
  H   -1.98198177530558      1.56546888533091     -0.01734353441357
  C   1.37659150922052     -1.36177342279541     -0.57768525854499
  N   1.73154644764167     -2.41452076103711     -0.95622626428401
  C   1.23199851917496      0.13978830288543      1.31121615115273
  N   1.49354324523394      0.28956223996083      2.44567588186536
