13
Coordinates from ORCA-job run
  C   -0.64152738283460     -0.11448753588506     -0.39489760706333
  C   0.72961741706350     -0.64509444687165      0.09818144544508
  F   -0.90535553466640     -0.73732187174106     -1.58991736655152
  H   0.63280925759717     -1.72930214592278      0.23079660704856
  C   -1.69339182744367     -0.54565523148978      0.56188337618531
  N   -2.52339954897474     -0.83384132865401      1.34246604838258
  N   -0.56978083466445      1.28480899816823     -0.63431000913518
  H   -0.32015214590613      1.80305811848614      0.19994406735563
  H   -1.45064694068153      1.63173341707796     -0.99546797370455
  C   1.06957570950898     -0.03028969827789      1.38314701909851
  N   1.30385697489649      0.49233812208889      2.40840389273740
  C   1.76155421562938     -0.37949466868353     -0.90779514857844
  N   2.60584064047600     -0.19845172829546     -1.70243435122006
