13
Coordinates from ORCA-job run
  C   -0.67210421905285     -0.03179715164191     -0.30549443089902
  C   0.68533136136925     -0.67798360492626      0.08338099438333
  F   -0.98183404180400     -0.58644947781416     -1.55484532014732
  H   0.56551361277425     -1.76405307932399      0.00047613560213
  C   -1.71779474177000     -0.47595676855337      0.63303927541137
  N   -2.55322340959071     -0.84657396362822      1.37003437706125
  N   -0.58073581422435      1.36697749543892     -0.30711892836416
  H   -1.47552871596158      1.81571312332975     -0.45101333505645
  H   0.10070577436511      1.70561374489357     -0.97620557130313
  C   1.05783262839145     -0.33026801788638      1.45563913923182
  N   1.35361036831785     -0.07354943812049      2.56215792395911
  C   1.71186522048593     -0.24139098128340     -0.86787816888369
  N   2.50736197669964      0.14071811951593     -1.64217209099522
