13
Coordinates from ORCA-job run
  C   -0.51794519041823      0.17988505685324     -0.50622046992400
  C   0.96640654796338     -0.06918870305024     -0.13847760707627
  F   -0.62061066617793      0.01653232263872     -1.86506508698401
  H   1.52976668386241      0.66591211524988     -0.72542298831434
  C   -1.38688770893203     -0.84000810984423      0.13000691978188
  N   -2.09888554977704     -1.60066454347392      0.67370573161030
  N   -0.84988126994561      1.53567220716929     -0.20571764505188
  H   -0.80468054794967      1.71772188194414      0.79083759219413
  H   -1.78909527391762      1.73756706224943     -0.53102923325426
  C   1.38255522077870     -1.42138040008790     -0.51485112580524
  N   1.71502746322465     -2.50189352162381     -0.83072582353164
  C   1.17839045692300      0.18086513041718      1.28805972950202
  N   1.29683983436599      0.39797950155822      2.43590000685330
