13
Coordinates from ORCA-job run
  C   -0.47884947208906      0.17927048471461     -0.40898297246896
  C   0.70158207709907     -0.29580456644136      0.47591303889340
  F   -0.06315992096600      0.17426660237514     -1.71353754035021
  H   0.37211924078748     -0.28208676933809      1.52307417319262
  C   -1.59628303866981     -0.79148158241868     -0.29149043440355
  N   -2.50939431869934     -1.52080310403680     -0.16632899175553
  N   -0.81075182181609      1.52549595488290     -0.06856303484986
  H   -1.20442530027265      1.59137437457336      0.86253204386764
  H   -1.47784252310059      1.89567589651892     -0.73634050829662
  C   1.83501998535167      0.62100572542308      0.32317839180947
  N   2.75938012745805      1.33716566867885      0.22468140528418
  C   1.08659879264730     -1.66634317801432      0.12665430153619
  N   1.38600617226989     -2.76673550691761     -0.15178987245876
