13
Coordinates from ORCA-job run
  C   -0.62177221467091      0.12136494360172     -0.49751431406263
  C   0.89894721843735     -0.05283359132946     -0.17978943098098
  F   -0.70675640375962     -0.11570383503994     -1.85619286742151
  H   1.41795460428273      0.68574678982583     -0.80499071029629
  C   -1.40185276878955     -0.90523810837892      0.21601536842317
  N   -2.01047902170843     -1.71919444715303      0.80390591708943
  N   -1.13822821421995      1.40272708402469     -0.20642475606700
  H   -0.50048169799076      2.15833227557425     -0.41567543754769
  H   -1.53366213891350      1.49256176824368      0.71729426240918
  C   1.38282507784247     -1.38730284391104     -0.53693683952790
  N   1.76176389798612     -2.45915569351999     -0.83026091672642
  C   1.14587099040970      0.25222021780550      1.23007716023672
  N   1.30587067109434      0.52647544025673      2.36049256447189
