13
Coordinates from ORCA-job run
  C   -0.58533972054678      0.10457429355218     -0.41489536269442
  C   0.68593514357059     -0.29583278349003      0.41302800043441
  F   -0.21614505196916     -0.03992627280325     -1.73320674971075
  H   0.40869084884618     -0.28306286073008      1.47408581124593
  C   -1.65934962676903     -0.85680117370776     -0.09955893773065
  N   -2.49997728027938     -1.62247173967123      0.19241732490619
  N   -1.05427435429503      1.42207353165708     -0.21278435311107
  H   -0.31902677663437      2.11695611071675     -0.23230635459864
  H   -1.66464847084438      1.53044213010690      0.58299777055732
  C   1.72453422112102      0.71208047263395      0.18846255841232
  N   2.50706903405694      1.56704719774752      0.00117069374743
  C   1.15662420672645     -1.63628947016900      0.05996427935342
  N   1.51490782701693     -2.71878943584302     -0.21937468081144
