13
Coordinates from ORCA-job run
  C   -0.49389059320599      0.16483802457794     -0.40200449117709
  C   0.72781214186638     -0.26053865146192      0.45140984338477
  F   -0.06761468648695      0.36707446353913     -1.68739388523239
  H   0.38719698062550     -0.41909458163089      1.48296864747713
  C   -1.47907409774639     -0.94637551918556     -0.42489538888027
  N   -2.29889245421940     -1.78688529643180     -0.37479855010205
  N   -0.99907722179701      1.40729343733336      0.08499193540200
  H   -1.38382804730947      1.31761674084734      1.01775274039944
  H   -1.71837141115911      1.75774881496027     -0.53759892762133
  C   1.73500417337931      0.80437904880862      0.44205618797016
  N   2.56194533297993      1.63667594420753      0.45452089527447
  C   1.29161256284627     -1.51693794148499     -0.05089824785020
  N   1.73717732022693     -2.52479448407898     -0.45511075904463
