13
Coordinates from ORCA-job run
  C   -0.67897796421407     -0.15807472405106     -0.23993629625170
  C   0.78302011525676     -0.55809169148216      0.09835721706474
  F   -0.98915162119587     -0.89495099976582     -1.39110116659142
  H   0.82047315902206     -1.65226663263663      0.14629389473536
  C   -1.57948222102827     -0.63032142475978      0.82659389394160
  N   -2.29979939159468     -1.04019951425944      1.65833741649809
  N   -0.79564266809350      1.22950679261424     -0.39985723791033
  H   -1.75482773014830      1.52936226486578     -0.51299355706964
  H   -0.22082191692850      1.57771373959467     -1.15815233723756
  C   1.19407876304467      0.00109872849822      1.38704768419945
  N   1.52284088792696      0.42148338423001      2.43257097318736
  C   1.66372780420170     -0.10281599013725     -0.98146296255269
  N   2.33456278375099      0.27755606728923     -1.86669752201330
