13
Coordinates from ORCA-job run
  C   -0.64957888080404     -0.05822391746487     -0.09297866272644
  C   0.84106129323134      0.07639460080589      0.32062674970538
  F   -0.80123071923960     -1.34544352679088     -0.60759339993003
  H   0.95567978359169      1.04325844923344      0.82373699874176
  C   -1.49779873334216      0.03891190703687      1.10886277019314
  N   -2.17147949692476      0.12909234311990      2.06618948059812
  N   -0.98597882649708      0.96236498969646     -1.00278536073640
  H   -1.97913849879622      0.98132665953834     -1.19637417297936
  H   -0.46565506678122      0.87488834139647     -1.86857045363732
  C   1.67505562630911      0.06918836576604     -0.88483801327369
  N   2.30145232267738      0.07894223461590     -1.87770348010780
  C   1.23302846657668     -0.99838448928562      1.23519335090525
  N   1.54558272999885     -1.85331595766796      1.97623419324746
