13
Coordinates from ORCA-job run
  C   -0.50528063160355      0.16837306609255     -0.52323273026870
  C   0.97147322274905     -0.04351519302110     -0.10497065729564
  F   -0.55527839233719      0.01328069662868     -1.88619234415037
  H   1.53485208016417      0.71369787826051     -0.66315923757285
  C   -1.36760329676366     -0.88031179792550      0.07407148787935
  N   -2.07834742970742     -1.66073952922976      0.59091423359029
  N   -0.88496870538137      1.51157851274527     -0.22450064199120
  H   -0.86831890217069      1.69025858793862      0.77348261744394
  H   -1.82139572556379      1.68841727682143     -0.57150603733958
  C   1.43776460518680     -1.37932987797913     -0.48077473005656
  N   1.80874853360784     -2.44771005411490     -0.79505915984632
  C   1.12608962330581      0.19734424900592      1.33049331981208
  N   1.20126501851400      0.42765618477743      2.47943387979559
