13
Coordinates from ORCA-job run
  C   -0.61794940789165     -0.04434576558865     -0.43742921662975
  C   0.73772017621208     -0.64426597099638      0.01842753580053
  F   -0.81339365479938     -0.43692538238125     -1.73828666005989
  H   0.65369718649978     -1.73560120287866     -0.04860038368852
  C   -1.70587428923175     -0.65564100569782      0.36907167126444
  N   -2.56866030695984     -1.10731065235916      1.02726776287731
  N   -0.55957727688274      1.37621197257240     -0.41176271551456
  H   -1.42219916436094      1.77413660324264     -0.76437586231436
  H   -0.37999534750763      1.73393400615646      0.51916534558762
  C   1.00565513472052     -0.26497331544810      1.40736825699220
  N   1.17827608458018      0.07185331032165      2.51915809736481
  C   1.80982568826596     -0.19449611288690     -0.87341866735647
  N   2.68447517735539      0.12742351594372     -1.58658516432334
