13
Coordinates from ORCA-job run
  C   -0.58968425447598      0.12772142846281     -0.38590122904823
  C   0.92618317813965     -0.03252624348711     -0.10180209594984
  F   -0.72934703076065     -0.13797232340202     -1.75220525906759
  H   1.43452200219135      0.73727870757091     -0.69751401718614
  C   -1.36833290146284     -0.88931473481511      0.34074669456861
  N   -1.99300042866415     -1.70382857717970      0.91078451156956
  N   -1.00921552428710      1.41691108582913     -0.01481523745190
  H   -0.54615100489890      2.13599586498111     -0.55692935871652
  H   -2.01336539097083      1.52730145265099     -0.06835712297758
  C   1.40741983001136     -1.34475440235254     -0.54199690140529
  N   1.79609803101434     -2.39391229770683     -0.89687028083657
  C   1.21734010155998      0.18921664595683      1.31581954522209
  N   1.46653339260378      0.36688339349148      2.44904075127944
