13
Coordinates from ORCA-job run
  C   -0.71364971173031     -0.20343158713543     -0.34483046676514
  C   0.75319244630433     -0.58599675091359      0.06556719760205
  F   -0.92570308236349     -0.90529234840963     -1.51286681546195
  H   0.81350047653040     -1.67680615197930      0.15485197564848
  C   -1.62913475417816     -0.71133379895672      0.69457188185824
  N   -2.33498872310246     -1.12969218261755      1.53434124203319
  N   -0.96331075653889      1.16557763995596     -0.57865757096252
  H   -0.26278330405209      1.59969012622117     -1.16658874738203
  H   -1.13461708904358      1.69975476093927      0.26082183006434
  C   1.08067603106838      0.03911444680349      1.34726664220619
  N   1.29689627519800      0.56246929912247      2.37589554480230
  C   1.66482242956865     -0.13073465860840     -0.98578867055243
  N   2.35409976233923      0.27668120557827     -1.84458404309070
