13
Coordinates from ORCA-job run
  C   -0.56571647687405      0.10453097681643     -0.44037632042834
  C   0.67189483708883     -0.29631262546809      0.43635569092734
  F   -0.13788376852729     -0.01848156862485     -1.74331033688186
  H   0.34936715035630     -0.30053528373233      1.48460730957977
  C   -1.64417303188044     -0.86961101821181     -0.18540117277282
  N   -2.50088839102298     -1.63176246608044      0.06682502187004
  N   -1.05507422154805      1.41463972599953     -0.23964708086895
  H   -1.70991748924820      1.50407043452987      0.52232627933802
  H   -0.32626437946596      2.11567253094338     -0.20654279643526
  C   1.71056572698089      0.72282217446821      0.27073746134979
  N   2.49223345169814      1.58843005160876      0.13492904988957
  C   1.16889582222279     -1.62825408527962      0.08658860931683
  N   1.54796077022004     -2.70520884696906     -0.18709171488412
