13
Coordinates from ORCA-job run
  C   -0.67698301779950     -0.14082730147354     -0.25951749954610
  C   0.76688551753360     -0.58071124582103      0.10589006040778
  F   -0.97621400485234     -0.85098439761119     -1.43026912920331
  H   0.77718308861487     -1.67617170325542      0.13261582216830
  C   -1.61354849415456     -0.60801973370768      0.77775701702427
  N   -2.36060484977809     -0.99943373450378      1.59455193824257
  N   -0.75821414533590      1.25172203333365     -0.39855250143261
  H   -0.15731298088684      1.59810533307195     -1.13728056434378
  H   -1.70739138974411      1.57501139948958     -0.53026412117406
  C   1.16030834861235     -0.05561467981401      1.41437182218479
  N   1.47641484411177      0.34210492940058      2.47249878549302
  C   1.68359316840710     -0.12431944406424     -0.94323610444090
  N   2.38488391527165      0.26913854495511     -1.79856552537996
