13
Coordinates from ORCA-job run
  C   -0.52096911301415      0.15762431679276     -0.50843864824551
  C   0.96858352077820     -0.03926804089557     -0.13030486176441
  F   -0.60972975927776     -0.01617245580387     -1.86693505889005
  H   1.51004813967591      0.71316558036473     -0.71595293772103
  C   -1.35914014360351     -0.88722070791233      0.12801766118071
  N   -2.04878384692574     -1.67342485326101      0.66419727307570
  N   -0.89967002284909      1.50359390051872     -0.21788707043296
  H   -0.87372542736775      1.69050578908329      0.77845726200637
  H   -1.84037360496276      1.67379229304039     -0.55675720004463
  C   1.43339077261834     -1.37749036617379     -0.49935752368549
  N   1.80498334506687     -2.44654732678787     -0.81066148609690
  C   1.16285207498241      0.22504234530633      1.29611583482696
  N   1.27253406487905      0.47339952572823      2.43850675579120
