13
Coordinates from ORCA-job run
  C   -0.51647498745681      0.17176294183688     -0.51248265198032
  C   0.96514080254023     -0.07562804244095     -0.13282702208818
  F   -0.61202789752249     -0.01432713127877     -1.86913448529220
  H   1.53412774743286      0.64975256780990     -0.72652062641938
  C   -1.39168878524585     -0.83526786976848      0.13566530325613
  N   -2.10924831737591     -1.58072789786654      0.69307345797908
  N   -0.84640723586441      1.53262090556249     -0.23591990074982
  H   -0.79019112582637      1.73541667243528      0.75601804016559
  H   -1.78865817190609      1.72909010510399     -0.55553254372103
  C   1.37950690605607     -1.43390515933311     -0.48885230337393
  N   1.71204199428216     -2.52010467703429     -0.78463612402642
  C   1.17151495605294      0.19434107292051      1.29084669833007
  N   1.29136411483370      0.44697651205310      2.43130215792039
