13
Coordinates from ORCA-job run
  C   -0.70896154233966     -0.21541449717804     -0.34505469796151
  C   0.76101320472251     -0.57193412805633      0.07718625991243
  F   -0.90509258894787     -0.93351065021396     -1.50587077886011
  H   0.83649888731885     -1.66062988907512      0.17966034071865
  C   -1.62205773471336     -0.72604854684876      0.69516306450494
  N   -2.32647847569752     -1.16220935564594      1.52694286028502
  N   -0.97711770871520      1.14708980679821     -0.59599808863630
  H   -1.15946424551192      1.68840949904782      0.23661959041915
  H   -0.28003901750424      1.58440622366410     -1.18565740890504
  C   1.07235786916635      0.07335155656565      1.35302799914634
  N   1.27636722147980      0.61186420307436      2.37630422856620
  C   1.67223527788202     -0.11674086332742     -0.97448126155751
  N   2.36173885286024      0.28236664119542     -1.83684210763224
