13
Coordinates from ORCA-job run
  C   -0.45814597010841      0.14116568307199     -0.44655346564139
  C   0.68112147489991     -0.25056461020804      0.52843223881759
  F   0.02018231604042      0.03829293496435     -1.72523385192973
  H   0.30258919386086     -0.15399743430591      1.55443013559130
  C   -1.57413419323633     -0.82814881696074     -0.30392619424177
  N   -2.49549375243222     -1.53842143816498     -0.13634834532174
  N   -0.81516627137351      1.50628495256150     -0.22930069617309
  H   -1.45024971360313      1.81650048448737     -0.95632914021603
  H   -1.25643700933592      1.63961160826993      0.67278951913215
  C   1.81640517219940      0.65995392949349      0.35329200729665
  N   2.74143243086844      1.37210865636515      0.23523369602260
  C   1.08795621216906     -1.64200305542132      0.31124075743703
  N   1.39994011005145     -2.76078289415279      0.14127333922642
