13
Coordinates from ORCA-job run
  C   -0.65062116569754     -0.03214249703546     -0.09915086733625
  C   0.84165690385682      0.03033045030141      0.32591923058808
  F   -0.84344254260992     -1.28615347903581     -0.67755957877908
  H   0.98744604926141      0.96653938722047      0.87662727084923
  C   -1.50097088260504      0.03441921643548      1.10323937681016
  N   -2.17312583137744      0.09413360603909      2.06388316339280
  N   -0.94691679035558      1.04342208372423     -0.95837883632432
  H   -1.93784525246240      1.10612464693653     -1.15425469197792
  H   -0.42568029821207      0.98023403029437     -1.82577673985047
  C   1.68086091160704      0.05397167509885     -0.87570597856346
  N   2.31130674189482      0.10442411673608     -1.86465839083463
  C   1.19092087538657     -1.10081631213623      1.18843509543134
  N   1.46641128131334     -1.99548692457900      1.89638094659449
