16
Coordinates from ORCA-job run
  C   0.96093249813357     -0.28911312284507     -0.54327489168042
  C   -0.12493606421731      0.36162248465908      0.30160112599736
  F   0.39068324910031     -0.77072392575866     -1.72277098303590
  H   0.36856301207701      0.73590559078968      1.20990354519742
  H   1.68100561533581      0.47080700965713     -0.88086608450397
  N   1.56237566004716     -1.40347987170130      0.12884757218421
  H   2.43376946001270     -1.66835368968634     -0.31063094065022
  H   1.73434249702914     -1.19020697354826      1.10165782265736
  C   -1.20062101720864     -0.64783004567231      0.69524370724781
  H   -0.78559045781456     -1.49152623219633      1.24712602495876
  H   -1.68421100952472     -1.04372805556515     -0.19974899175361
  H   -1.96270678454212     -0.16749518417390      1.31420112378293
  C   -0.72618587043771      1.55066448858901     -0.44279842528150
  H   -1.19855677663957      1.21636458941780     -1.36850721101184
  H   -1.48441885407539      2.04546012718474      0.16870008893605
  H   0.03655484272433      2.29163281084988     -0.69868348304445
