16
Coordinates from ORCA-job run
  C   1.09170244219479     -0.19528130919123     -0.10689053786141
  C   -0.38251180191395      0.13911355026080     -0.25596452195704
  F   1.81104265213304      0.56410445292121     -1.06284334555969
  H   -0.68461045821458     -0.21184127092876     -1.25307301427726
  H   1.46895021741304      0.13828168282215      0.86562207095910
  N   1.34635575391598     -1.58314651129000     -0.25131393640663
  H   1.05279165915910     -1.89761794423944     -1.16842335904846
  H   2.33276592884675     -1.78046835472316     -0.14256153525052
  C   -0.60557791744367      1.64688235970107     -0.18483884033669
  H   -0.29129123997200      2.03415255296632      0.78982654526376
  H   -0.04083501942987      2.17001942722901     -0.95614244480923
  H   -1.66511877991248      1.88322095787810     -0.31000309435774
  C   -1.20276661048690     -0.59360686051554      0.80228788688788
  H   -0.89221842778306     -0.28369819854776      1.80537526958405
  H   -2.26425210369593     -0.35586382111951      0.69571770043081
  H   -1.07442629481026     -1.67325071322326      0.73222515673910
