16
Coordinates from ORCA-job run
  C   0.86222292163084     -0.49916660418856     -0.76595430511361
  C   -0.45915901955963      0.17876520284478     -0.43095435169212
  F   0.56659485453211     -1.62708635844875     -1.55178659521950
  H   -0.95421793379537      0.32594421011157     -1.39743421426679
  H   1.45229655584376      0.14052476785015     -1.43416210184361
  N   1.59279123525931     -0.90905512168076      0.38051392781728
  H   2.59058983876140     -0.80920513320690      0.29048495509933
  H   1.26608683042421     -0.51690414200588      1.24733852676458
  C   -0.23771662053103      1.54794118244112      0.20643526023380
  H   -1.18681559927144      2.07941439730347      0.30922881240290
  H   0.42923306212431      2.16927319000088     -0.39831023719404
  H   0.19764251982380      1.46447557658228      1.20624612405235
  C   -1.35489821640494     -0.71654725844460      0.42193459049848
  H   -1.46080680006231     -1.70078715009696     -0.03507932740023
  H   -2.34803160317186     -0.27105048418863      0.52103943899796
  H   -0.95581202560316     -0.85453627487323      1.43045949686325
