16
Coordinates from ORCA-job run
  C   0.91287808482357     -0.40008698737060     -0.77848040867831
  C   -0.45773782350092      0.17554631873527     -0.44100257073531
  F   0.68869928014603     -1.50187145163727     -1.62676447255412
  H   -0.94531712768033      0.35156381673886     -1.40658500320146
  H   1.47675324256183      0.31089362321670     -1.39159918160700
  N   1.68527439089435     -0.80275952296375      0.33809834828735
  H   1.19780970614900     -0.82385134269644      1.21738102367285
  H   2.58384305830760     -0.35986699057621      0.41566023767868
  C   -0.32356068417809      1.50941645882389      0.28641602653124
  H   -1.30529184641945      1.96136088425019      0.44751814428146
  H   0.14788134063183      1.38166163241084      1.26445986102869
  H   0.28032450247208      2.21927447362087     -0.28659614201276
  C   -1.31557876800550     -0.81810359865739      0.33928669776587
  H   -1.34469930855290     -1.78479126326246     -0.16444666963975
  H   -0.94382167298905     -0.97222114475031      1.35719393276123
  H   -2.33845637466005     -0.44416490588218      0.42846017642134
