11

C	-0.334347	-0.004389	-1.489243
C	0.0	0.0	0.0
Cl	0.200771	1.538907	-2.227414
H	1.092763	0.0	0.0
H	0.259818	-0.787508	-1.965126
H	-0.39594	0.897863	0.480056
C	-1.749765	-0.191773	-1.811347
N	-2.888268	-0.352775	-2.053324
C	-0.522109	-1.19112	0.638423
N	-0.941919	-2.164727	1.14749
F	2.534816	0.0	0.0
