11

C	-0.501694	0.035671	-1.438551
C	0.0	0.0	0.0
Cl	0.209048	-1.294064	-2.411404
H	1.092812	0.0	0.0
H	-1.584311	-0.104173	-1.514234
H	-0.314267	0.924303	0.499185
C	-0.177912	1.316439	-2.070005
N	0.079092	2.342242	-2.579526
C	-0.567063	-1.129258	0.709256
N	-1.028378	-2.045337	1.285279
F	2.525967	0.0	0.0
