12
Coordinates from ORCA-job run
  C   0.46834593621656     -0.47678455893309      0.55824720602018
  C   -0.65088789259272     -0.08290075439319     -0.42134966234920
  Cl  0.18881806867458      0.12454399046225      2.16512054728832
  H   -0.37146506016203     -0.48514636971134     -1.40245679245829
  H   0.57393351985881     -1.56189553734971      0.58013092810002
  N   1.77305951544985      0.04191754945245     -0.04415813824355
  O   2.42168029124136      0.88323350712646      0.55259133594286
  O   2.02972686446031     -0.46936843510578     -1.12993299265289
  C   -0.76122736106414      1.37453012578239     -0.52921014391594
  N   -0.82778961570577      2.54232090837674     -0.62933449522026
  C   -1.91925031287106     -0.68780853516489     -0.01031614123914
  N   -2.92394395350575     -1.20264189054228      0.31166834872791
