12
Coordinates from ORCA-job run
  C   0.43946562084253     -0.51754914929948      0.54586611616946
  C   -0.64024785031889     -0.05006216994829     -0.44643690606860
  Cl  0.11679859209060      0.00179236639382      2.17330442600560
  H   -0.34020860081681     -0.41163817722382     -1.43719151684516
  H   0.52584892314911     -1.60402357583776      0.51237423116788
  N   1.77126475956134      0.00953839693501      0.01477784149907
  O   2.41392002926987      0.80426911356213      0.67814200542102
  O   2.05395199072453     -0.44474959362939     -1.08970200810535
  C   -0.71022626770537      1.41332326418360     -0.48653635939258
  N   -0.73753514775445      2.58603815218048     -0.53570539096905
  C   -1.93435745350238     -0.64137163826196     -0.10138929870125
  N   -2.95867459554008     -1.14556698905435      0.17149685981898
