12
Coordinates from ORCA-job run
  C   0.46322720685898     -0.50305269120297      0.54028309602673
  C   -0.65492837273062     -0.06210877571254     -0.42030927380918
  Cl  0.20262123253792      0.05470134551437      2.16593544982746
  H   -0.38945348257044     -0.44141753470336     -1.41428724781119
  H   0.55314096942018     -1.58965784744140      0.52979074009247
  N   1.77225326395326      0.01381902918193     -0.05506717967527
  O   2.43735870744525      0.82692885593608      0.56225548411394
  O   2.01450354543112     -0.46922660568122     -1.15697631582822
  C   -0.73720803379806      1.40005357199169     -0.48595701436309
  N   -0.78222716023677      2.57136109449902     -0.55159351561167
  C   -1.93275956084995     -0.65174855601365     -0.01679974686317
  N   -2.94652831546087     -1.15065188636796      0.30172552390119
