12
Coordinates from ORCA-job run
  C   0.45480830714845     -0.37790051122446      0.73140745307542
  C   -0.87972556191604      0.12417365856969      0.17121294915419
  Cl  0.94742984531494      0.57361804610166      2.12161320902094
  H   -1.61316949171117     -0.02045158958380      0.97533323011078
  H   0.37316168341412     -1.42204365218223      1.03443351011700
  N   1.54844123230320     -0.34202304270038     -0.31571556619739
  O   2.52567806114598     -1.03539781576102     -0.06861772061294
  O   1.36498902714438      0.36699093203030     -1.29853693123847
  C   -1.29053091039478     -0.70491070884870     -0.96638087627085
  N   -1.62203425189418     -1.41675355764921     -1.83902375660879
  C   -0.87484687381851      1.55121137998843     -0.16324490434971
  N   -0.93220106673639      2.70248686125972     -0.38348059620018
