16

C	0.0	0.0	0.0
C	-0.567791	0.286417	-1.414097
Cl	1.793198	0.0	0.0
H	-1.649238	0.092092	-1.29925
C	-0.49639	1.011992	1.020885
H	-0.125415	2.005168	0.762925
H	-0.127145	0.745943	2.012357
H	-1.58992	0.990453	1.009004
C	-0.374061	-1.362241	0.399556
N	-0.594606	-2.470043	0.723599
C	-0.010769	-0.661119	-2.388426
N	0.444654	-1.405288	-3.174654
N	-0.399882	1.641776	-1.89547
H	-1.082704	2.236052	-1.4429
H	0.535183	1.984108	-1.705974
Cl	-3.626094	0.0	0.0
