16

C	0.0	0.0	0.0
C	-0.440056	-0.323209	-1.459267
Cl	1.789363	0.0	0.0
H	0.332916	-0.974429	-1.879764
C	-0.58354	1.287063	0.554392
H	-0.246421	2.139324	-0.037003
H	-1.676669	1.212856	0.514215
H	-0.273113	1.418583	1.591883
C	-0.37103	-1.132473	0.862285
N	-0.565955	-1.990577	1.640653
C	-0.397226	0.926478	-2.26128
N	-0.396784	1.879414	-2.949763
N	-1.679637	-1.050995	-1.468415
H	-2.467654	-0.576594	-1.003666
H	-1.959546	-1.261724	-2.418026
Cl	-4.251277	0.0	0.0
