16

C	0.0	0.0	0.0
C	-0.433702	-0.403485	-1.441757
Cl	1.789083	0.0	0.0
H	0.338168	-1.082652	-1.818224
C	-0.585487	1.31584	0.477951
H	-0.279743	1.505835	1.50806
H	-0.244993	2.133372	-0.158925
H	-1.678523	1.238928	0.436935
C	-0.3742	-1.082744	0.921575
N	-0.5806	-1.892944	1.747103
C	-0.372544	0.795818	-2.315635
N	-0.337865	1.699855	-3.066689
N	-1.676658	-1.125429	-1.421109
H	-1.953224	-1.379609	-2.361419
H	-2.464472	-0.62768	-0.980829
Cl	-4.239636	0.0	0.0
