16

C	0.0	0.0	0.0
C	-0.419271	0.124883	-1.515605
Cl	1.79216	0.0	0.0
H	0.268478	-0.537166	-2.055549
C	-0.593268	1.070082	0.893367
H	-1.686444	1.009552	0.821104
H	-0.296309	0.90351	1.930034
H	-0.248515	2.055287	0.574587
C	-0.402003	-1.340293	0.435846
N	-0.672512	-2.443283	0.73877
C	-0.1121	1.496699	-1.957891
N	0.152637	2.586873	-2.302761
N	-1.756752	-0.232554	-1.874762
H	-1.911623	-1.223062	-1.724844
H	-2.490982	0.233012	-1.333173
Cl	-4.2652	0.0	0.0
