16

C	0.0	0.0	0.0
C	-0.573333	-0.404242	-1.36758
Cl	1.796474	0.0	0.0
H	-1.665462	-0.398839	-1.190788
C	-0.495373	1.377032	0.409447
H	-1.587875	1.340187	0.433413
H	-0.157693	2.104493	-0.327171
H	-0.104881	1.630667	1.396532
C	-0.37349	-1.012931	0.996799
N	-0.587221	-1.846461	1.796516
C	-0.158457	-1.766277	-1.740125
N	0.168381	-2.826131	-2.129209
N	-0.245728	0.586459	-2.379375
H	0.641051	0.369789	-2.817588
H	-0.968691	0.590652	-3.087185
Cl	-3.672087	0.0	0.0
