16

C	0.0	0.0	0.0
C	-0.578193	-0.294346	-1.392457
Cl	1.796571	0.0	0.0
H	-1.668982	-0.314442	-1.207219
C	-0.493583	1.340565	0.519696
H	-0.095092	1.51571	1.520669
H	-0.160416	2.123457	-0.159937
H	-1.585637	1.303091	0.548414
C	-0.374236	-1.08648	0.914889
N	-0.59289	-1.973729	1.653352
C	-0.153346	-1.615135	-1.883143
N	0.190235	-2.63129	-2.36412
N	-0.268421	0.780958	-2.321643
H	-1.013177	0.854701	-3.002399
H	0.601269	0.595175	-2.80513
Cl	-3.668553	0.0	0.0
