16

C	0.0	0.0	0.0
C	-0.43704	-0.355376	-1.453819
Cl	1.801142	0.0	0.0
H	0.345013	-1.001312	-1.86689
C	-0.585715	1.296989	0.522347
H	-1.677833	1.225147	0.456831
H	-0.301609	1.442627	1.565421
H	-0.232116	2.139174	-0.073875
C	-0.362779	-1.116803	0.885123
N	-0.580685	-1.980367	1.650912
C	-0.427251	0.878634	-2.278283
N	-0.456931	1.81695	-2.986694
N	-1.664145	-1.105171	-1.446611
H	-2.455331	-0.634695	-0.985435
H	-1.944424	-1.328295	-2.392849
Cl	-4.233376	0.0	0.0
