14

C	0.0	0.0	0.0
C	-0.45945	-0.08017	-1.462636
F	1.380252	0.0	0.0
H	-1.553919	-0.15393	-1.377454
H	-0.392518	0.91833	0.421646
C	-0.416225	-1.152306	0.817989
N	-0.682333	-2.120851	1.427036
N	0.108649	-1.336003	-2.06092
O	1.23836	-1.280737	-2.541961
O	-0.5857	-2.349975	-2.009672
N	0.003516	1.028045	-2.25306
H	0.967466	1.246467	-2.024919
H	-0.584115	1.826746	-2.052977
F	-2.517875	0.0	0.0
