14

C	0.0	0.0	0.0
C	-0.500444	-0.268632	-1.46119
F	1.380118	0.0	0.0
H	-1.088343	-1.178819	-1.473915
H	-0.365751	0.968975	0.327696
C	-0.433649	-1.041873	0.9396
N	-0.568152	-1.910354	1.718385
N	0.730049	-0.557127	-2.28907
O	1.305099	0.391757	-2.814817
O	1.095415	-1.729533	-2.363808
N	-1.254078	0.774897	-2.084051
H	-2.057695	0.77798	-1.425751
H	-0.741305	1.645957	-1.998813
F	-2.474016	0.0	0.0
