14

C	0.0	0.0	0.0
C	-0.54897	-0.107012	-1.404045
F	1.383047	0.0	0.0
H	-1.673263	-0.148557	-1.136215
H	-0.36011	0.959341	0.36545
C	-0.431808	-1.036127	0.953079
N	-0.555148	-1.811295	1.825805
N	-0.110931	-1.393882	-2.053893
O	0.26495	-1.349326	-3.230502
O	-0.19932	-2.43214	-1.403405
N	-0.174293	1.044398	-2.162767
H	0.791457	0.973835	-2.459026
H	-0.743644	1.096517	-2.994764
F	-2.62373	0.0	0.0
