14

C	0.0	0.0	0.0
C	-0.438416	-0.035676	-1.473175
F	1.378234	0.0	0.0
H	0.474627	0.058429	-2.072626
H	-0.361813	0.899033	0.482225
C	-0.427343	-1.180342	0.765527
N	-0.537548	-2.146119	1.424674
N	-1.158593	1.289573	-1.80879
O	-0.797026	2.315664	-1.239037
O	-1.95123	1.256895	-2.742992
N	-1.178271	-1.181382	-1.833269
H	-1.451018	-1.10635	-2.805163
H	-2.009316	-1.071985	-1.220236
F	-2.442965	0.0	0.0
