21

C	-0.458854	0.023902	-1.466604
C	0.0	0.0	0.0
Br	0.276409	-1.584942	-2.38843
H	1.097172	0.0	0.0
C	-1.969027	-0.056242	-1.651672
H	-2.449601	0.800039	-1.166168
H	-2.222026	-0.034388	-2.714602
H	-2.376935	-0.974458	-1.225427
C	0.134905	1.219129	-2.203441
H	-0.032857	1.131817	-3.279531
H	1.209142	1.278677	-2.007973
H	-0.345936	2.141126	-1.85892
C	-0.496676	-1.204888	0.793718
H	0.022299	-1.232167	1.755377
H	-0.283616	-2.142964	0.279888
H	-1.573494	-1.148144	0.993311
C	-0.406445	1.285801	0.733623
H	-0.064014	1.210831	1.769253
H	0.07254	2.168626	0.308195
H	-1.491451	1.440482	0.751681
Cl	3.573505	0.0	0.0
