21

C	-0.26961	1.1e-05	-1.507649
C	0.0	0.0	0.0
Br	-2.249365	0.000651	-1.885423
H	1.101699	0.0	0.0
C	0.304344	1.243108	-2.172721
H	-0.191372	2.154423	-1.838417
H	0.201259	1.177861	-3.258975
H	1.367621	1.293501	-1.910453
C	0.303853	-1.243341	-2.172627
H	1.3671	-1.294159	-1.910359
H	0.200784	-1.178084	-3.258884
H	-0.192222	-2.154445	-1.838253
C	-0.481147	-1.252346	0.724275
H	-0.017178	-2.158064	0.331162
H	-1.569744	-1.356646	0.662764
H	-0.200963	-1.185069	1.779066
C	-0.481113	1.252378	0.724243
H	-0.017041	2.158063	0.331172
H	-0.201023	1.185072	1.779058
H	-1.5697	1.35676	0.662641
Cl	3.509367	0.0	0.0
