19

C	0.0	0.0	0.0
C	-0.25905	-0.057519	-1.568214
Br	1.979212	0.0	0.0
H	0.566892	0.529249	-1.982113
C	-0.417642	1.280544	0.559908
N	-0.597583	2.346053	1.024838
C	-0.44029	-1.181648	0.847121
H	0.015593	-2.099464	0.47087
H	-0.106075	-1.031954	1.877683
H	-1.536156	-1.158399	0.762552
C	-1.514427	0.561924	-2.178222
H	-1.28716	0.729959	-3.243449
H	-1.773273	1.511808	-1.714036
H	-2.37826	-0.077692	-2.043863
C	-0.093895	-1.485727	-2.078455
H	0.856881	-1.931751	-1.775174
H	-0.128045	-1.481914	-3.172875
H	-0.916077	-2.106079	-1.71743
F	-2.657909	0.0	0.0
