19

C	0.0	0.0	0.0
C	-0.293766	0.284787	-1.53364
Br	1.978178	0.0	0.0
H	0.552495	-0.182564	-2.051805
C	-0.414386	1.10058	0.867461
N	-0.645795	2.015207	1.570808
C	-0.555484	-1.319991	0.488068
H	-0.241546	-1.519566	1.517092
H	-1.654199	-1.154016	0.4162
H	-0.205505	-2.130477	-0.155866
C	-0.251604	1.787459	-1.811078
H	-0.283519	1.963474	-2.890503
H	0.656427	2.257653	-1.421723
H	-1.121643	2.273328	-1.358188
C	-1.549698	-0.33332	-2.147826
H	-1.574514	-1.419212	-1.992185
H	-1.492826	-0.153924	-3.23105
H	-2.454436	0.060843	-1.666831
F	-2.980864	0.0	0.0
