19

C	0.0	0.0	0.0
C	-0.279047	0.078366	-1.558145
Br	1.978223	0.0	0.0
H	0.520004	-0.539583	-1.980678
C	-0.427443	1.193389	0.721474
N	-0.664528	2.183124	1.309466
C	-0.554484	-1.251605	0.636386
H	-0.24003	-1.335874	1.679628
H	-1.653125	-1.09741	0.548726
H	-0.209128	-2.128817	0.081745
C	-0.090169	1.503168	-2.071964
H	-0.887543	2.148757	-1.697598
H	0.873066	1.925852	-1.778098
H	-0.142908	1.506425	-3.164888
C	-1.578962	-0.499193	-2.111587
H	-2.440798	0.082671	-1.795849
H	-1.759571	-1.506004	-1.737011
H	-1.452798	-0.556428	-3.201999
F	-2.938815	0.0	0.0
