14
Coordinates from ORCA-job run
  C   0.48427327674409     -0.44418699468643     -0.03564576035168
  C   -0.53779049094931      0.47584700530091     -0.00952735116952
  N   0.19202908667017     -1.82358979906836     -0.12019727979603
  H   -0.46021001589104     -2.07227806468654      0.61607165512810
  H   1.05371464020334     -2.34476797693335     -0.01574255789445
  N   1.84650430046172     -0.07183724233470     -0.09218095075021
  O   2.15310766628838      1.13532305798384     -0.15171524133903
  O   2.68611041547517     -0.98595653894078     -0.09179420502193
  N   -1.82307973828741     -0.06841175511522      0.04095617899222
  H   -1.97706540583719     -0.77027692470496     -0.67164857042853
  H   -2.56305338382210      0.61648664412160      0.06358100799545
  N   -0.41297737576872      1.83774166533462     -0.04893624859248
  H   0.52491557413468      2.16344845786757      0.13680840531174
  H   -1.16547854942176      2.35245846586180      0.37997091791635
