14
Coordinates from ORCA-job run
  C   0.54419942571622     -0.44815246978480      0.02075249148549
  C   -0.51417365295307      0.40250018697134     -0.18330460841643
  N   0.40477202671446     -1.83379231384263      0.17574318668052
  H   0.51583333538451     -2.18531668828693      1.11568472005607
  H   -0.42296247115309     -2.18742612977568     -0.27846637444177
  N   1.89611846647638      0.02933016483687      0.07920806385591
  O   2.16727470038291      1.17335446448339     -0.33047843864603
  O   2.72833987190780     -0.72327135775880      0.58839911951598
  N   -1.80007530760985     -0.11326619195275     -0.04567719168238
  H   -2.54282411536959      0.55098063245098     -0.19355755390918
  H   -1.93508697776026     -0.69627199969891      0.76536874257057
  N   -0.44921322584879      1.67979363356253     -0.68594024668407
  H   0.50041111011624      2.01897607474095     -0.76209843328813
  H   -1.09261318600386      2.33356199405444     -0.26563347709655
