14
Coordinates from ORCA-job run
  C   0.40546926472839     -0.42935373851662      0.13185373757453
  C   -0.57552003463064      0.51259123015474     -0.11427605852681
  N   0.05613563894693     -1.79896861674189      0.11220559736856
  H   0.54138153751267     -2.27783038080450     -0.63877807202881
  H   0.34824168267872     -2.24752014677136      0.97332921487067
  N   1.77867484431024     -0.07766573162046      0.30041100226378
  O   2.11348499243261      1.12036670039528      0.35848874969133
  O   2.58802930908986     -1.00866434696847      0.39493098533659
  N   -1.83164442804243      0.07585429202920     -0.46372686821880
  H   -2.58640451181111      0.62405665120390     -0.07982869568881
  H   -1.92571022478002     -0.92181832441021     -0.33000976406285
  N   -0.42802315963302      1.86412238481804     -0.03574330006466
  H   -1.01529428799193      2.39528525870142     -0.65872923981589
  H   0.53117937718974      2.16854476853093      0.05087271130115
