14
Coordinates from ORCA-job run
  C   0.39589300781970     -0.41615650760143      0.05023330403834
  C   -0.55187180933858      0.58758423948488      0.00327564136216
  N   -0.01552881929541     -1.76495915458236      0.08911117488295
  H   0.16284408905162     -2.23620797069038     -0.78865612952100
  H   0.45682047659562     -2.26853661262591      0.82613417677734
  N   1.79969990657064     -0.12695893419953      0.06955868870816
  O   2.17855235063168      1.05039198721991     -0.05782928392354
  O   2.57824947189309     -1.08051061081754      0.14618468002776
  N   -1.94615005580403      0.27773115373390     -0.04152618790569
  H   -2.14069329071336     -0.34247956260750      0.74384838636526
  H   -2.08771653586497     -0.34198058802034     -0.83505710950021
  N   -0.32441288395154      1.90812923074514     -0.04088873048826
  H   -1.12902526684948      2.50698267921832     -0.10789167570974
  H   0.62433935925502      2.24697065074282     -0.05649693511353
