14
Coordinates from ORCA-job run
  C   0.42157632768746     -0.42731584035310      0.07801068343118
  C   -0.58715460736198      0.51078564443926     -0.03405838408527
  N   0.07673499111912     -1.79720333315463      0.12668036433401
  H   0.44623941365363     -2.28480546485522     -0.68228400615839
  H   0.49383667473922     -2.23536259035170      0.94033176997076
  N   1.80385254415296     -0.07269026317500      0.03613369469158
  O   2.14057251553604      1.12613343074186      0.02794939643930
  O   2.62055956002452     -1.00184853304735      0.02107892732594
  N   -1.87982386788184      0.06856714127752     -0.18958506963802
  H   -2.57140825951272      0.62212861668441      0.29297319767537
  H   -1.95112729490140     -0.92714686254172     -0.02986114459172
  N   -0.43336161346450      1.86346221669814      0.00395645001891
  H   -1.10599876468337      2.38521609463502     -0.53504687567797
  H   0.52750238089285      2.16907974300251     -0.05627900373568
