14
Coordinates from ORCA-job run
  C   0.46521005019301     -0.35901572367184      0.14212041858509
  C   -0.56529610435697      0.53397481930216     -0.11814193772877
  N   0.93908225816112     -0.55507146511917      1.43559984099779
  H   0.99410145623824     -1.52207923517326      1.70386147646932
  H   1.81464526724824     -0.09842139815445      1.60648345318268
  N   1.02652875246679     -1.12866192071414     -0.89347600282136
  O   0.69487484428452     -1.01690665694095     -2.09833300006042
  O   1.86768100924749     -1.97136712895487     -0.51258459466791
  N   -1.05911045536278      0.77804853273650     -1.33381319420585
  H   -0.61221160825723      0.28845165519731     -2.09352025588102
  H   -1.78627195493505      1.44907026525524     -1.49460275375351
  N   -1.04036988711257      1.25740776091388      0.95627357840353
  H   -2.01786102649173      1.48882975805876      0.87759304746237
  H   -0.72100260132309      0.85374073726485      1.82053992401804
