14
Coordinates from ORCA-job run
  C   0.42576339489057     -0.42886479350786     -0.02207781711979
  C   -0.59456734684839      0.50327931647269     -0.02844282931297
  N   0.10179421375032     -1.79437531016857      0.14706232111926
  H   0.50195119659964     -2.14884340749760      1.00899093109833
  H   0.50373118940088     -2.34583895512931     -0.60287091513800
  N   1.80293359588294     -0.05548998696624     -0.07209958803791
  O   2.63440772817342     -0.96143212222068      0.06397159554252
  O   2.12065784369789      1.13429536974456     -0.25659741807536
  N   -1.87592094121090      0.07515607784042      0.22787044151688
  H   -2.58752712770072      0.53858593896752     -0.31660720128557
  H   -1.93500283080900     -0.93407397743524      0.22567680198631
  N   -0.46311801737267      1.83579181739572     -0.27736092235293
  H   -1.13024372337450      2.42582663238835      0.19380917242964
  H   0.49414082492052      2.15798340011624     -0.29032457237042
