14
Coordinates from ORCA-job run
  C   0.50138321475715     -0.33761284947257      0.11418342876413
  C   -0.57093318345625      0.51736319381155     -0.10334599540506
  N   0.96425704586034     -0.51837581200890      1.43788370884983
  H   0.99668511500582     -1.50736249865234      1.65954291265105
  H   1.91323729849596     -0.17304023014106      1.53443293677848
  N   1.11423195360363     -1.07190410546631     -0.93269064198546
  O   0.69469004491304     -0.95957200291572     -2.10315669839345
  O   2.05191812277500     -1.82075394583588     -0.62488722432557
  N   -1.05615016787762      1.21698076599602      0.97417450485962
  H   -0.70872632841584      0.84239866973943      1.84632608976419
  H   -2.04051249147216      1.43191201886394      0.95916939776740
  N   -1.10432420781002      0.80211168368801     -1.30952869579297
  H   -1.94053307056518      1.35397546985944     -1.37020366698240
  H   -0.81522334581386      0.22387964253439     -2.08290005654978
