14
Coordinates from ORCA-job run
  C   0.51586371857456     -0.48821455572917      0.12997771583964
  C   -0.48504215120609      0.39221458520773     -0.08693776519342
  N   0.39182106809778     -1.85304097811576      0.33879699719189
  H   1.04198911926973     -2.18393097829424      1.03893539093370
  H   -0.56987956428807     -2.07096132720392      0.56533524101413
  N   1.91032775625544     -0.05904436773668      0.05145418057926
  O   2.64823472747878     -0.47495435682962      0.94811743175725
  O   2.25575401738948      0.65744794294903     -0.88357961631455
  N   -0.22646680954725      1.74735174586115     -0.40826096694272
  H   -0.06090106910643      1.90125747491165     -1.39435670418881
  H   -0.97701211931895      2.34392939578877     -0.08882880855889
  N   -1.80698849134335     -0.15420128845384      0.02355076486518
  H   -2.37677558367915      0.40644867708157      0.64761098764928
  H   -2.26192461857646     -0.16130196943666     -0.88381484863195
