14
Coordinates from ORCA-job run
  C   0.54147577578286     -0.43925486389574      0.10811877097357
  C   -0.50909106781665      0.36475653356411     -0.25942210039862
  N   0.39160099215337     -1.77410868964595      0.50712069816629
  H   0.48800687148215     -1.95234869639862      1.49621081411111
  H   -0.43235588263314     -2.19992941810320      0.11174658928406
  N   1.89531729277690      0.03623131394227      0.09894945432236
  O   2.17855224102227      1.08663882438980     -0.50641055875634
  O   2.71581183355617     -0.61520750596821      0.74746664855575
  N   -0.43063630037770      1.53136463332365     -0.98143426975847
  H   -1.07500749111685      2.25213261253196     -0.69283399756626
  H   0.52178472530291      1.84783928621427     -1.10511694282294
  N   -1.79967094339447     -0.11305524026097     -0.04873055596389
  H   -1.94932826104551     -0.54024126646276      0.85176547884235
  H   -2.53645978569230      0.51518247676938     -0.32643002898897
