14
Coordinates from ORCA-job run
  C   0.43050029536318     -0.41718620910500      0.09073069998690
  C   -0.51506433196174      0.58170612861683     -0.05898658168564
  N   0.80155701729719     -0.81676352472647      1.39190704455052
  H   0.51977773378025     -1.77673810098316      1.56024167863621
  H   1.80999608803960     -0.79528558977967      1.49811534119079
  N   0.97961020346694     -1.12049827417023     -1.02247333995320
  O   0.67280624574208     -0.79322316360794     -2.18356100325732
  O   1.74712381138154     -2.05643413315829     -0.76550083557560
  N   -0.90750291146545      1.14776471561713     -1.23183498981646
  H   -0.58287267564209      0.65978480947438     -2.05417987990131
  H   -1.85431510599970      1.49079848825230     -1.25149634400648
  N   -1.12911771478282      1.07301685424225      1.07137094696002
  H   -1.31332583846164      2.06475757369896      1.04725367490134
  H   -0.66017281675734      0.75730042562887      1.90941358797022
