14
Coordinates from ORCA-job run
  C   0.43969476102208     -0.40297001090996      0.10216515692625
  C   -0.52619833508154      0.56982672376491     -0.07304767762869
  N   0.80512009052351     -0.77252308861880      1.41656288549270
  H   0.56479836845468     -1.74210633124860      1.59213894023989
  H   1.80946127562707     -0.70036936416235      1.53514139876274
  N   1.00670272101953     -1.12366074993093     -0.99211721820873
  O   0.73155615052441     -0.79943887976447     -2.16250538015886
  O   1.77309158734453     -2.05402705631825     -0.71329596920107
  N   -0.91840874144442      1.10701920429712     -1.26156746441329
  H   -0.57166132861561      0.61107238086402     -2.07034101107636
  H   -1.87859507878767      1.41030889901137     -1.29708722218475
  N   -1.16259579453692      1.07009667567973      1.03853712485727
  H   -1.36390931449397      2.05760932012646      0.99514052926339
  H   -0.70805636155569      0.77016227720975      1.89027590732950
