14
Coordinates from ORCA-job run
  C   0.42367868745204     -0.44610154422406     -0.00510061964903
  C   -0.58882126704175      0.49174306674571     -0.13958488842447
  N   0.07797433226779     -1.76403764463866      0.37601174467654
  H   0.30608425790059     -2.42113492025747     -0.36251931160705
  H   0.62735315060021     -2.03897454323460      1.18273087254349
  N   1.79814302823369     -0.10845441604565     -0.11617702055655
  O   2.62081603395182     -1.00932119835851      0.09603560136423
  O   2.13197762856963      1.05358632823080     -0.42543070376734
  N   -1.88109139862593      0.05182287780983      0.00030398906172
  H   -2.55566205118890      0.72613612883490      0.32506338683071
  H   -1.92092799440733     -0.85482505510586      0.44562491284512
  N   -0.41648612157789      1.77810209031805     -0.53582821099425
  H   0.53575522800593      2.11122735852459     -0.49372233961575
  H   -1.15879351413989      2.43023147140092     -0.34740741270737
