14
Coordinates from ORCA-job run
  C   0.42141537140967     -0.40052883604415      0.20264358967467
  C   -0.58057184516469      0.50047819658772     -0.13072876038124
  N   0.05660082681514     -1.72722218728698      0.52738845922347
  H   0.28758116067250     -1.93530221068805      1.49304141759935
  H   0.58793836100707     -2.37881854217868     -0.03938145420516
  N   1.79755129912935     -0.05905084199182      0.16122594614064
  O   2.61004389561117     -0.95049093201170      0.44358057929291
  O   2.14532200062809      1.09489565535701     -0.16358409786013
  N   -0.38526153231642      1.80295626356765     -0.43393627748147
  H   0.56628622422288      2.07748212987045     -0.62416195164311
  H   -1.14490618349213      2.33773724533423     -0.81558026618254
  N   -1.88038227109004      0.07284173704363     -0.02419482473199
  H   -1.93696066418231     -0.93278411531701      0.05891467666230
  H   -2.54465664325029      0.49480643775770     -0.65322703610767
