14
Coordinates from ORCA-job run
  C   0.42571203235511     -0.36868546200037      0.22088069745208
  C   -0.59163136704519      0.46191778145339     -0.20908139759352
  N   0.09219475251007     -1.62570352072073      0.77468247549529
  H   0.45046717824870     -2.37575047850373      0.19350058417811
  H   0.52744519977284     -1.73496385962463      1.68383548122586
  N   1.80442952480849     -0.05222464831792      0.02860431806974
  O   2.13192708971944      1.06102784914752     -0.42318126032491
  O   2.62794339091727     -0.92088798223429      0.34113928307961
  N   -0.44746117178222      1.73452195918276     -0.67218068875879
  H   0.50997181120910      1.99811415350023     -0.85687956944797
  H   -1.13306583941524      2.02248291550735     -1.35200014648011
  N   -1.88347710183944     -0.00801352256233     -0.16860643266026
  H   -1.94371206684090     -0.87523953852380      0.34756439257355
  H   -2.57074343261803      0.68340435369654      0.09072226319130
