14
Coordinates from ORCA-job run
  C   0.42552724463667     -0.41301423656485      0.12223004477674
  C   -0.58513515207109      0.46912416960047     -0.21025197286838
  N   0.08192768555222     -1.72015739765006      0.53564294942921
  H   0.57863825204413     -2.40667321946133     -0.02101941323304
  H   0.36372322538488     -1.87324363944742      1.49784469795539
  N   1.79751146730305     -0.02057686502244      0.17000902697237
  O   2.60422617504867     -0.85430170418970      0.59973995571681
  O   2.13663584214963      1.11185206603163     -0.22138283591901
  N   -0.42244007808179      1.72315217075520     -0.71600220272572
  H   -1.14524863928823      2.38016156146442     -0.46883535606170
  H   0.52827699811517      2.06197316934134     -0.67582296269004
  N   -1.88897600702129      0.06946806980133     -0.03390706469661
  H   -2.52440496364399      0.39023904851786     -0.74867534155703
  H   -1.94826205012801     -0.91900319317646      0.16943047490100
