14
Coordinates from ORCA-job run
  C   0.50556340268755     -0.33166077095075     -0.01856640087645
  C   -0.61947850606373      0.47070851491835     -0.04260007241214
  N   0.97866864897419     -0.87894977500343     -1.23292072340050
  H   1.95893322445306     -0.65391360658649     -1.36090161169944
  H   0.91664036303109     -1.89109986040319     -1.21491578224627
  N   1.14723833991599     -0.71369133132004      1.19801222162260
  O   2.07261713831572     -1.53023538177845      1.11109558142771
  O   0.77726214939729     -0.22106471335658      2.28028118576934
  N   -1.14131430672031      1.15272446224387      1.01462022434275
  H   -2.14024498025657      1.28202478789625      0.98742420833610
  H   -0.74448014480017      0.89252681996005      1.90638027698916
  N   -1.29041759336335      0.62418210537655     -1.23286815439139
  H   -1.66098221643181      1.54952499269087     -1.38772580049967
  H   -0.75900551913896      0.24792375631299     -2.00631515296180
