14
Coordinates from ORCA-job run
  C   0.41298036962216     -0.40928387103268      0.16809754819102
  C   -0.58160032252040      0.49659547887889     -0.14835429278851
  N   0.06182028065224     -1.76204320927252      0.37886760767153
  H   0.41406290943371     -2.08075981743072      1.27456088902563
  H   0.49036625609260     -2.35358903522184     -0.32476130866164
  N   1.79558176338704     -0.05306045689535      0.18178585987243
  O   2.60852612464822     -0.96915945172254      0.35649966789368
  O   2.13516560843584      1.13583481057834      0.03407089192272
  N   -0.42743673727618      1.84274475439263     -0.28574694931406
  H   -1.05574529907957      2.28015005466276     -0.94076256102549
  H   0.53583739495196      2.14519944514463     -0.31454133711241
  N   -1.86000028706884      0.02735987081995     -0.33884360880283
  H   -1.94595140239615     -0.93748192378596     -0.04952820285527
  H   -2.58460665888263      0.63649335088440      0.00965579598320
