14
Coordinates from ORCA-job run
  C   0.43915770343867     -0.46165956625132      0.05789833722374
  C   -0.54638527469189      0.48124231310921     -0.16155014061281
  N   0.05322921443984     -1.68714895296877      0.66904039234994
  H   0.40665724661479     -2.47943092280987      0.14429005055103
  H   0.47796871276846     -1.74973072672304      1.58884468038581
  N   1.81626221189888     -0.10732854282909      0.00127285323683
  O   2.16049035900792      0.86148886909468     -0.68951741753592
  O   2.62081497922693     -0.82762022451565      0.61003291356427
  N   -0.27574407270561      1.79131088678207     -0.55563696687387
  H   -1.13078199720160      2.30415089043135     -0.72408496137675
  H   0.34372061326858      1.80960611982920     -1.35516577955505
  N   -1.82528107759452      0.12147103776165      0.05871344153615
  H   -2.59560216021083      0.73956781696202     -0.10360651678947
  H   -1.94350645825960     -0.79491899787245      0.45946911389611
