14
Coordinates from ORCA-job run
  C   0.41927115368093     -0.43552646903621      0.03676886831126
  C   -0.58350315917471      0.50437680784093     -0.10946836627306
  N   0.06445597331935     -1.77070695920213      0.33521539928042
  H   0.49053836553802     -2.40434900842809     -0.33173219931419
  H   0.41798359994806     -2.03552126622600      1.24824053123381
  N   1.80330067825789     -0.08508813073409      0.01901176209896
  O   2.61173529530921     -0.98102292453189      0.29161517443402
  O   2.14974154648203      1.07458715739707     -0.27378452752361
  N   -1.88190473398627      0.12061066822772      0.13004603506848
  H   -1.95829360408210     -0.88260942474853      0.22819728681374
  H   -2.56198517013254      0.53597942596684     -0.48833937708057
  N   -0.41806099543310      1.80240747218042     -0.48692761830110
  H   -1.09552676189415      2.44635994000194     -0.11078662420887
  H   0.54424781216740      2.10950271129201     -0.48905634453929
