14
Coordinates from ORCA-job run
  C   0.42557240051575     -0.43009778259069      0.11405994139398
  C   -0.56621154956023      0.46735284909775     -0.25811046720684
  N   0.04240751545697     -1.72838041640009      0.52280557162186
  H   0.39993177617421     -2.42597806288360     -0.12121067627813
  H   0.45097264599446     -1.93880457391231      1.42672123246728
  N   1.79538734404937     -0.06902367386743      0.17742597522361
  O   2.15308010671647      1.08379495888381     -0.14122962817171
  O   2.59089595238000     -0.93456613691956      0.56815496060627
  N   -0.34894505749015      1.72721182916005     -0.69794336230149
  H   0.57848824317217      2.09378638575882     -0.54618783168540
  H   -1.12616334145925      2.35882195615560     -0.77554729545263
  N   -1.85598071100147      0.00277893994718     -0.30568693603117
  H   -1.95485712728368     -0.88184177512829      0.17264089462168
  H   -2.58557819766463      0.67594550269875     -0.13489237880732
