14
Coordinates from ORCA-job run
  C   0.44356425098689     -0.37896519774241      0.22108168699453
  C   -0.59547957777815      0.48792885611566     -0.07169116203578
  N   0.14292324288197     -1.71436034665797      0.57803119480525
  H   0.49820940962759     -2.34649242169526     -0.12651201390617
  H   0.60009451354202     -1.93315925041373      1.45202017254005
  N   1.78790469792812     -0.05390253243095     -0.13419361819353
  O   2.62454358660913     -0.96354873144371     -0.08248956241241
  O   2.07043411875571      1.11563570805665     -0.45650471723009
  N   -1.87415074064210      0.01850264686907      0.01828213880362
  H   -2.59883274892192      0.66001006290024      0.28822794973992
  H   -1.93484156560405     -0.93380588762925      0.34210387502451
  N   -0.45897877647332      1.80148239447933     -0.40466484560202
  H   0.48672723202749      2.06830510925518     -0.63984038367153
  H   -1.19311764293940      2.17336959033715     -0.98385071485635
