14
Coordinates from ORCA-job run
  C   0.42046053112381     -0.43458892165706      0.01750080420516
  C   -0.58082167388878      0.51237535571515     -0.08663641400943
  N   0.06188175269777     -1.79795026143860      0.11960051574572
  H   0.54208357885587     -2.34139920862751     -0.58891742799096
  H   0.35173167473841     -2.17489309540820      1.01545440396128
  N   1.79853670905601     -0.08090502269300      0.13568264197069
  O   2.15029395245249      1.10756971249603      0.01501196567528
  O   2.59748216125464     -1.00176413365153      0.34628158936561
  N   -0.40487439908045      1.84758074115378     -0.28941978119285
  H   0.55125932918928      2.15595444455667     -0.18416263815409
  H   -1.11501723925908      2.43814361877861      0.11324769513622
  N   -1.88822377427510      0.09768074263386      0.00977778873364
  H   -1.95883644023665     -0.91031560915574     -0.02203346496812
  H   -2.52695616262823      0.58351163729755     -0.60138767847815
