14
Coordinates from ORCA-job run
  C   0.41760788815444     -0.43354783543824      0.06124468678421
  C   -0.57222692876130      0.50977882037361     -0.14030418360351
  N   0.05236551974427     -1.79549928814995      0.15747456707688
  H   0.27165080244541     -2.15752231410480      1.07914334348360
  H   0.58698117109911     -2.34953890879640     -0.50221800371049
  N   1.78289945865477     -0.07623486245477      0.27619439810114
  O   2.14288580416804      1.11050677806652      0.16322313444606
  O   2.56343525373528     -0.99258782023665      0.56211020836748
  N   -0.38080334757278      1.84115482569156     -0.35418237282554
  H   0.56385100661531      2.15332544743625     -0.17975918162383
  H   -1.12044086510666      2.43798994053878     -0.01960581802456
  N   -1.88304201466404      0.09516999792659     -0.13913743788895
  H   -1.95169580419303     -0.91323956669437     -0.15774906970706
  H   -2.47246794431884      0.56924478584188     -0.80643427087544
