14
Coordinates from ORCA-job run
  C   0.47437485022934     -0.35537716719638      0.12177234053582
  C   -0.57890079253818      0.51339885950886     -0.09216135507577
  N   0.76849106763194     -0.75841067510368      1.44432571519721
  H   1.74507047011554     -0.58533746383117      1.65464360414537
  H   0.62432747249948     -1.75664454287705      1.55083099530880
  N   1.20473627161070     -0.95086376540453     -0.95109100113787
  O   0.99214384177471     -0.59328310963536     -2.12472681585515
  O   2.04445540998949     -1.80781148393264     -0.64948913122495
  N   -0.93143782485673      1.07000713661892     -1.28442203462202
  H   -0.46385748189085      0.66118074697161     -2.08104531787547
  H   -1.91472735586584      1.26273701122440     -1.39054065668649
  N   -1.35623581112889      0.87898679488292      0.98130622064723
  H   -0.94330974083969      0.58231810451737      1.85503496451510
  H   -1.66513037673100      1.83909955425675      0.96656247212818
