14
Coordinates from ORCA-job run
  C   0.43388136038572     -0.42122552179134      0.11355972737746
  C   -0.58212958166391      0.45642967841188     -0.23993326823197
  N   0.08347112555184     -1.71389146250894      0.56670729746717
  H   0.52502189909085     -1.89688287729374      1.46105821035003
  H   0.42951965656648     -2.42187210304948     -0.07215968019483
  N   1.80239112772172     -0.04937652779201      0.09542146565628
  O   2.62501176264989     -0.90299206993528      0.45510896455830
  O   2.13261895600979      1.10119647356170     -0.25882440211802
  N   -1.86891963308611     -0.02107988819939     -0.22514215886527
  H   -2.59309594506594      0.64785078213651     -0.01744559610683
  H   -1.93507733934321     -0.90040722851580      0.26858592805272
  N   -0.39750886916265      1.70875448669305     -0.71030488880718
  H   0.53083164521714      2.09118942317694     -0.61808615573425
  H   -1.18701616487158      2.31930683510590     -0.81954544340363
