14
Coordinates from ORCA-job run
  C   0.54380079893510     -0.42947432459246      0.13029777789323
  C   -0.51596562775390      0.43872610176751      0.03707900807149
  N   0.40367706957078     -1.79113385249041      0.42894457429815
  H   -0.42726102569582     -1.98128029576702      0.96722197441029
  H   0.52461443174830     -2.42822919087968     -0.34476515027370
  N   1.89749347254231      0.00762282600008     -0.06050749638951
  O   2.73551929401743     -0.86657737119384     -0.28765529812749
  O   2.16420613074105      1.22356829119110     -0.03953866071183
  N   -0.45615458315436      1.81020138442526      0.10134373342582
  H   -1.09315391429043      2.29073974885715     -0.51622195394906
  H   0.49286875270781      2.15841727665419      0.07473769128416
  N   -1.80065600401666     -0.09747880264292      0.05763231380070
  H   -2.54387713865349      0.57726603830917     -0.02651658159269
  H   -1.92611165669812     -0.91236782963812     -0.52205193213959
