14
Coordinates from ORCA-job run
  C   0.42593041169883     -0.42296330212984      0.07176492656787
  C   -0.59390973990541      0.50402330474494     -0.03273305121941
  N   0.09847036227205     -1.79794911090322      0.08382726767168
  H   0.48486641135570     -2.26227605274872     -0.73090476724829
  H   0.50986430506831     -2.24973697579553      0.89286123041879
  N   1.80376282322149     -0.04962186801505      0.06745671668268
  O   2.12396948512355      1.15355481275250      0.09119425766621
  O   2.63322416108646     -0.96735876644104      0.05039589501137
  N   -1.87753565213458      0.04822820285134     -0.22084852530478
  H   -2.58482923288500      0.58029376107980      0.26308227693082
  H   -1.93583299076088     -0.95192453255458     -0.08478903822845
  N   -0.45888267218674      1.85724136221639      0.04116766206589
  H   0.49868343168342      2.17642419437429      0.00354566473577
  H   -1.12978110363720      2.38306497056871     -0.49602051575015
