14
Coordinates from ORCA-job run
  C   0.50909834882815     -0.47324041216638      0.12971414137174
  C   -0.47714928624625      0.41966969123366     -0.10871804384342
  N   0.31414197312644     -1.81788593213613      0.41514958631219
  H   -0.60748878832771     -1.95166880285397      0.81425527390645
  H   1.04754142394921     -2.17619184450307      1.01208558783163
  N   1.91690290968246     -0.11094827257138      0.00358895329831
  O   2.27407689478176      0.57171964746766     -0.95032124887340
  O   2.66236283169799     -0.56164815164623      0.87939281573239
  N   -0.19636103312409      1.78835827940792     -0.34266316895367
  H   -0.72677481121683      2.38068971284170      0.28401260611150
  H   -0.39209541861584      2.05821521986363     -1.29893441827143
  N   -1.80023114476207     -0.11134105844189     -0.05095418290956
  H   -2.04160034748096     -0.63137226836281     -0.88747647949249
  H   -2.48542355229225      0.61564419186730      0.09886857777977
