14
Coordinates from ORCA-job run
  C   0.54117290692021     -0.45064981176215      0.02080330269357
  C   -0.51221922631068      0.40712674166100     -0.18025190807701
  N   0.39033529401514     -1.83550011676467      0.16922816631499
  H   0.50161005755625     -2.19586094107943      1.10555172451806
  H   -0.43630329051468     -2.18408221932271     -0.29040894734957
  N   1.89715373910128      0.01555082591771      0.07232073018830
  O   2.72727485152546     -0.74642690726293      0.57078396508343
  O   2.17369113109492      1.16078852948685     -0.33064409322098
  N   -1.80122196629756     -0.10146500861385     -0.04231687704406
  H   -1.93396105678498     -0.68936360414398      0.76579147216898
  H   -2.53865399850773      0.57222031217679     -0.17432434853364
  N   -0.43968330806448      1.68554875801216     -0.67798193325704
  H   -1.08011864275212      2.34234155308580     -0.25789365212560
  H   0.51192350901898      2.01977188860941     -0.75165760135944
