14
Coordinates from ORCA-job run
  C   0.40314770457184     -0.57572728255821      0.05749315763226
  C   -0.50944564095414      0.44227680303014     -0.06840118659568
  N   0.71740197811040     -1.18601058298502      1.27902016501750
  H   -0.03945601048062     -1.12381236366903      1.94220868047489
  H   1.61038752223606     -0.93769469384826      1.67930428407003
  N   1.10266398451579     -1.10760997301585     -1.07700310672213
  O   0.69894707967452     -0.85630953872196     -2.22755746795200
  O   2.11950860346419     -1.76313495437218     -0.84315539527596
  N   -1.12846016707205      0.84536057854496     -1.22750801764799
  H   -0.73275514332055      0.40933683226060     -2.04969960557197
  H   -1.26244417597082      1.84206109564702     -1.31043715872465
  N   -1.00633538352294      1.01964469431426      1.09723741116364
  H   -0.30907589337735      1.22287387728547      1.79612911234619
  H   -1.66408445787435      1.76874550808808      0.95236912778588
