14
Coordinates from ORCA-job run
  C   0.44408594244176     -0.29103679405995      0.36467366143230
  C   -0.59733146858218      0.41519746327796     -0.24711093277482
  N   0.16476812811023     -1.61094125530284      0.77855257386844
  H   0.27647652212235     -2.27425960252250      0.01859040824352
  H   0.77263058142916     -1.89125505336702      1.53485347151874
  N   1.80898631653538      0.11430700479920      0.25235465216610
  O   2.69120531116158     -0.72591442452717      0.47370310657327
  O   2.06465167804193      1.30024567423047     -0.05961899289524
  N   -0.46018650296485      1.54877269779002     -0.99545917517996
  H   -1.22149510039829      2.20386110748097     -0.89184300995924
  H   0.45105453845482      1.96838253350046     -0.86497107245820
  N   -1.84435091258390     -0.08714758384453     -0.11810560216072
  H   -2.59976063637053      0.24074305512067     -0.68972716512328
  H   -1.95073439739746     -0.91295482257572      0.44510807674908
