14
Coordinates from ORCA-job run
  C   0.42003370403758     -0.40803556134982      0.15189190679995
  C   -0.58322929401838      0.50252837575251     -0.12135247817726
  N   0.06341900519048     -1.72674141359886      0.51560038841082
  H   0.39085353888282     -2.38720504633685     -0.18108936951401
  H   0.51337116071761     -1.98363013486841      1.38713662596938
  N   1.80232249830702     -0.09886701628467     -0.02381857927223
  O   2.15062476218721      1.06182063796160     -0.31076231227199
  O   2.60811629796237     -1.02438839351386      0.13379713996635
  N   -0.41328301245452      1.82690466859958     -0.38848572533136
  H   0.54703273083198      2.09189029998843     -0.55535894904003
  H   -1.10471567524121      2.23243795079330     -0.99883983731521
  N   -1.88578751232493      0.06236840060770     -0.12104490911687
  H   -2.54969476310968      0.72196122331025      0.25542131184915
  H   -1.95906344096836     -0.87204399106090      0.25790478704332
