15

C	0.0	0.0	0.0
C	-0.53097	-0.233082	-1.417713
Br	1.957608	0.0	0.0
H	-1.626742	-0.210376	-1.283303
N	-0.491351	1.258467	0.47875
H	-1.520081	1.185014	0.4672
H	-0.194531	1.402544	1.437286
C	-0.339555	-1.16429	0.845956
N	-0.574352	-2.029367	1.607422
N	-0.141303	-1.537489	-1.91863
H	-0.82065	-1.854006	-2.595543
H	0.766226	-1.493535	-2.363835
C	-0.133434	0.87863	-2.297063
N	0.217993	1.67516	-3.089623
Cl	-3.523641	0.0	0.0
