15

C	0.0	0.0	0.0
C	-0.357209	-0.045333	-1.552069
Br	2.065256	0.0	0.0
H	0.569838	0.103199	-2.108767
N	-0.482777	1.11635	0.708636
H	-0.540727	1.892593	0.054977
H	-1.443503	0.898659	0.990269
C	-0.315575	-1.242133	0.702786
N	-0.503213	-2.24056	1.294203
N	-1.232361	1.065033	-1.870779
H	-1.337492	1.118598	-2.877483
H	-2.151226	0.870584	-1.452864
C	-0.841867	-1.380944	-1.955017
N	-1.160379	-2.423579	-2.395379
Cl	-3.505814	0.0	0.0
