15

C	0.0	0.0	0.0
C	-0.354485	0.09188	-1.548759
Br	2.028739	0.0	0.0
H	0.543081	0.43997	-2.064495
N	-0.509687	1.053946	0.792043
H	-0.606188	1.870244	0.195787
H	-1.458313	0.794942	1.075204
C	-0.337986	-1.294224	0.592449
N	-0.558532	-2.336091	1.089886
N	-1.378729	1.091973	-1.757537
H	-2.261216	0.776914	-1.32797
H	-1.524263	1.207479	-2.753836
C	-0.627807	-1.250058	-2.105989
N	-0.840037	-2.260517	-2.667823
Cl	-3.717447	0.0	0.0
