15

C	0.0	0.0	0.0
C	-0.322186	0.048311	-1.554281
Br	1.956225	0.0	0.0
H	0.353891	0.826846	-1.922689
N	-0.56446	1.164426	0.613238
H	-1.585056	1.054207	0.553473
H	-0.323473	1.183325	1.599189
C	-0.379501	-1.277014	0.622982
N	-0.657948	-2.275241	1.180292
N	-1.64252	0.386883	-1.989038
H	-2.376782	-0.148018	-1.521643
H	-1.830878	1.354462	-1.758939
C	0.100593	-1.221932	-2.171087
N	0.420317	-2.230117	-2.681463
Cl	-3.948516	0.0	0.0
