15

C	-0.270148	0.101668	-1.483375
C	0.0	0.0	0.0
Br	-2.293331	0.611208	-1.796666
H	1.102926	0.0	0.0
H	-0.382426	-0.94664	0.392113
N	0.456882	1.211437	-2.01269
H	1.440559	1.069915	-1.772286
H	0.350702	1.280855	-3.017184
N	-0.026849	-1.131319	-2.124933
H	-0.609651	-1.869941	-1.753508
H	-0.155623	-1.066332	-3.125987
N	-0.535333	1.129427	0.765828
H	0.128099	1.30639	1.513179
H	-0.48455	1.941518	0.158435
Br	3.627473	0.0	0.0
