15

C	-0.549203	0.017099	-1.419054
C	0.0	0.0	0.0
Br	-0.117607	1.711225	-2.32432
H	1.091164	0.0	0.0
H	-0.318859	-0.984728	0.40412
N	0.066877	-1.030182	-2.180345
H	0.158094	-1.87617	-1.630553
H	-0.424098	-1.208682	-3.0453
N	-2.018065	0.001032	-1.343519
H	-2.289473	-0.95422	-1.128603
H	-2.403944	0.234954	-2.25077
N	-0.496123	1.125013	0.767528
H	-1.489437	1.024003	0.927753
H	-0.002096	1.169887	1.648979
Br	3.827266	0.0	0.0
