15

C	-0.434608	0.179265	-1.447144
C	0.0	0.0	0.0
Br	-0.223429	-1.571762	-2.43704
H	1.091164	0.0	0.0
H	-0.302802	0.943217	0.485762
N	-1.861	0.463607	-1.539302
H	-2.182255	0.311947	-2.48854
H	-1.95565	1.455618	-1.334504
N	0.374318	1.20236	-2.015337
H	0.244131	1.26232	-3.017334
H	1.360136	1.040027	-1.80942
N	-0.53604	-1.181978	0.642819
H	-1.437751	-0.983839	1.051962
H	0.102654	-1.471237	1.370571
Br	3.648119	0.0	0.0
