15
Coordinates from ORCA-job run
  C   0.70658340610640      0.39625636778414     -0.28339802510377
  C   -0.49231014719350     -0.31882140528857      0.34695171563572
  F   0.33494270064209      1.57962332473507     -0.81358265708310
  H   -0.11132024114983     -1.24387623352369      0.79155897091480
  C   1.36273004345090     -0.43223789178437     -1.29808595172887
  N   1.85176820740272     -1.10642339030778     -2.12681423588936
  N   1.73793348501237      0.67078059250287      0.82433224023802
  O   2.19785531061914     -0.34042322886419      1.33734892976847
  O   1.97054792160392      1.83549648552388      1.09331567478605
  C   -1.56463792802116     -0.62856911912727     -0.70189515857076
  H   -1.91532485509602      0.28911082009942     -1.17451608757049
  H   -1.16606159499122     -1.29834420221464     -1.46619663199766
  H   -2.41262137615690     -1.11838996169053     -0.22213949746187
  C   -1.02561837593711      0.52279299856554      1.42043518034128
  N   -1.47446655629180      1.19302484358992      2.27368553372154
