15
Coordinates from ORCA-job run
  C   0.88169521496442     -0.30167728009062     -0.36397103003095
  C   -0.63722390249786     -0.45767965996310     -0.25090492689994
  F   1.38753733501421     -1.28143504694482     -1.14964707833962
  H   -0.99679140389653     -0.49329883705735     -1.28632706943304
  C   1.56084436137922     -0.28566548073458      0.93099602666579
  N   2.07098508941266     -0.32131546214267      1.98890290342646
  N   1.13362934248116      1.02887594023175     -1.08435565290964
  O   1.49280661233890      1.97763305177868     -0.39941139148111
  O   0.88508391990705      1.01563814130854     -2.28095023570699
  C   -1.29454781423167      0.69658497213949      0.51024566461757
  H   -0.87767861189141      0.78937317360970      1.51466939613115
  H   -2.36461894120648      0.50721362247110      0.59802836348646
  H   -1.15741727536954      1.63993818254211     -0.01956172403450
  C   -0.91915000330037     -1.74685958090885      0.38110565613149
  N   -1.16515392310376     -2.76632573623939      0.90918109837687
