15
Coordinates from ORCA-job run
  C   0.89852265818946     -0.24906394913482     -0.36246604286631
  C   -0.61261986422569     -0.47818344573259     -0.27300037531994
  F   1.45752032328943     -1.17825360670008     -1.17303116880783
  H   -0.95885922478230     -0.49537044265039     -1.31339974731299
  C   1.56292838672971     -0.24324540593414      0.94016863791209
  N   2.06342338298429     -0.28843539346856      2.00231494385970
  N   1.09582870026908      1.11464417569276     -1.03704359934069
  O   0.86170845072685      1.12876359554976     -2.23653911524206
  O   1.40265236670631      2.05622841919970     -0.31757836258141
  C   -1.33080827883003      0.61890951175546      0.51741349278666
  H   -2.39138838757065      0.37613567874624      0.58776979402500
  H   -1.23391120056552      1.58430720154976      0.01927418710646
  H   -0.92767535407409      0.69883947017241      1.52852752881129
  C   -0.84176063615924     -1.79916299503340      0.31280008160585
  N   -1.04556132268760     -2.84611281401210      0.80378974536418
