15
Coordinates from ORCA-job run
  C   0.93420424493304     -0.22335243425916     -0.27864232904956
  C   -0.56445012815906     -0.53496099730692     -0.27547865172942
  F   1.60054088930953     -1.17285920295844     -0.97725439292378
  H   -0.83100316205939     -0.65496707848169     -1.33234254663881
  C   1.50345287889084     -0.08540970181370      1.06124540271405
  N   1.93759549192665     -0.02698838782811      2.15157909871080
  N   1.10430523727015      1.09834494789564     -1.03916747303634
  O   0.94566895315886      1.01349525471335     -2.24810687795763
  O   1.31552945432365      2.10470301932631     -0.37523534132747
  C   -1.39655328104311      0.57794268275708      0.36760674162337
  H   -1.31898557453856      1.50195625222567     -0.20681110417052
  H   -1.07060332450426      0.76780132253767      1.39188863183036
  H   -2.44431725802060      0.27761213114708      0.38989788941334
  C   -0.76622984675471     -1.81551650369804      0.40264495696213
  N   -0.95115457473302     -2.82780130425674      0.96817599557949
