15
Coordinates from ORCA-job run
  C   0.72983868707992      0.37494251857636     -0.25005938915318
  C   -0.51346646924696     -0.31179817836410      0.32353845408610
  F   0.42534503947050      1.60071728319766     -0.72278357174945
  H   -0.18483375821650     -1.27346807061085      0.73045715914080
  C   1.36467925702467     -0.43035932738136     -1.29633906991869
  N   1.84045103085843     -1.07797981984601     -2.15351008389690
  N   1.75263588267720      0.54099163900632      0.88718807691470
  O   2.15324532885157     -0.51655983152720      1.35428751057885
  O   2.03679743796335      1.67753139288801      1.21969734827017
  C   -1.57775966626768     -0.52057414047896     -0.75797297591341
  H   -2.45810840211100     -0.98926072724941     -0.31697319450603
  H   -1.19660407163291     -1.17368628741536     -1.54523576539328
  H   -1.87404104025338      0.43385107371593     -1.19370071406863
  C   -1.02938207908616      0.50497314464088      1.42457592497487
  N   -1.46779717711105      1.15867933084809      2.29583029063410
