15
Coordinates from ORCA-job run
  C   0.84798266593998     -0.12288356707527     -0.49017324990564
  C   -0.52490301064631     -0.62476492068320     -0.01828461263497
  F   0.85053742378896     -0.08556415196737     -1.84266860335242
  H   -0.66723234243422     -1.56830921492807     -0.55952670667000
  C   1.96609886166866     -0.93213819069615     -0.00674915258723
  N   2.85255796488295     -1.61750648574751      0.34711614141196
  N   1.03932712264584      1.31209903059831      0.01610637542421
  O   0.89463838866282      2.20772061002933     -0.79900608548648
  O   1.26191601027129      1.40208497417336      1.21582127150007
  C   -1.64045193153061      0.35704464185918     -0.39159420478462
  H   -2.60765863964663     -0.11211105832785     -0.20843228122887
  H   -1.58200783819646      1.26346896030323      0.21274802128327
  H   -1.57169732577688      0.62422708097754     -1.44645491341986
  C   -0.52709304825619     -0.92369018669179      1.41272409478128
  N   -0.59201430137322     -1.17767752182371      2.55737390566929
