15
Coordinates from ORCA-job run
  C   0.88022871569321     -0.28461479625220     -0.37977857174643
  C   -0.63928353830453     -0.43998491590495     -0.27615518578531
  F   1.38214795310641     -1.22075197111440     -1.21936356125447
  H   -0.99842174363177     -0.41470574353362     -1.31204116777472
  C   1.55962107773490     -0.34452603630389      0.91372530587750
  N   2.07006842651141     -0.44165077361730      1.96763242681713
  N   1.13864234132743      1.08332801035426     -1.02418650089405
  O   1.50111962159196      1.99048494303423     -0.28658123081774
  O   0.89215439473214      1.13838092595448     -2.22001965424554
  C   -1.29208785065191      0.67201666406486      0.54923765032321
  H   -1.15118778252917      1.64326487237993      0.07351526132483
  H   -0.87469099991389      0.70628144400678      1.55715521806042
  H   -2.36292425889084      0.48219750036840      0.62611801603427
  C   -0.92754053342192     -1.76179229605856      0.28109255011223
  N   -1.17784582335342     -2.80892782737803      0.74964944396866
