12

C	-0.364554	-0.026555	-1.492146
C	0.0	0.0	0.0
Cl	-2.127471	-0.218523	-1.761122
H	1.098084	0.0	0.0
H	0.124149	-0.899232	-1.932727
C	0.093397	1.181878	-2.172593
N	0.41147	2.163942	-2.733688
C	-0.459085	-1.219436	0.659504
N	-0.815691	-2.210221	1.179529
C	-0.517222	1.187487	0.670673
N	-0.933923	2.146281	1.206111
Br	3.279206	0.0	0.0
