12

C	-0.490697	-0.029656	-1.464316
C	0.0	0.0	0.0
Cl	0.128834	1.385592	-2.346049
H	1.096632	0.0	0.0
H	-1.581717	0.036825	-1.489566
C	-0.093339	-1.264406	-2.137
N	0.146134	-2.264475	-2.704332
C	-0.489302	-1.188008	0.698437
N	-0.903197	-2.146565	1.237189
C	-0.491392	1.204802	0.666278
N	-0.903433	2.168373	1.197218
Br	3.297724	0.0	0.0
