12

C	-0.389398	0.01558	-1.492758
C	0.0	0.0	0.0
Cl	0.148712	-1.484609	-2.279662
H	1.096521	0.0	0.0
H	0.164593	0.83545	-1.956965
C	-1.823994	0.198369	-1.703077
N	-2.975625	0.355206	-1.873422
C	-0.533091	-1.165394	0.696851
N	-0.966384	-2.105793	1.251084
C	-0.456599	1.238564	0.629084
N	-0.81355	2.250867	1.106734
Br	3.292146	0.0	0.0
