12

C	-0.490587	-0.024282	-1.464442
C	0.0	0.0	0.0
Cl	0.128257	1.394416	-2.341146
H	1.096654	0.0	0.0
H	-1.581659	0.041593	-1.489685
C	-0.092245	-1.256371	-2.141392
N	0.148239	-2.25414	-2.712074
C	-0.487959	-1.191125	0.693891
N	-0.889395	-2.158193	1.226858
C	-0.491308	1.202276	0.670852
N	-0.903119	2.164392	1.204812
Br	3.296562	0.0	0.0
