12

C	-0.490363	-0.008019	-1.46486
C	0.0	0.0	0.0
Cl	0.134558	1.4172	-2.325628
H	1.096594	0.0	0.0
H	-1.580944	0.063271	-1.489268
C	-0.098507	-1.234129	-2.156593
N	0.137365	-2.227546	-2.73831
C	-0.488232	-1.199373	0.679679
N	-0.889334	-2.172237	1.20222
C	-0.490497	1.195059	0.683943
N	-0.897079	2.154902	1.226234
Br	3.297423	0.0	0.0
