12

C	-0.490145	-0.028442	-1.464716
C	0.0	0.0	0.0
Cl	0.126784	1.388349	-2.346275
H	1.096629	0.0	0.0
H	-1.581279	0.035915	-1.490207
C	-0.090373	-1.262158	-2.137736
N	0.150524	-2.261544	-2.705143
C	-0.488949	-1.189342	0.696664
N	-0.90133	-2.149195	1.234396
C	-0.491806	1.20388	0.667789
N	-0.90252	2.166894	1.200366
Br	3.298257	0.0	0.0
