12

C	-0.389699	0.011231	-1.492729
C	0.0	0.0	0.0
Cl	0.150836	-1.48998	-2.275823
H	1.096516	0.0	0.0
H	0.162827	0.830851	-1.959086
C	-1.824707	0.191015	-1.703664
N	-2.976527	0.348674	-1.87311
C	-0.532359	-1.163605	0.700538
N	-0.966814	-2.098646	1.263056
C	-0.457209	1.239926	0.625673
N	-0.818147	2.252841	1.098963
Br	3.293118	0.0	0.0
