14
Coordinates from ORCA-job run
  C   -0.40307656502847      0.11201936651172     -0.55061708751203
  C   0.91246810789108     -0.50550173983727     -0.06859701672561
  F   -0.35823187453486      0.29163926522789     -1.86953559194952
  H   1.07291757907673     -1.38012499067189     -0.71086300066328
  N   -0.68780807975255      1.43535672557766      0.13219147639689
  O   -0.70177724620363      1.36537271160601      1.35354491401721
  O   -0.86857554655243      2.40352997152516     -0.58621310202822
  N   -1.58053283025081     -0.80696191849849     -0.25970803920604
  O   -2.66249420554557     -0.26694501813038     -0.08230029097064
  O   -1.32746388022495     -2.00377406167990     -0.32478434579033
  C   0.87409485645653     -0.96355798606821      1.32138548184651
  N   0.88780932992076     -1.38030116968260      2.41884536905684
  C   1.99332620189826      0.45988355682810     -0.29034349793032
  N   2.84934415284991      1.24036528729218     -0.48200526854148
