14
Coordinates from ORCA-job run
  C   -0.64487377556190     -0.21811555723436      0.12041125598129
  C   0.83401288355208     -0.61389638648537      0.14142204603953
  F   -1.34757136631464     -1.06713542804514      0.86835646329788
  H   0.84990225261286     -1.68074359019247     -0.11320040310361
  N   -1.21028526970424     -0.28476903421381     -1.29094172455921
  O   -2.11937062412127      0.48926987174220     -1.55277391296261
  O   -0.74444249012450     -1.17786969731877     -1.98805978818701
  N   -0.85733145013114      1.19634636511868      0.62324378742751
  O   -1.64716469030992      1.34701084080080      1.53947370846801
  O   -0.19144674745858      2.03408426824619      0.03046192419465
  C   1.34769660645011     -0.43622462963730      1.50286828409508
  N   1.73796450511462     -0.29660334006082      2.60149607629110
  C   1.64967867750524      0.09866704388611     -0.84331917591368
  N   2.34323148849127      0.60897927339405     -1.64143854106892
