14
Coordinates from ORCA-job run
  C   -0.64492549648804     -0.21962721554263      0.11385341656121
  C   0.83516388997227     -0.60821198899476      0.16001348519554
  F   -1.35392008808505     -1.06249773724773      0.86276791647692
  H   0.85972200223315     -1.67695486284561     -0.08609302911957
  N   -1.19106187031042     -0.30685927452942     -1.30404332149358
  O   -0.70769559039039     -1.20205216212183     -1.98632625921215
  O   -2.10489464759505      0.45463268582727     -1.58520904131129
  N   -0.87184689149431      1.19998811912845      0.59485055923300
  O   -1.67298205891801      1.35809775610906      1.50010057249872
  O   -0.20595606599474      2.03408583234832     -0.00315034615955
  C   1.32740150336865     -0.41735205233436      1.52763486771869
  N   1.70089685594375     -0.26330375119643      2.63015276085104
  C   1.66213822150747      0.10054472380877     -0.81824324730195
  N   2.36696023625074      0.60950992759092     -1.60730833393703
