14
Coordinates from ORCA-job run
  C   -0.38847954309948      0.13569985797857     -0.55565824182145
  C   0.87754259211467     -0.56434314800079     -0.05470560803502
  F   -0.31959844023715      0.29619445918705     -1.87613716871363
  H   0.98552777435448     -1.45089373689076     -0.69171500929075
  N   -0.59146846309236      1.48261106066960      0.10905142022295
  O   -0.58657490436764      1.43395886752621      1.33153548603658
  O   -0.73646655111390      2.44666442794817     -0.62299993291829
  N   -1.62626276161422     -0.70192689688979     -0.26640205012138
  O   -2.66584140372568     -0.09264783003165     -0.06181208057359
  O   -1.45694898039406     -1.91163072931354     -0.35811987383080
  C   0.79169533136896     -1.01438906924641      1.33563867223350
  N   0.76256976777705     -1.43234022086806      2.43223065226018
  C   2.02304490086070      0.32493575999793     -0.26829330807135
  N   2.93126068116863      1.04610719793346     -0.45261295737696
