14
Coordinates from ORCA-job run
  C   -0.65396864914309     -0.18997057673872      0.11755082598910
  C   0.80998813777467     -0.63032424981396      0.20073074639303
  F   -1.40097552554273     -0.96543856743781      0.90164192336902
  H   0.79657471709194     -1.71045530931085      0.00950526982395
  N   -1.19006479900008     -0.33141189051997     -1.29981657317214
  O   -2.07682370075004      0.44336495079727     -1.62739210413782
  O   -0.72894950927565     -1.27374184082379     -1.93225777719043
  N   -0.83131993357006      1.26031800558208      0.52100621010394
  O   -1.62503148685997      1.49466752877818      1.41618195697459
  O   -0.13625720622687      2.03714832072255     -0.11936381505229
  C   1.29661335823140     -0.38709537394488      1.56217672913203
  N   1.66809138281856     -0.18961418061101      2.65850522247345
  C   1.67252167634688     -0.00257942460061     -0.80181900276428
  N   2.40060153810502      0.44513260792152     -1.60664961194216
