12

C	0.0	0.0	0.0
C	-0.289765	0.01537	-1.501281
F	1.367249	0.0	0.0
H	-1.345481	-0.088185	-1.708252
H	0.080374	0.977096	-1.870476
H	0.282077	-0.788772	-1.964518
C	-0.74602	1.029407	0.727774
N	-0.692111	2.058222	1.335726
N	-0.332756	-1.351456	0.62954
O	-0.363464	-1.390334	1.857161
O	-0.346562	-2.33707	-0.107025
H	-2.223886	0.0	0.0
