12

C	0.0	0.0	0.0
C	-0.299404	-0.123167	-1.494506
F	1.353968	0.0	0.0
H	0.264101	-0.971793	-1.883149
H	-1.357294	-0.238188	-1.683254
H	0.075014	0.79716	-1.954433
C	-0.73956	1.09559	0.632479
N	-0.672226	2.173541	1.145513
N	-0.338088	-1.286418	0.753481
O	-0.376427	-1.210043	1.978981
O	-0.344364	-2.337036	0.113091
H	-2.239549	0.0	0.0
