12

C	0.0	0.0	0.0
C	-0.291386	-0.076804	-1.498721
F	1.367362	0.0	0.0
H	-1.347109	-0.194213	-1.696974
H	0.280337	-0.907583	-1.911738
H	0.076716	0.860806	-1.927137
C	-0.735606	1.075377	0.666611
N	-0.674641	2.138075	1.211252
N	-0.330711	-1.309484	0.713501
O	-0.358842	-1.271443	1.941272
O	-0.343181	-2.338936	0.039546
H	-2.226751	0.0	0.0
