12

C	0.0	0.0	0.0
C	-0.296789	-0.075842	-1.498583
F	1.353975	0.0	0.0
H	-1.355542	-0.162984	-1.695842
H	0.09817	0.850089	-1.930853
H	0.250404	-0.923769	-1.911079
C	-0.745	1.074105	0.663083
N	-0.679309	2.13497	1.211282
N	-0.333458	-1.307196	0.715679
O	-0.331416	-2.34123	0.047572
O	-0.363553	-1.264819	1.943105
H	-2.235936	0.0	0.0
