12

C	0.0	0.0	0.0
C	-0.298086	-0.004358	-1.500421
F	1.353902	0.0	0.0
H	-1.355111	-0.10769	-1.700225
H	0.073073	0.951309	-1.884131
H	0.269133	-0.816846	-1.955192
C	-0.743801	1.039718	0.715396
N	-0.678124	2.074712	1.310998
N	-0.336286	-1.343349	0.647413
O	-0.378993	-1.365788	1.87487
O	-0.338964	-2.339242	-0.074957
H	-2.234115	0.0	0.0
