15
Coordinates from ORCA-job run
  C   0.70244731035049     -0.71118865028590      0.25653982286783
  C   -0.37172122009959      0.22244590533899     -0.28240166384096
  H   0.51153823582356     -1.73344431999946     -0.10221120223836
  H   -0.25601144812153      0.25559955342664     -1.38239822597298
  H   0.61841805903471     -0.71330695318841      1.34746629989720
  N   2.03038226951202     -0.20027014145805     -0.09758028118960
  H   2.23452932794525     -0.42728070370397     -1.06354982306089
  H   2.74056399296613     -0.64305873641887      0.47116238812685
  N   -0.17384776541822      1.52490175607484      0.34435000725684
  H   0.80642664391683      1.76555126873284      0.24172078812954
  H   -0.72333048747029      2.22935551471524     -0.13382336663703
  C   -1.76394753807813     -0.29841091049172      0.03689830787851
  H   -1.93599226733266     -1.27900642180630     -0.41612530557795
  H   -2.53103420106755      0.38393150877918     -0.33966135737399
  H   -1.88742091196103     -0.37581866971505      1.11961361173499
