15
Coordinates from ORCA-job run
  C   0.69537245962147     -0.65824924613506      0.27362803437541
  C   -0.37901899318684      0.20871374139499     -0.38501964331430
  H   0.51985756689732     -1.71814868594549      0.02974633491983
  H   -0.25513192225086      0.11423022012287     -1.47364287109360
  H   0.60231223073558     -0.55105909049815      1.36053057946435
  N   2.02341040673978     -0.17718975470394     -0.11668829074727
  H   2.73586275712827     -0.59338166186017      0.46957864409618
  H   2.21741734419662     -0.46305214757079     -1.06936195802856
  N   -0.24208845356354      1.62757733602898     -0.06715404209173
  H   0.74377629914330      1.85856092214309     -0.14442641065621
  H   -0.49627034636636      1.76470408308809      0.90685232865634
  C   -1.77541364951731     -0.26696581031309     -0.02013892994395
  H   -2.52383870699442      0.36522375963433     -0.50069105938981
  H   -1.92723532921686     -0.20937754556950      1.06339745764021
  H   -1.94001166336613     -1.30258611981617     -0.32761017388689
