15
Coordinates from ORCA-job run
  C   0.86188588905483     -0.69489088937263     -0.43484380666244
  C   -0.34900142578690      0.22947326670792     -0.52762143600739
  H   0.58620981914030     -1.68120185770283     -0.82322143649686
  H   -0.66935209475521      0.24570690619756     -1.58250924998471
  H   1.64724642486105     -0.29537991405444     -1.10071569637450
  N   1.27776499954172     -0.82585765668562      0.95683309773235
  H   1.44005372146776      0.10887966064981      1.31313700513403
  H   2.14562689165753     -1.34314875390943      1.01609479765596
  N   0.06447264694223      1.55734394950462     -0.05330896927536
  H   0.65524868207881      1.99992655075944     -0.74886697497235
  H   -0.74885342620017      2.14943526106449      0.06760675153910
  C   -1.50885068605423     -0.26628199753752      0.32163631290385
  H   -1.80217849113415     -1.27380892485454      0.01775787725655
  H   -1.21952420443220     -0.29604529560992      1.37122420037271
  H   -2.37974874638136      0.38684969484308      0.20679752717905
