15
Coordinates from ORCA-job run
  C   0.85373096708471     -0.50215263522712     -0.51459640723866
  C   -0.47842032718743      0.25880574153595     -0.51552298992632
  H   0.67296229513643     -1.56613004465519     -0.72952356265913
  H   -0.85068662820771      0.25858711483924     -1.54739815698347
  H   1.49110072024756     -0.10393073048736     -1.30960192275992
  N   1.55227203961310     -0.29186748266144      0.75920083249658
  H   2.49630136504707     -0.65119721289695      0.71058271679903
  H   1.07387454468709     -0.79874416888142      1.49278795418890
  N   -0.30848112259899      1.65613168119703     -0.10154335784530
  H   0.51209847352500      1.69332645182786      0.49329764344216
  H   -0.16775609474148      2.25074245558192     -0.90531581110462
  C   -1.51524151980970     -0.42598204865515      0.37036919385427
  H   -2.43474267121803      0.15905467636718      0.37859245773939
  H   -1.16641994735859     -0.49727793690474      1.40499516051809
  H   -1.73059209421904     -1.43836586097981      0.01367624947901
