14

C	0.0	0.0	0.0
C	-0.52874	0.035966	-1.436929
Cl	1.751319	0.0	0.0
H	0.321275	-0.007936	-2.135388
H	-0.356732	-0.889373	0.494532
N	-0.4075	1.151884	0.871204
O	-0.366201	2.276297	0.384813
O	-0.60631	0.883727	2.047515
C	-1.370382	1.157341	-1.830382
N	-1.889702	2.075005	-2.348699
N	-1.25613	-1.265305	-1.727309
O	-0.840091	-2.266454	-1.155864
O	-2.084146	-1.251742	-2.624295
F	-2.316654	0.0	0.0
