14

C	0.0	0.0	0.0
C	-0.441661	-0.037482	-1.455855
Cl	1.754484	0.0	0.0
H	0.064762	0.756018	-2.003363
H	-0.38156	-0.824117	0.5847
N	-0.434737	1.275576	0.65518
O	-0.568079	1.239958	1.870252
O	-0.52046	2.269516	-0.056468
C	-1.898054	0.000228	-1.755662
N	-2.643713	0.018427	-2.679331
N	0.092933	-1.315226	-2.052433
O	-0.068697	-2.349196	-1.408839
O	0.629713	-1.237027	-3.154184
F	-2.408234	0.0	0.0
