14

C	0.0	0.0	0.0
C	-0.293139	0.160088	-1.511946
Cl	1.751836	0.0	0.0
H	0.161588	-0.725439	-1.965189
H	-0.409946	-0.911376	0.405361
N	-0.459166	1.132919	0.857625
O	-0.558768	0.87987	2.050575
O	-0.563567	2.232915	0.333374
C	0.372531	1.324411	-2.108903
N	0.939499	2.171624	-2.691495
N	-1.707204	0.127199	-2.072826
O	-2.243278	1.194298	-2.324815
O	-2.078802	-0.98081	-2.443706
F	-2.276562	0.0	0.0
