10
Coordinates from ORCA-job run
  C   -0.26123216432560      0.38947944953518      0.06724974179358
  C   1.05258409273913      0.13452105273728      0.23599798389921
  H   1.69304117290937      0.96472475703935      0.52311610098537
  N   -1.22626971901661     -0.65008299207566     -0.36272005564254
  O   -2.19947419041789     -0.23859029752886     -0.98576801561279
  O   -0.96339981981131     -1.80875478045968     -0.07036138912991
  C   -0.81937012948735      1.68833022230409      0.24276218046392
  N   -1.24801511046727      2.77160879531039      0.41068742432504
  C   1.68008718249082     -1.12817467616756      0.04544762670402
  N   2.29104868538671     -2.12306153069454     -0.10641159778589
