10
Coordinates from ORCA-job run
  C   -0.29540822894949      0.10096017089744      0.06049470749186
  C   0.76925344715340     -0.65359399411176     -0.27387062501379
  H   0.60765756919111     -1.68642773435252     -0.56854943802812
  N   -1.65162449987441     -0.51006384993814      0.01328872685269
  O   -2.57906392022487      0.22776355756407      0.32823693761986
  O   -1.72416647017003     -1.68086486762961     -0.33112806675897
  C   -0.24698286788095      1.46372986505924      0.46512766055636
  N   -0.16730379217109      2.59087323311225      0.79614537920059
  C   2.09177368131572     -0.13312004146902     -0.25108741579670
  N   3.19486508161061      0.27974366086806     -0.23865786612379
