10
Coordinates from ORCA-job run
  C   -0.29429706105080      0.11061146560875      0.04414640047916
  C   0.76148974074209     -0.67449948254902     -0.24499804573947
  H   0.58238945941924     -1.70060425499054     -0.55263488764226
  N   -1.66463555685464     -0.46111928359412     -0.06203073246853
  O   -2.58040631443270      0.28893296795073      0.25756007399699
  O   -1.75797850285056     -1.61627015505289     -0.45121017497691
  C   -0.22419273318600      1.46949001143155      0.45874951562304
  N   -0.12793374140386      2.59380198786640      0.79500271648860
  C   2.09639350029764     -0.19475220820354     -0.15659505643950
  N   3.20917120931960      0.18540895153268     -0.08898980932113
