10
Coordinates from ORCA-job run
  C   -0.25253053150654      0.38901974294263      0.09573234423924
  C   1.03134134934739      0.05452200419829      0.33866918224089
  H   1.67084320864453      0.80900785509494      0.79003600696987
  N   -1.20947089992080     -0.53912093991030     -0.55220614251036
  O   -1.01098706191156     -1.73718024185335     -0.40301033733532
  O   -2.10970271692365     -0.00447107737363     -1.19123110727040
  C   -0.78191722667298      1.67556513208966      0.40203177775866
  N   -1.19308590532948      2.74195102863797      0.68303683514070
  C   1.63112536595276     -1.19894736115225      0.03302424335611
  N   2.22538441832033     -2.18934614267396     -0.19608280258938
