10
Coordinates from ORCA-job run
  C   -0.25929548955761      0.38944842460959      0.07461227238254
  C   1.06557350768481      0.15615413916255      0.17301390163585
  H   1.71021240686010      1.00127682862990      0.40099880297458
  N   -1.23175156629330     -0.67434453017243     -0.27287186197747
  O   -0.93833102088793     -1.82034914438447      0.03993230248223
  O   -2.24195118761403     -0.29373510334210     -0.85538456129004
  C   -0.82906453694847      1.68360678806108      0.24597887611559
  N   -1.27641936921107      2.76102569202563      0.40287947336147
  C   1.69681930400960     -1.10417056429215     -0.02114705996434
  N   2.30420795195788     -2.09891253029761     -0.18701214572042
