10
Coordinates from ORCA-job run
  C   -0.30033008165346      0.10453747912830     -0.00309759704894
  C   0.79508227650682     -0.67909129593852      0.02657812461923
  H   0.66706425653196     -1.75665588722478      0.07246944221451
  N   -1.64297276336969     -0.53719671988019      0.02874682809630
  O   -1.67648674095671     -1.75801545798942      0.08271207528820
  O   -2.59978289657523      0.22908772021292     -0.00282101059995
  C   -0.29725224632712      1.52565680958112     -0.06366220041560
  N   -0.25375742184005      2.70122575745746     -0.11364967052679
  C   2.10683301966111     -0.13224635192138     -0.00191209498204
  N   3.20160259802240      0.30169794657449     -0.02436389664492
