10
Coordinates from ORCA-job run
  C   -0.29864435514837      0.10745860925694     -0.01201826669650
  C   0.79132515713109     -0.68205110319375      0.04216948381397
  H   0.65596602101804     -1.75916508340823      0.07411270074125
  N   -1.64482280998761     -0.52877107361233     -0.02623713378010
  O   -1.68489077176031     -1.74993541801830      0.01292777911481
  O   -2.59723112606984      0.24191747379333     -0.07710427591236
  C   -0.28915198350662      1.52899604502847     -0.05724363718956
  N   -0.24485467114298      2.70497227035762     -0.09219649330804
  C   2.10660150933750     -0.14339450796886      0.05935472400881
  N   3.20570303012909      0.27997278776512      0.07623511920772
