10
Coordinates from ORCA-job run
  C   -0.25618147051541      0.38181709753548      0.11812193706994
  C   1.03629543780389      0.05007280115086      0.31490543412990
  H   1.68114558086296      0.78980610043851      0.78362871902152
  N   -1.21903353977424     -0.52830740948568     -0.54548101746046
  O   -2.13789515372514      0.02313602398304     -1.14217988539899
  O   -1.00538582428804     -1.72942777596474     -0.45055330932525
  C   -0.78895338564260      1.64744651934180      0.49628328360581
  N   -1.19507740678475      2.69391739462591      0.84966091562926
  C   1.64109855435447     -1.18078855293553     -0.06401439580013
  N   2.24398720770885     -2.14767219868964     -0.36137168147159
