10
Coordinates from ORCA-job run
  C   -0.29212708421771      0.11333175620126      0.04943252799140
  C   0.75297444808948     -0.69289229632964     -0.21995750498332
  H   0.56354670611387     -1.73857558498860     -0.44374363505912
  N   -1.66575848020432     -0.46035715042061      0.02741039791379
  O   -2.57637384788322      0.33066781670860      0.24824701230400
  O   -1.76706496555778     -1.65582616505818     -0.20714752170244
  C   -0.20836945572998      1.49874164211022      0.36040731368081
  N   -0.10053301300631      2.64299782717734      0.61615521990387
  C   2.08982251063247     -0.21026594632051     -0.21505684348210
  N   3.20388318176350      0.17217810092011     -0.21574696656690
