10
Coordinates from ORCA-job run
  C   -0.25758766732618      0.38312191550467     -0.06560439144441
  C   1.05334864481358      0.16072705397662      0.16327122280621
  H   1.69756836998647      1.03434370723956      0.22854167901043
  N   -1.26283008948945     -0.70362172504636     -0.17265434624442
  O   -2.42966655682396     -0.33782822125109     -0.27349521669071
  O   -0.84585835188335     -1.85284095923121     -0.14801919872378
  C   -0.78270459452658      1.69995287168176     -0.21761740752226
  N   -1.17247365846136      2.80359615816186     -0.34040552279040
  C   1.68228815291886     -1.10406941729037      0.33364368155848
  N   2.31791575079198     -2.08238138374544      0.49233950004087
