10
Coordinates from ORCA-job run
  C   -0.29678621625521      0.09656922957882      0.05938223287339
  C   0.77565987466393     -0.63204747765691     -0.30624118531312
  H   0.61963195176666     -1.63009786747921     -0.70540720687524
  N   -1.65372326781063     -0.49452070751675     -0.09645689401044
  O   -1.71984371368995     -1.62461254378298     -0.55809639242721
  O   -2.58798695893241      0.21690902305947      0.25681830589582
  C   -0.25612511474565      1.41389254064053      0.59448803265101
  N   -0.18222527207359      2.50495734768130      1.03099594784552
  C   2.09882808395381     -0.12725006405678     -0.18357388112533
  N   3.20157063312305      0.27620051953250     -0.09090895951438
