10
Coordinates from ORCA-job run
  C   -0.24506776958993      0.39396166906846      0.09515588715742
  C   1.07189715581485      0.10627702063163      0.14141988905842
  H   1.74119921196543      0.87409968125501      0.52111410608279
  N   -1.25951507292827     -0.58470374845458     -0.36302026739182
  O   -0.89209901107169     -1.43303418754627     -1.16457757173961
  O   -2.37752295854487     -0.45039462633909      0.12331251881633
  C   -0.77320190323036      1.64366788724536      0.52983076084499
  N   -1.17629890049324      2.69168901611749      0.88248391403572
  C   1.66275659258811     -1.12879270039095     -0.24557461365064
  N   2.24785265548996     -2.11277001158706     -0.52114462321360
