10
Coordinates from ORCA-job run
  C   -0.24421904244427      0.39378616673014     -0.05134758802173
  C   0.98590893628867     -0.00727781701549     -0.43421620805425
  H   1.58706232031001      0.70848958795251     -0.98989403317461
  N   -1.18207462727889     -0.46627291996483      0.71351193768410
  O   -0.79827488875925     -1.59105356654562      1.00112129901157
  O   -2.26506264990398      0.04195404396769      0.98580642876689
  C   -0.74072670279489      1.69497809129831     -0.35715299759889
  N   -1.10765120762023      2.77881960592790     -0.63211550719440
  C   1.58159122182432     -1.27550595766136     -0.18677843320646
  N   2.18344664037850     -2.27791723468924     -0.04893489821223
