10
Coordinates from ORCA-job run
  C   -0.29476826612285      0.09388817745331      0.07174154341377
  C   0.77041871347272     -0.62333704501737     -0.33526146233383
  H   0.61099249022792     -1.62762866043721     -0.71673311373902
  N   -1.64904238484305     -0.51749940271521     -0.01794069297786
  O   -1.71902698052386     -1.65380557369630     -0.46354466097371
  O   -2.57698080132734      0.18512385994507      0.36792159025510
  C   -0.24958019585397      1.41655308985412      0.59328420188635
  N   -0.17568445934270      2.51177242677394      1.01936517385060
  C   2.09060983600738     -0.09985361408550     -0.27750077057801
  N   3.19206204830576      0.31578674192513     -0.24033180880339
