10
Coordinates from ORCA-job run
  C   -0.30038308789788      0.10282794239425     -0.00986160129744
  C   0.79831269758146     -0.67266875183826      0.06875171230352
  H   0.67504448565526     -1.74516876333896      0.18770281543118
  N   -1.64030210854087     -0.54041674902331      0.06992331880262
  O   -1.66857784908056     -1.75548075706139      0.20188080773433
  O   -2.60040219213619      0.21870339844007     -0.00492166479808
  C   -0.30384783880387      1.51669197076295     -0.16572479691339
  N   -0.26715198829498      2.68647099806767     -0.29474152907652
  C   2.10763888596835     -0.12373992206876     -0.00003374856200
  N   3.20066899554927      0.31178063366574     -0.05497531362421
