10
Coordinates from ORCA-job run
  C   -0.29334978742252      0.11377554471275      0.04444661102662
  C   0.76293523003295     -0.69865324857658     -0.15188981638350
  H   0.59492072001420     -1.76964352897238     -0.21719773782615
  N   -1.64972385113973     -0.48902423304163      0.16397251765970
  O   -1.72803517709752     -1.70634500873934      0.08329007619041
  O   -2.57070421597790      0.30285711821261      0.33247922311144
  C   -0.23767604621816      1.53083678371478      0.15297271772379
  N   -0.15372247677166      2.70201920906033      0.24080531507583
  C   2.08527411958604     -0.19201681772451     -0.27300738948704
  N   3.18908148499431      0.20619418135398     -0.37587151709109
