10
Coordinates from ORCA-job run
  C   -0.25368704557066      0.39719871708610      0.04962153951849
  C   1.07331650116084      0.15556773621990      0.06550154246909
  H   1.73939788266190      1.01096583293876      0.14572357756778
  N   -1.25866764077770     -0.68232115319399     -0.09694825604018
  O   -0.94555712584328     -1.79350332496646      0.30821486907872
  O   -2.31322398650762     -0.35019943560191     -0.62795153738151
  C   -0.79539341259818      1.71245087535037      0.12640398478391
  N   -1.20991288453046      2.81100427082732      0.20745158222475
  C   1.68141371851535     -1.12661734831926     -0.03925167152831
  N   2.28231399348981     -2.13454617034083     -0.13576563069274
