10
Coordinates from ORCA-job run
  C   -0.26355122003800      0.38662787905838     -0.07032794485347
  C   1.05104713295411      0.13647494401693     -0.23956576188831
  H   1.66124345644403      0.92670171289160     -0.66983770987529
  N   -1.20530913704266     -0.62254991356701      0.46947216965222
  O   -0.74238055329933     -1.47072089851810      1.22003638174029
  O   -2.36824477972945     -0.50994856784610      0.09586449016168
  C   -0.86190082594914      1.62627887655042     -0.43737515543797
  N   -1.32062635877377      2.66830480209068     -0.73572217581724
  C   1.70794482726364     -1.08497544059655      0.07796458655871
  N   2.34077745817057     -2.05519339408024      0.28949111975937
