10
Coordinates from ORCA-job run
  C   -0.29999578073942      0.10334045789479     -0.02246750287334
  C   0.79227803230800     -0.67428314354361      0.10794000138938
  H   0.66086186422362     -1.74438840533416      0.23844681929589
  N   -1.64434246106703     -0.53392818084422      0.01751880581322
  O   -2.59788705971283      0.22680430662609     -0.10778271965644
  O   -1.68244298413175     -1.74635994322746      0.16984806824201
  C   -0.29211195345114      1.51473678446539     -0.19922700655827
  N   -0.24267166611976      2.68204880698991     -0.34579579089583
  C   2.10499475445610     -0.12985328259692      0.08038411861857
  N   3.20031725423422      0.30288259957020      0.06213520662481
