10
Coordinates from ORCA-job run
  C   -0.29322194127312      0.10598665221978      0.06148243341666
  C   0.75601422580877     -0.64378754912264     -0.32784727039139
  H   0.56934249442205     -1.62988066371882     -0.74297977093655
  N   -1.66627998410522     -0.45030898663553     -0.08518172108964
  O   -1.76868087422285     -1.55201834369741     -0.60517757628400
  O   -2.57480969656317      0.25655565874557      0.33694465712532
  C   -0.21412646106061      1.41158985980115      0.62040229937540
  N   -0.11087467577383      2.49308888016914      1.07451223488700
  C   2.09382376791437     -0.17824561525928     -0.21059396523451
  N   3.20981314485363      0.18802010749803     -0.12356132086829
