10
Coordinates from ORCA-job run
  C   -0.22146175796892      0.41425866040333      0.05786886907285
  C   1.08377697360938      0.07778980225918      0.00666843365901
  H   1.81252134168907      0.86485994543776      0.18349115815025
  N   -1.30847454172050     -0.57646865245169     -0.12479356328897
  O   -1.05841675714952     -1.55623543219659     -0.81372457663865
  O   -2.35989636163451     -0.31583351201411      0.45071785768393
  C   -0.66171902112160      1.73995771413183      0.33761167360175
  N   -0.99176958086643      2.84897221980165      0.55296794035938
  C   1.59231556491866     -1.22824067652083     -0.23810901386837
  N   2.11212414024438     -2.27006006885052     -0.41369877873118
