10
Coordinates from ORCA-job run
  C   -0.29989980704832      0.10597121660199      0.00003692203499
  C   0.79266629008796     -0.68187327641207      0.01419022841644
  H   0.66154790845170     -1.75973341482728      0.04100579850119
  N   -1.64480512407760     -0.53116757376777      0.02269005351994
  O   -1.68279708993678     -1.75269972219849      0.05050649204609
  O   -2.59876527151829      0.23903474568370      0.01092221140942
  C   -0.29239171427546      1.52796677452997     -0.03693111422977
  N   -0.24709784149434      2.70405094501787     -0.07063025860587
  C   2.10664592736379     -0.13979329342042     -0.00776644305791
  N   3.20389672244735      0.28824359879251     -0.02402389003453
