10
Coordinates from ORCA-job run
  C   -0.29551966202646      0.11026705342590      0.03658424507065
  C   0.77934166803034     -0.69210630270740     -0.08846552162661
  H   0.63418655776477     -1.76815422999162     -0.06343716119995
  N   -1.63830197898854     -0.51050526099464      0.20409967192016
  O   -2.57688156494936      0.27166730578311      0.30874303821345
  O   -1.68979203914536     -1.73180595667024      0.22197851658677
  C   -0.27192522580931      1.53232262993209      0.02280880996309
  N   -0.21417414581154      2.70825867664123      0.00762556147912
  C   2.08980059337852     -0.16743446620372     -0.25486780304800
  N   3.18326579755696      0.24749055078527     -0.39506935735869
