10
Coordinates from ORCA-job run
  C   -0.23818066046805      0.39791647899259     -0.04656484188400
  C   0.99774886622182     -0.00264572701465     -0.41106812697215
  H   1.61708143738347      0.72259506199066     -0.93356895807906
  N   -1.20289970897705     -0.47726269440366      0.66609709094181
  O   -0.81620330151147     -1.59478101735838      0.97780204277495
  O   -2.30920567025756      0.01097216360636      0.87327487815500
  C   -0.71898629751434      1.70985697922638     -0.32946079952104
  N   -1.07515523042331      2.80765156257618     -0.56011128072552
  C   1.57813583634077     -1.28132548599627     -0.18100783013780
  N   2.16866472920572     -2.29197732161920     -0.05539217455219
