10
Coordinates from ORCA-job run
  C   -0.29505824569738      0.10310456181355      0.05696438464030
  C   0.77107638440882     -0.66499162709484     -0.23974734017902
  H   0.61376055803631     -1.71643186732795     -0.46179440231802
  N   -1.64729652002853     -0.51922301042276      0.06878989409870
  O   -2.57628134665852      0.23146253648004      0.34649048552105
  O   -1.71506330468014     -1.71082848776348     -0.19586042940069
  C   -0.25248755203550      1.49020539204037      0.36897372035674
  N   -0.17798306402150      2.63764402111970      0.62241075749511
  C   2.08966016661046     -0.13503653269668     -0.26886190225185
  N   3.18967292406598      0.28509501385205     -0.29836516796233
