19

C	0.0	0.0	0.0
C	-0.260294	0.267015	-1.525746
Cl	1.787549	0.0	0.0
H	0.317685	1.17245	-1.73869
N	-0.383896	1.220252	0.823459
O	-0.498673	2.294708	0.241824
O	-0.483018	1.062735	2.034643
C	-0.655839	-1.218641	0.555705
H	-0.400866	-2.059415	-0.089047
H	-0.331789	-1.405299	1.579779
H	-1.746707	-0.976425	0.500971
C	-1.677612	0.501645	-2.010103
H	-1.59367	0.923447	-3.022392
H	-2.243051	-0.427501	-2.020776
H	-2.259674	1.126516	-1.34249
N	0.290019	-0.890184	-2.25698
H	1.2487	-0.720353	-2.52853
H	-0.260734	-1.019287	-3.094927
F	-3.159997	0.0	0.0
