18
Coordinates from ORCA-job run
  C   -0.52716394970088     -0.44834815293720     -0.07413084556920
  C   0.98993228277975     -0.21205138842417     -0.17661371011807
  Br  -0.73029248903942     -2.42030721330596     -0.13524574691057
  H   1.35689763478910     -0.67012753096619     -1.10132892947734
  C   -1.13465742259868      0.04342163282269      1.22868902457582
  H   -1.02261534787513      1.12759685490785      1.29173770144500
  H   -2.19652828213813     -0.20837975481011      1.25338477056440
  H   -0.64687493810822     -0.39304164978549      2.09859272030356
  C   -1.25351859982139      0.11507268090691     -1.28571509371571
  H   -1.22759467524029      1.20794762602857     -1.25780839693516
  H   -2.29773157570234     -0.20045683537361     -1.27214292195313
  H   -0.79844931454027     -0.21855135960427     -2.21978023371799
  N   1.68770877611287     -0.55887152187722      1.02060087577214
  H   1.36958271568295     -1.45942998285842      1.35499750408968
  H   2.68447248982182     -0.61496332335126      0.85237499488529
  N   1.20435160728456      1.27512425562953     -0.44690598551274
  O   1.45585781003091      1.57142662763972     -1.61533943339343
  O   1.08762327826281      2.06393903535864      0.48363370566744
