18
Coordinates from ORCA-job run
  C   -0.62817752451468      0.18665314457202     -0.30516452787030
  C   0.89516884821679     -0.01686532787347     -0.38882418422465
  Br  -1.09086001629093      1.74561653998935     -1.41378549757560
  H   1.17455180604431     -0.21239530055023     -1.42510791556048
  C   -1.30130490876533     -1.03165816496212     -0.92505667118160
  H   -0.96746289610865     -1.18554782982641     -1.95341080554715
  H   -1.05238480228836     -1.91708498824110     -0.33767855649016
  H   -2.38397316605585     -0.89446847036788     -0.93380277917850
  C   -1.14480701669813      0.43922364989626      1.10304285437368
  H   -2.22759414658702      0.57089582411436      1.06973574534690
  H   -0.69915292886914      1.32507393031846      1.55228106248852
  H   -0.93266438251331     -0.42901565608429      1.73381799946944
  N   1.30218232439582     -1.09614583358081      0.45448825181087
  H   1.28715705872790     -0.80370242288748      1.42440367409225
  H   2.24116146467174     -1.39584664959452      0.22298638171898
  N   1.64891476537909      1.26606625748398     -0.04913555002625
  O   1.67998664405109      1.58520557253011      1.13955413607958
  O   2.19925887720465      1.86399572506377     -0.96834361772552
