18
Coordinates from ORCA-job run
  C   -0.63261041215730      0.17550725070731     -0.30287137634127
  C   0.89483853961705      0.00570916764409     -0.38841016030063
  Br  -1.13035022153880      1.73429729502560     -1.39632942647877
  H   1.17755877788172     -0.17941776871080     -1.42574477982442
  C   -1.27915770054748     -1.05124574472172     -0.93413580677306
  H   -0.94741283329413     -1.18469631566195     -1.96599300643505
  H   -1.00562401556405     -1.93715855284245     -0.35841940619925
  H   -2.36491973516661     -0.94068117216294     -0.93553039378576
  C   -1.15321047111555      0.40290747135859      1.10827731861110
  H   -2.23832147618644      0.51420209236904      1.07715532348785
  H   -0.92369944291618     -0.46832764521936      1.72871948005959
  H   -0.72397308987444      1.29232297508046      1.56639053263991
  N   1.32598641425115     -1.06884268748322      0.44890126386913
  H   2.26986857766470     -1.34916396400564      0.21338840977767
  H   1.30711945052047     -0.78197838494729      1.42037242351831
  N   1.62081942497773      1.30270450579562     -0.04309180730463
  O   1.64582523523313      1.61691687920383      1.14702492846590
  O   2.15726297821504      1.91694459857085     -0.95970351698662
