18
Coordinates from ORCA-job run
  C   -0.57000154042541     -0.25656441514616      0.11236539165218
  C   0.87055345477484      0.15284918651785     -0.23784039832989
  Br  -0.52364794697956     -1.71472897368082      1.44130723209488
  H   0.80225252764555      0.94259640714450     -0.99191541408484
  C   -1.38300255469938      0.88232720913461      0.70873135868205
  H   -1.37431346134584      1.73661659633211      0.02515452405418
  H   -0.99586155261085      1.21307145334552      1.67117575991502
  H   -2.41440729545109      0.55382864383124      0.84751598660621
  C   -1.23192799610012     -0.80037501290178     -1.14705401486957
  H   -1.28147474740122     -0.00332671379909     -1.89699654667097
  H   -2.24879757058614     -1.12648954157581     -0.92236221825483
  H   -0.66640234115336     -1.63282229202090     -1.56075405031842
  N   1.65532824916269     -0.92233870858839     -0.72013805778114
  H   1.81159122836138     -1.60367748644360      0.01255215395730
  H   2.54959686125591     -0.59599594445652     -1.06239656723070
  N   1.51107284939410      0.87879810131846      0.95331835217074
  O   1.27281596603745      2.08074021770024      1.05948902710513
  O   2.21562587012104      0.21449127328855      1.70784748130268
