18
Coordinates from ORCA-job run
  C   -0.62330696923092      0.19432682475897     -0.31122114697008
  C   0.89898660725855     -0.02426807660773     -0.37736794496735
  Br  -1.05709194164916      1.76461527379822     -1.41519009687657
  H   1.18805129367361     -0.22285693724771     -1.41042565533659
  C   -1.30059872671063     -1.01348621136313     -0.94665487515445
  H   -1.06050868455758     -1.90586110969179     -0.36607448067421
  H   -0.96243701212946     -1.15918616476101     -1.97476444885067
  H   -2.38238116381295     -0.86947288923319     -0.95979110084383
  C   -1.15357027986632      0.44295060401319      1.09275988112707
  H   -2.23373749981377      0.59139039083037      1.04769249058818
  H   -0.70018921489567      1.31852818286314      1.55429608487172
  H   -0.96155598207402     -0.43392168067447      1.71793915173647
  N   1.28526792972967     -1.10815002710353      0.47005228196155
  H   2.22239286622087     -1.41978878727818      0.24713164324519
  H   1.26450607116628     -0.81550001193740      1.43977696923015
  N   1.66224659266081      1.25015881019293     -0.02851200018813
  O   1.68210703020486      1.56929002705158      1.16035386760660
  O   2.23081908382583      1.84123178238976     -0.94100062050506
