18
Coordinates from ORCA-job run
  C   -0.51368420688485     -0.23461096666216      0.17502109224983
  C   0.92250514435513      0.17184315009862     -0.23374562849875
  Br  -0.44212334113519     -1.64820518207919      1.54493527717260
  H   0.81850575380990      0.88782227064268     -1.05326115681465
  C   -1.30907129128488      0.93030388828041      0.74431643160435
  H   -2.33913529347053      0.61943825215267      0.92747306656969
  H   -0.88953802664901      1.29387305982799      1.68192395751583
  H   -1.31213197332280      1.75836965543869      0.02878270436598
  C   -1.20649337749348     -0.82566683467793     -1.04616126392744
  H   -2.21715246925277     -1.14492803326173     -0.78760286227718
  H   -1.27496593017749     -0.06447451286023     -1.83113880994154
  H   -0.66759821840793     -1.69032320357097     -1.43522743020260
  N   1.84649543168242     -0.84542239286906     -0.60889803764536
  H   1.72446047274982     -1.12482722619995     -1.57051874821400
  H   1.79845309572614     -1.64571011260941      0.00748716036910
  N   1.54443781861308      0.98631434350738      0.87618911509602
  O   2.13211068003794      0.37157396055817      1.75848180332531
  O   1.38592573110450      2.20562988428404      0.82294332925281
