18
Coordinates from ORCA-job run
  C   -0.60054984289975      0.13427220833736     -0.29870378596071
  C   0.94004751717472      0.14187793064508     -0.42838871099762
  Br  -1.30126429290931      1.48806266304912     -1.54697243620229
  H   1.20085202739442      0.00046965090968     -1.47816528859053
  C   -1.10979918084583     -1.22205696890925     -0.77375623564699
  H   -0.80744423704068     -2.00246862416242     -0.06994275472100
  H   -0.72574407615053     -1.46688591824266     -1.76699241559341
  H   -2.19957011729388     -1.21557619367204     -0.82311355950057
  C   -1.13366399636485      0.45726100488021      1.08883767214716
  H   -0.74710207224204     -0.26076910473389      1.81862251506799
  H   -0.86049168708062      1.45914185556966      1.41302522360467
  H   -2.22219486329712      0.37543266793909      1.08318499012235
  N   1.65640595790057     -0.81077311143742      0.37119632650454
  H   1.37371681591385     -0.78970764937950      1.34102075050257
  H   1.58228675416038     -1.74416327074033     -0.00526973793810
  N   1.50683514081736      1.49112669711616     -0.07086114048572
  O   1.51722281473761      1.77021971152381      1.12680269014718
  O   1.93045733802573      2.19553645130735     -0.98052410245949
