18
Coordinates from ORCA-job run
  C   -0.58846600464282      0.16754571590192     -0.30560076484771
  C   0.95318490552612      0.11003777846112     -0.40839889314215
  Br  -1.20711175890647      1.58153458524072     -1.52979330340837
  H   1.22642103786042     -0.02121784964613     -1.45638987421563
  C   -1.14799427602281     -1.15250962593276     -0.82447975883543
  H   -0.89024647061412     -1.96372832085018     -0.13786948759388
  H   -2.23566386876179     -1.09795702577424     -0.88846646637734
  H   -0.75977018238795     -1.38726016554777     -1.81847473508171
  C   -1.13180488999753      0.47872225004113      1.08083646407097
  H   -0.79261455250142     -0.27583564480845      1.79719606893562
  H   -2.22262997568390      0.44718999694041      1.05440600838532
  H   -0.81837996638335      1.45803496319874      1.43599341584085
  N   1.61302531689722     -0.88986984538044      0.38272059326743
  H   1.31805433211425     -0.87040632263293      1.34901312508226
  H   1.49754193766937     -1.81225861680300     -0.01020871055399
  N   1.57187652255475      1.42436229701434     -0.01220299871962
  O   1.57180380791511      1.67810484693187      1.19121274756598
  O   2.04277408536493      2.12851098364565     -0.89849343037260
