18
Coordinates from ORCA-job run
  C   -0.53507484571479     -0.44056434606612     -0.06802352515512
  C   0.98390264332853     -0.22683575954783     -0.19002665013025
  Br  -0.76900282629656     -2.40859091934840     -0.13067418887951
  H   1.33198280502696     -0.68894651957612     -1.12001767812786
  C   -1.11733378257348      0.05783938438066      1.24382591110797
  H   -2.18332557104114     -0.17445541661910      1.28080237950584
  H   -0.62742187338156     -0.39108631893824      2.10615932929768
  H   -0.98446712165258      1.13948436441367      1.30933666461078
  C   -1.26860403012950      0.13713329528117     -1.26852719774881
  H   -0.83052642136977     -0.20000671037679     -2.20943313698143
  H   -2.31708710352823     -0.16305877538536     -1.24236781551514
  H   -1.22626264507596      1.22943335228992     -1.23774829707988
  N   1.69196787268963     -0.58577864059522      0.99761682491604
  H   2.68553799106123     -0.65606143590721      0.81626676040240
  H   1.36525710133592     -1.48220089230375      1.33485652273133
  N   1.21753432393848      1.25743418836191     -0.46115859243158
  O   1.45728672754881      1.55153858313873     -1.63264079675212
  O   1.12563675583401      2.04672256679810      0.47175348622966
