18
Coordinates from ORCA-job run
  C   -0.51645483597314     -0.44408108227215     -0.09034110754774
  C   1.01230347806360     -0.25155022599238     -0.26901370882654
  Br  -0.75607818962436     -2.40809743263435     -0.14188678375375
  H   1.31454166811656     -0.73723362351856     -1.19724067938353
  C   -1.04881131111168      0.04761428414836      1.24409858248335
  H   -2.11558131705127     -0.17035870960795      1.31791600750063
  H   -0.90462208321811      1.12747795854729      1.32551614250257
  H   -0.55081048979651     -0.43808529716964      2.08392547138200
  C   -1.29230344581448      0.14275968283028     -1.25950800383537
  H   -2.34076938024826     -0.15376210418953     -1.20087428120905
  H   -1.24419980549431      1.23488649477098     -1.22742559547741
  H   -0.88802178832491     -0.19099898739182     -2.21680324540083
  N   1.89558875501216     -0.64632836436370      0.78568604275302
  H   1.63995172569768     -0.20964248289784      1.66143689155257
  H   1.88768723486690     -1.65231117483827      0.88710352379318
  N   1.25315248527981      1.21806450266333     -0.50995541457591
  O   1.37624277044315      1.58839272083625     -1.67434803071986
  O   1.27818452917717      1.94325384107967      0.48271418876267
