18
Coordinates from ORCA-job run
  C   -0.61264335777352      0.19138514800677     -0.39131714508144
  C   0.91828734098396      0.07637826049476     -0.29061669477339
  Br  -1.06760750687238      1.40985512995497     -1.87149625146378
  H   1.34102975478407      0.03595422110032     -1.30567004557124
  C   -1.16296864353566     -1.17597131408709     -0.79233179927483
  H   -1.03586243694603     -1.88016274742507      0.03252737908615
  H   -2.22734421030356     -1.09050408863099     -1.01428120449244
  H   -0.66588061935832     -1.56273344144468     -1.68657100676181
  C   -1.26461965248541      0.67229816000705      0.89459211388813
  H   -2.34913982388873      0.57478560427167      0.81744195708376
  H   -0.91053893609678      0.04230437306467      1.71542799561413
  H   -1.02629156862278      1.71256573073337      1.10671750756432
  N   1.27355043650617     -1.04084120138629      0.55829858367043
  H   1.25636786574471     -1.89314333709792      0.01307877942296
  H   2.22153136656711     -0.90270833819157      0.88968902573439
  N   1.58701501487222      1.30757996119921      0.31086078971771
  O   1.04173015995366      2.39441179920279      0.17479983952466
  O   2.68238481647127      1.12754608022804      0.83985017611229
