18
Coordinates from ORCA-job run
  C   -0.57124030292323      0.16643411382425     -0.33695370205457
  C   0.97130400930204      0.06706432043959     -0.37457987853937
  Br  -1.10457453066273      1.53235013865788     -1.65263312139516
  H   1.28206269741065     -0.12066290878240     -1.40331760608765
  C   -1.14423649998383     -1.16387457586861     -0.81320308750663
  H   -0.72257568445469     -1.45770298352731     -1.77743341550341
  H   -0.93614354683275     -1.94575389120115     -0.07746504282930
  H   -2.22659557095449     -1.08601591826902     -0.92503658116038
  C   -1.16042650993308      0.55914776063799      1.00947776462544
  H   -2.24981019220734      0.55205233135321      0.94040831440619
  H   -0.86876671214289     -0.16605291743640      1.77536309923239
  H   -0.83655801727449      1.54745273205125      1.32852236209207
  N   1.57366396383268     -0.90968004226572      0.48853415105202
  H   1.24019200520493     -0.83728104597586      1.43976485674093
  H   1.44662865464137     -1.84639201065984      0.13467899940601
  N   1.60755867875272      1.38365262519262     -0.01532458061427
  O   2.12976125114717      2.03382001947573     -0.91407060891899
  O   1.56875630707795      1.69344225235380      1.17426807705469
