18
Coordinates from ORCA-job run
  C   -0.61690863571869      0.18626207294038     -0.22927190837455
  C   0.91312401732698      0.23752739280958     -0.44551168998297
  Br  -1.39094217881605      1.76000466162953     -1.12682668670057
  H   1.11027536864238      0.31818577826205     -1.51544571416257
  C   -1.15593812969752     -1.04848768277389     -0.94337448217357
  H   -0.83056961333189     -1.08036659943691     -1.98598019082314
  H   -2.24665458360765     -1.04316989139007     -0.92778955786232
  H   -0.81491382762655     -1.95379263849756     -0.43339340482180
  C   -1.06442619219759      0.21009287407799      1.22439413875267
  H   -0.77375860038590      1.12842698873313      1.73004607885927
  H   -0.63240797027068     -0.63613128154553      1.76727439530791
  H   -2.15104153302279      0.11496113979819      1.26700382142047
  N   1.67545102923430     -0.85182306384808      0.09615121062121
  H   1.45645312761182     -1.02712522417362      1.06695226246709
  H   1.56658830981722     -1.69118409094141     -0.45364411528355
  N   1.50144361290762      1.48960178477604      0.14946583849614
  O   1.58583659846656      1.51396083629308      1.37617238364108
  O   1.86838920066842      2.37305694328710     -0.61722237938080
