18
Coordinates from ORCA-job run
  C   -0.51628910253365     -0.44499895219784     -0.08864156719944
  C   1.01198952186960     -0.25001163022817     -0.27083093518225
  Br  -0.75262875428245     -2.40908906759496     -0.13846793334930
  H   1.31190571889498     -0.73632160366055     -1.19948046177124
  C   -1.04662867735453      0.04694080285083      1.24653222797298
  H   -0.90254572755681      1.12681852714904      1.32792044096289
  H   -2.11323222408349     -0.17139016590499      1.32190841441799
  H   -0.54722832388660     -0.43878699813600      2.08554616440901
  C   -1.29509162893800      0.14072649607874     -1.25644968428053
  H   -0.89027155201283     -0.19003046408526     -2.21457313906983
  H   -2.34259066791343     -0.15918044453599     -1.19777094595229
  H   -1.25050492376841      1.23295972581687     -1.22261392572524
  N   1.89819550716834     -0.64273231167570      0.78187200153525
  H   1.89675114602109     -1.64905284508929      0.87986578979845
  H   1.64119019620611     -0.21064944199992      1.65946561365754
  N   1.24985397518377      1.21965746997832     -0.51349564450323
  O   1.27486159256001      1.94580209718932      0.47848880237043
  O   1.37126392442630      1.58933880604556     -1.67827521809120
