16

C	-0.64262	0.001112	-1.382852
C	0.0	0.0	0.0
Br	0.141252	-1.344579	-2.553681
H	1.094904	0.0	0.0
C	-2.077085	-0.242946	-1.28225
N	-3.212687	-0.493075	-1.107275
N	-0.437212	1.339208	-2.083105
O	0.618389	1.911209	-1.865757
O	-1.326305	1.711562	-2.844364
N	-0.365908	-1.235625	0.64788
H	-1.227609	-1.166109	1.174907
H	0.401223	-1.512364	1.249142
N	-0.463698	1.236448	0.648267
H	0.366963	1.802072	0.813801
H	-0.858983	1.006378	1.551454
H	2.737206	0.0	0.0
