16

C	-0.623798	-0.025418	-1.396836
C	0.0	0.0	0.0
Br	0.121051	-1.434247	-2.512237
H	1.092096	0.0	0.0
C	-2.067053	-0.219503	-1.308449
N	-3.216776	-0.409909	-1.143447
N	-0.355174	1.305708	-2.096354
O	-1.333545	1.979273	-2.408352
O	0.815312	1.596373	-2.269239
N	-0.376951	-1.219923	0.679639
H	-1.216758	-1.107172	1.232342
H	0.394685	-1.490397	1.277402
N	-0.38037	1.273315	0.591754
H	-1.166552	1.181282	1.226212
H	0.429756	1.618782	1.101762
H	2.710324	0.0	0.0
