15

C	0.0	0.0	0.0
C	-0.527104	0.016539	-1.4693
Br	1.954742	0.0	0.0
H	-1.583065	0.289433	-1.523379
C	-0.437558	1.199706	0.711132
N	-0.801191	2.154056	1.30639
C	-0.485913	-1.173338	0.723404
N	-0.888516	-2.11837	1.312334
N	-0.439386	-1.308939	-2.159186
O	0.362513	-2.138088	-1.748393
O	-1.244477	-1.446478	-3.078035
N	0.193012	1.053491	-2.289249
O	0.861753	0.683794	-3.250312
O	-0.160556	2.20084	-2.024509
H	-1.608112	0.0	0.0
