14

C	-0.518442	0.189027	-1.400207
C	0.0	0.0	0.0
F	-0.249796	1.480948	-1.871449
H	1.095544	0.0	0.0
H	-0.03133	-0.513028	-2.08329
H	-1.608001	0.066945	-1.434893
C	-0.463076	-1.348231	0.526969
H	-0.102629	-2.159254	-0.113063
H	-1.555563	-1.391367	0.599245
H	-0.040698	-1.517593	1.521324
N	-0.549752	1.0741	0.850327
H	-0.255619	1.945874	0.416727
H	-0.020683	1.034323	1.719016
H	3.101788	0.0	0.0
