14

C	-0.539006	0.109526	-1.410238
C	0.0	0.0	0.0
F	-0.490189	-1.105681	-2.101201
H	1.095579	0.0	0.0
H	0.048599	0.839127	-1.972098
H	-1.589773	0.423492	-1.390471
C	-0.499745	-1.242388	0.716575
H	-0.191384	-2.145318	0.18613
H	-0.071657	-1.27713	1.7227
H	-1.596838	-1.247326	0.798785
N	-0.388294	1.257485	0.663151
H	0.390977	1.544233	1.247804
H	-1.194595	1.1042	1.263103
H	3.024126	0.0	0.0
