14

C	-0.463617	0.001695	-1.442616
C	0.0	0.0	0.0
F	-0.316916	-1.243832	-2.058567
H	1.095715	0.0	0.0
H	0.122095	0.725885	-2.017326
H	-1.533294	0.255775	-1.508751
C	-0.559487	-1.17069	0.781766
H	-0.171442	-1.12911	1.801082
H	-1.656398	-1.133172	0.827163
H	-0.25866	-2.117552	0.32831
N	-0.375367	1.276363	0.629621
H	-1.2075	1.670231	0.201399
H	0.391616	1.926195	0.491337
H	3.024514	0.0	0.0
