16

C	-0.451797	0.075941	-1.443356
C	0.0	0.0	0.0
F	-0.136868	-1.155633	-2.057494
H	1.092215	0.0	0.0
H	-1.537123	0.166388	-1.536455
N	0.204753	1.170634	-2.056419
H	1.209888	1.077935	-1.926709
H	-0.006644	1.204997	-3.045182
N	-0.498883	-1.277034	0.590055
O	0.277558	-1.959789	1.24848
O	-1.69424	-1.537218	0.419801
C	-0.534033	1.145526	0.842392
H	-0.184591	1.037078	1.871264
H	-1.627522	1.160365	0.830358
H	-0.15288	2.084283	0.442872
Cl	3.420357	0.0	0.0
