16

C	-0.492231	-0.042462	-1.439571
C	0.0	0.0	0.0
F	-0.047527	1.141761	-2.057565
H	1.092044	0.0	0.0
H	-0.020245	-0.864779	-1.973386
N	-1.908785	-0.16555	-1.517304
H	-2.348408	0.662188	-1.134508
H	-2.197479	-0.263724	-2.482143
N	-0.405505	-1.295394	0.630956
O	-0.956498	-1.271359	1.732176
O	-0.142644	-2.322231	0.009221
C	-0.512123	1.183991	0.789578
H	-0.236927	2.092407	0.252195
H	-0.03361	1.206506	1.767613
H	-1.593259	1.150798	0.943172
Cl	3.359045	0.0	0.0
