16

C	-0.444431	0.042722	-1.451018
C	0.0	0.0	0.0
F	-1.785497	0.52458	-1.539724
H	1.091023	0.0	0.0
H	0.16388	0.81541	-1.927725
N	-0.268526	-1.170413	-2.147578
H	-0.895217	-1.874841	-1.786782
H	-0.410358	-1.041501	-3.13883
N	-0.450741	-1.233523	0.713718
O	0.151107	-1.534285	1.738943
O	-1.43297	-1.850652	0.281211
C	-0.494038	1.189722	0.806192
H	-0.175482	2.108496	0.310417
H	-1.582748	1.18926	0.881304
H	-0.043838	1.165019	1.799033
Cl	3.399014	0.0	0.0
