16

C	-0.399086	0.0824	-1.462804
C	0.0	0.0	0.0
F	-0.164206	-1.183967	-2.042478
H	1.092206	0.0	0.0
H	-1.467463	0.257249	-1.603594
N	0.37132	1.10419	-2.0592
H	1.35806	0.948089	-1.86781
H	0.217517	1.133957	-3.057879
N	-0.551493	-1.252681	0.580992
O	-1.766326	-1.424727	0.450716
O	0.199944	-2.008976	1.182983
C	-0.513036	1.174533	0.812831
H	-1.603888	1.228753	0.779674
H	-0.088854	2.090849	0.404324
H	-0.185834	1.075252	1.850365
Cl	3.41498	0.0	0.0
