16

C	-0.500111	0.04201	-1.449997
C	0.0	0.0	0.0
F	-0.251838	1.332312	-1.900656
H	1.094775	0.0	0.0
H	0.090083	-0.638846	-2.061419
N	-1.893509	-0.239592	-1.659425
H	-2.458301	0.160287	-0.920434
H	-2.032979	-1.240035	-1.673178
N	-0.387094	-1.328854	0.563002
O	-0.751914	-1.396985	1.736256
O	-0.298994	-2.304163	-0.187111
C	-0.512624	1.128126	0.866757
H	-0.197665	2.068779	0.416903
H	-0.077772	1.055526	1.861859
H	-1.602145	1.121405	0.969344
Cl	3.323921	0.0	0.0
