16

C	-0.385395	-0.046216	-1.482132
C	0.0	0.0	0.0
F	-1.749277	-0.345124	-1.567911
H	1.091517	0.0	0.0
H	-0.258902	0.96807	-1.872047
N	0.342726	-0.940371	-2.323986
H	0.445866	-1.822498	-1.835267
H	1.282814	-0.565822	-2.427846
N	-0.442647	-1.259082	0.673314
O	-1.09741	-1.176191	1.710216
O	-0.127263	-2.327977	0.150427
C	-0.547002	1.213434	0.71729
H	-0.226794	1.222836	1.75802
H	-0.143656	2.105795	0.232383
H	-1.637821	1.241163	0.681083
Cl	3.33034	0.0	0.0
