16

C	-0.421339	0.112805	-1.465632
C	0.0	0.0	0.0
F	-0.341947	-1.158947	-2.024882
H	1.092565	0.0	0.0
H	-1.465287	0.430957	-1.558073
N	0.428347	0.988141	-2.205942
H	0.131616	1.949612	-2.130184
H	1.391808	0.896512	-1.889321
N	-0.569284	-1.245385	0.578375
O	-1.803802	-1.30412	0.62375
O	0.187841	-2.127607	0.966947
C	-0.486325	1.185432	0.81457
H	-0.170931	1.076577	1.854254
H	-0.023056	2.095751	0.429445
H	-1.574211	1.277422	0.776696
Cl	3.396219	0.0	0.0
