19

C	0.0	0.0	0.0
C	-0.295341	-0.120155	-1.524962
Cl	1.831098	0.0	0.0
H	0.37687	-0.897771	-1.917428
N	-0.521699	1.18499	0.583889
H	-0.631386	1.868689	-0.161315
H	-1.437575	0.982926	0.980233
C	-0.434681	-1.229095	0.774452
H	-0.084262	-1.147593	1.806263
H	-0.011514	-2.133134	0.333328
H	-1.526265	-1.300407	0.769906
N	-0.015385	1.186849	-2.125127
H	-0.448639	1.245487	-3.036121
H	0.982861	1.315089	-2.234641
C	-1.726059	-0.527942	-1.83254
H	-1.88539	-1.580227	-1.604792
H	-1.912271	-0.396667	-2.905311
H	-2.477957	0.035807	-1.281015
Cl	-4.573352	0.0	0.0
