19

C	0.0	0.0	0.0
C	-0.294689	-0.324762	-1.507271
Cl	1.807798	0.0	0.0
H	0.348272	-1.183467	-1.732316
N	-0.505186	1.310112	0.330715
H	-1.520008	1.259972	0.21133
H	-0.341478	1.489336	1.316709
C	-0.46677	-1.102995	0.932791
H	-0.082137	-0.932915	1.943139
H	-1.560259	-1.088039	0.962682
H	-0.12342	-2.084035	0.593021
N	0.096686	0.748202	-2.418095
H	1.047137	1.029431	-2.203126
H	-0.485299	1.551686	-2.20315
C	-1.723158	-0.718924	-1.831363
H	-2.433296	0.095597	-1.701653
H	-2.094721	-1.532687	-1.211398
H	-1.738934	-1.033833	-2.878316
Cl	-4.34592	0.0	0.0
