19

C	0.0	0.0	0.0
C	-0.370264	-0.269695	-1.466412
Cl	1.897892	0.0	0.0
H	0.164402	-1.185175	-1.760277
N	-0.498849	1.24187	0.389143
H	-0.242121	1.517839	1.324452
H	-0.298426	1.949204	-0.305592
C	-0.408724	-1.099525	0.954023
H	-0.052703	-2.069486	0.601709
H	0.018133	-0.917004	1.94295
H	-1.497206	-1.1046	1.034473
N	0.05231	0.889975	-2.260106
H	1.037875	0.818589	-2.480671
H	-0.47186	0.909975	-3.125577
C	-1.869027	-0.476386	-1.62844
H	-2.107132	-0.618559	-2.688119
H	-2.450065	0.36197	-1.246865
H	-2.227902	-1.355168	-1.097024
Cl	-5.016023	0.0	0.0
