19

C	0.0	0.0	0.0
C	-0.390395	0.069308	-1.506647
Cl	1.860649	0.0	0.0
H	0.257995	0.851274	-1.928493
N	-0.45399	1.179334	0.644281
H	-0.276822	1.163848	1.63945
H	-0.039431	2.007758	0.236343
C	-0.512709	-1.216067	0.73386
H	-1.605549	-1.205948	0.670021
H	-0.224433	-1.171712	1.788199
H	-0.114566	-2.136878	0.30925
N	-1.758144	0.459571	-1.764948
H	-1.993675	1.289824	-1.234319
H	-2.432496	-0.219701	-1.419722
C	-0.106165	-1.232138	-2.243525
H	0.905176	-1.60087	-2.066636
H	-0.245683	-1.063002	-3.312485
H	-0.823421	-1.998758	-1.937917
Cl	-4.503411	0.0	0.0
