17

C	-0.427253	-0.019974	-1.447334
C	0.0	0.0	0.0
Cl	-0.08678	1.569907	-2.203187
H	1.093966	0.0	0.0
H	-0.363455	0.921343	0.460495
C	0.255568	-1.095974	-2.256508
H	-0.019139	-2.083387	-1.88444
H	-0.017627	-1.030456	-3.309687
H	1.33194	-0.947252	-2.12011
N	-1.954335	-0.175411	-1.504525
O	-2.413415	-1.175852	-2.058578
O	-2.627212	0.672979	-0.925018
C	-0.485245	-1.213007	0.786211
H	-1.576329	-1.280497	0.847337
H	-0.092058	-1.137292	1.803001
H	-0.097741	-2.144192	0.368682
H	2.958053	0.0	0.0
