17

C	-0.546968	0.057168	-1.413009
C	0.0	0.0	0.0
Cl	0.049672	-1.300518	-2.391462
H	1.091242	0.0	0.0
H	-0.325616	0.920877	0.494405
C	-2.064903	0.088286	-1.512749
H	-2.376096	0.232931	-2.550722
H	-2.452888	0.902525	-0.898973
H	-2.470655	-0.85963	-1.16017
N	-0.070177	1.370599	-2.056107
O	0.577469	1.360797	-3.09104
O	-0.454217	2.380083	-1.466448
C	-0.475536	-1.212981	0.789821
H	-1.55092	-1.211425	0.997882
H	0.057687	-1.221965	1.743754
H	-0.218365	-2.140082	0.273787
H	2.969611	0.0	0.0
