17

C	-0.551681	-0.038302	-1.411911
C	0.0	0.0	0.0
Cl	0.139648	-1.387177	-2.340633
H	1.091262	0.0	0.0
H	-0.334484	0.945783	0.440399
C	-2.065211	-0.124404	-1.506049
H	-2.517504	0.667551	-0.908934
H	-2.392395	-0.030644	-2.544679
H	-2.388489	-1.094675	-1.129849
N	-0.139751	1.277744	-2.085552
O	-0.742854	2.263198	-1.661044
O	0.729472	1.298411	-2.940105
C	-0.460344	-1.170731	0.859932
H	0.09723	-1.136279	1.799444
H	-0.217456	-2.122099	0.381573
H	-1.530591	-1.155208	1.092122
H	2.969677	0.0	0.0
