17

C	-0.393899	0.040709	-1.459741
C	0.0	0.0	0.0
Cl	-2.136665	0.493754	-1.686231
H	1.093588	0.0	0.0
H	-0.298623	0.970882	0.411489
C	0.482476	1.002961	-2.223188
H	1.527181	0.759102	-2.001966
H	0.281105	0.962979	-3.29611
H	0.278057	2.009021	-1.854152
N	-0.250392	-1.362855	-2.056527
O	0.785243	-1.597519	-2.671935
O	-1.137879	-2.1788	-1.830086
C	-0.561313	-1.132306	0.84147
H	-1.64968	-1.208424	0.778366
H	-0.279204	-0.960395	1.883101
H	-0.131418	-2.09058	0.546083
H	2.948053	0.0	0.0
