17

C	-0.396862	-0.03458	-1.46038
C	0.0	0.0	0.0
Cl	-0.176118	1.585459	-2.191975
H	1.093896	0.0	0.0
H	-0.375131	0.920902	0.452064
C	0.4006	-1.034368	-2.259679
H	1.454366	-0.784553	-2.099983
H	0.223948	-2.043324	-1.889121
H	0.139331	-0.995962	-3.317923
N	-1.898907	-0.321123	-1.5486
O	-2.249431	-1.387104	-2.055739
O	-2.66016	0.48652	-1.025609
C	-0.488914	-1.212934	0.784109
H	-0.0565	-1.167949	1.786678
H	-1.579274	-1.246385	0.881769
H	-0.149598	-2.149285	0.336253
H	2.960587	0.0	0.0
