14
Coordinates from ORCA-job run
  C   -0.98331506496844     -0.12824189890340     -0.20771902209500
  C   0.31244816766091     -0.03360939022998      0.60863919958877
  Br  -2.36458897358156      0.82443116993314      0.81966741356730
  H   0.19968852234147     -0.52085417938647      1.57743921780694
  C   -1.38198321537350     -1.53197962509189     -0.28871415569139
  N   -1.70704782607456     -2.66203975580045     -0.30576974823422
  C   -0.90716378951274      0.46844919344101     -1.53806046311874
  N   -0.91774348663798      0.92706700683555     -2.62088582389923
  N   0.72247612969538      1.38893236363320      0.85351585336387
  O   0.98804904919949      2.03916406655940     -0.15162561212816
  O   0.76034534862034      1.75246956385072      2.02166353522379
  N   1.47864845078317     -0.68596141190176     -0.09927070659422
  O   1.25890968125711     -1.23138412297289     -1.17373084846740
  O   2.54027700659090     -0.60844297996616      0.50285116067768
