14
Coordinates from ORCA-job run
  C   -0.94312579394048     -0.00224818013960     -0.37000835946451
  C   0.45212317355935      0.51468506175187      0.00476467610454
  Br  -2.21440053844515      1.42488421885831      0.09709329174801
  H   0.70406430410739      1.40777282947522     -0.56761206420490
  C   -1.34544084700937     -1.22132799820048      0.32542946164279
  N   -1.73446759554938     -2.20136909835573      0.84613227160912
  C   -0.99843304757474     -0.18683962828741     -1.81874682683597
  N   -1.03490509865268     -0.28800811442614     -2.98982706024579
  N   1.52829173426805     -0.51519343421614     -0.25586590706286
  O   1.18744347153218     -1.57996596485835     -0.75618618487187
  O   2.65490039835825     -0.15610318896772      0.05625843371361
  N   0.55418036414355      0.85762923472147      1.46204979303067
  O   0.39736511442164     -0.08161789195349      2.23461956321737
  O   0.79140436078138      2.02770215459820      1.73189891161980
