16
Coordinates from ORCA-job run
  C   -0.68387716487214      0.19035975639322     -0.37903348398575
  C   0.77904244933329      0.31875820101728      0.07050390988539
  Br  -0.90059714417131      0.79967651171020     -2.21503684315780
  H   1.06493760745254      1.36651763519877     -0.04535844511787
  N   -1.17173171446354     -1.11760854417538     -0.25376636569501
  H   -1.06600103086992     -1.45298854378458      0.69856726512344
  H   -2.14505807184787     -1.18070282805119     -0.52354262289305
  N   -1.51126284640035      1.23483137501842      0.45266121796770
  O   -2.60766581920100      0.85827733686532      0.84673479596655
  O   -1.00543664344496      2.33424359779314      0.63175121164118
  C   1.72729575409399     -0.59319132885931     -0.71062673991819
  H   2.74150287217633     -0.48004157339499     -0.32410305670126
  H   1.72439120804026     -0.31914836080614     -1.76513619905327
  H   1.42322531848918     -1.63494939083034     -0.61716755647693
  C   0.81794346198341     -0.00551412234807      1.50053135559568
  N   0.81629176370209     -0.31851972174634      2.63302155681919
