16
Coordinates from ORCA-job run
  C   -0.62233409151331      0.42931170129876     -0.37281280135905
  C   0.67120287813368     -0.37436628476142     -0.14569034856183
  Br  -0.31744429031895      2.33118784249526     -0.34423530804424
  H   0.37724105441695     -1.42662556466279     -0.25607037648061
  N   -1.21988962655625      0.06844912513999     -1.59845196441244
  H   -1.47448514149778     -0.91250142102335     -1.59620357754282
  H   -2.02417589340348      0.64148068574860     -1.82001016365660
  N   -1.51907357556516      0.04360066769407      0.85538593633921
  O   -1.94039444432575     -1.10990401665119      0.78199374679387
  O   -1.69736446147410      0.82255632852545      1.77747031785072
  C   1.30405885111678     -0.18297125289154      1.23418329951046
  H   2.23245310609044     -0.75311658344657      1.28742856198371
  H   1.53105942281250      0.86785739111329      1.41531432730260
  H   0.63931139543069     -0.54440837732999      2.01997440168325
  C   1.62214964397128     -0.06345396354231     -1.21179918903154
  N   2.43668517268245      0.16290372229375     -2.02647686237467
