16
Coordinates from ORCA-job run
  C   -0.67707409642506      0.21110980530344     -0.38000935041746
  C   0.79075217394157      0.28824715936785      0.06528322663017
  Br  -0.87397305839336      0.79962002313751     -2.22460100496038
  H   1.11612702303718      1.32298963202008     -0.06269444359876
  N   -1.21629615671382     -1.07432581695910     -0.23361890279572
  H   -1.12449225573279     -1.39781218037056      0.72429818854278
  H   -2.19123811161785     -1.10345029892193     -0.50355273178704
  N   -1.46062502323774      1.30037673510354      0.43641204776352
  O   -2.57060522425889      0.97384903305557      0.83715974971913
  O   -0.91045542123745      2.38079315412134      0.59986435900949
  C   1.70173172996349     -0.66834516900615     -0.70669034093861
  H   1.35264879644747     -1.69542894176143     -0.60746291722790
  H   2.71850474458588     -0.59615182214527     -0.31700900460184
  H   1.71435989781614     -0.40111015071991     -1.76293679206266
  C   0.82018031703517     -0.02065741966595      1.49902709822248
  N   0.81145466479005     -0.31870374255903      2.63553081850280
