16
Coordinates from ORCA-job run
  C   -0.67071221022647      0.42912665691135     -0.33963267978340
  C   0.84160236835591      0.19908061184884     -0.21605177294311
  Br  -0.99677807194569      2.35181720873493     -0.79865495607032
  H   1.21834665755801      0.31035421677545     -1.24159997680769
  N   -1.24670695575948     -0.48072036998739     -1.23721898279225
  H   -0.89531022428974     -0.34817262143252     -2.17663846530285
  H   -2.25765712053336     -0.42170475863795     -1.22383906442998
  N   -1.38747076542926      0.25242042179155      0.99848303144686
  O   -2.57496064845929     -0.04124531692579      0.94030588047127
  O   -0.73062930935130      0.44157267658168      2.01294672014043
  C   1.17919973073108     -1.21287361558002      0.28325926952205
  H   0.65156482196175     -1.95585054407522     -0.31325374431512
  H   2.25421349637265     -1.37705905854409      0.19171990547734
  H   0.90547102476025     -1.32592473854523      1.33161454231824
  C   1.53231451029988      1.21016751884845      0.58477058214243
  N   2.17951269595507      1.97001171223596      1.20278971092609
