16
Coordinates from ORCA-job run
  C   -0.77253558914765      0.27398211967717     -0.33088638367083
  C   0.73441430369631      0.32081996351081      0.03469839041202
  Br  -1.00200652750886      0.92117988967907     -2.15107357411131
  H   1.07547440634691      1.35113776466589     -0.10144341719945
  N   -1.46185452380964     -0.95042505989713     -0.19347969819925
  H   -1.46841365370610     -1.28234775829199      0.76320033459446
  H   -1.12307830698708     -1.65148894597808     -0.83654063363490
  N   -1.44060315049027      1.30357256163188      0.60770955256411
  O   -1.02640680766813      2.45213704702419      0.52780130346729
  O   -2.27284990177911      0.87561789968110      1.39586163935412
  C   1.59090366372986     -0.63934370779874     -0.79156471897728
  H   2.63199184566399     -0.56382944022795     -0.47389288460971
  H   1.53332170142824     -0.38868210178884     -1.85037696599582
  H   1.27168239213047     -1.67286300998636     -0.64570066001262
  C   0.83836166727176     -0.01732033853440      1.45709806492724
  N   0.89259848082929     -0.33314688336661      2.58758965109192
