16
Coordinates from ORCA-job run
  C   -0.68177241731233      0.19902291039935     -0.38082515691938
  C   0.78212781629846      0.30644400682099      0.07036310204783
  Br  -0.88460655822523      0.79812695101905     -2.22189626459570
  H   1.08471884617106      1.34891574958122     -0.05037625434771
  N   -1.19129503294911     -1.09981799949958     -0.24707506291254
  H   -2.16570715738108     -1.14818647432751     -0.51629810759662
  H   -1.09079763801845     -1.43102625632832      0.70734488439022
  N   -1.49452535304419      1.26276439948265      0.43989081514767
  O   -0.96732444461715      2.35173132163983      0.62131800974316
  O   -2.60276572423123      0.91053074090455      0.82317791081270
  C   1.71680740296983     -0.62511103210914     -0.70398004062115
  H   1.38910306547409     -1.66004276126012     -0.61407172271136
  H   2.72991216096368     -0.53449946747150     -0.30866841387675
  H   1.72881440000861     -0.34982717598588     -1.75818153161452
  C   0.81599895972478     -0.01017731613712      1.50235338356950
  N   0.83031167416827     -0.31884759672848      2.63592444948464
