16
Coordinates from ORCA-job run
  C   -0.68391070459172      0.44221110195588     -0.47426896343494
  C   0.83473625742875      0.31860269581874     -0.24798329677464
  Br  -1.13002830783867      2.20466534415160     -1.12794435980136
  H   1.26769040005723      0.47941724676858     -1.24116933614276
  N   -1.12822467529794     -0.52854676794134     -1.40379750619509
  H   -2.05830338962945     -0.30675335306494     -1.73731358315595
  H   -1.15892822716004     -1.43943671705964     -0.95982302784805
  N   -1.35982001595105      0.27588141909173      0.92851995032673
  O   -1.83649233165007     -0.83666995893355      1.14478502020334
  O   -1.29756549542263      1.20577825885774      1.71761885157417
  C   1.24224017903964     -1.07062468788184      0.26028267229641
  H   0.79711041228342     -1.29000006282037      1.23193864926264
  H   0.95268987763113     -1.84032147230387     -0.45592593098594
  H   2.32702310184766     -1.10647446848772      0.36946985637137
  C   1.36319733668854      1.35388247364506      0.64156041514048
  N   1.86758558256520      2.13938894820394      1.35405058916358
