16
Coordinates from ORCA-job run
  C   -0.77662690582328      0.45893423535378     -0.40000384955508
  C   0.76385417301058      0.31203573010336     -0.25936187449816
  Br  -1.17302589527663      2.23922525993803     -1.05709980433958
  H   1.14980808211800      0.45906165659544     -1.27540342355771
  N   -1.43450894772604     -0.48193918291370     -1.23559857258449
  H   -1.37601659205608     -1.42055975154980     -0.86496786291998
  H   -1.10392560968609     -0.42790946069328     -2.18914810612097
  N   -1.35766207270399      0.28733794223674      1.01131131339785
  O   -1.70646024560314     -0.85772373941619      1.28975972547748
  O   -1.34498597926427      1.24762895513241      1.76572316870135
  C   1.19116291704802     -1.07043532671052      0.24754997413966
  H   0.86006346511161     -1.24165587238945      1.27210760314796
  H   2.27993196843522     -1.13807453649457      0.22547777223065
  H   0.79053131083036     -1.85815216508738     -0.39161661618805
  C   1.35130480592867      1.35345186739865      0.58481477886504
  N   1.88455552565706      2.13977438849647      1.27545577380405
