19

C	0.0	0.0	0.0
C	-0.608345	0.003284	-1.413328
Br	1.946204	0.0	0.0
H	-1.688551	0.006249	-1.199679
N	-0.355345	1.294274	0.745147
O	-0.033678	2.356654	0.2182
O	-0.900864	1.188168	1.836484
C	-0.490222	-1.181928	0.802887
H	-0.186329	-2.086562	0.280883
H	-1.582145	-1.125841	0.84677
H	-0.076769	-1.165474	1.810162
N	-0.268209	-1.284595	-2.026828
H	0.509938	-1.160067	-2.665127
H	-1.065532	-1.609091	-2.559559
C	-0.277534	1.177407	-2.32714
H	-0.686039	2.117911	-1.965429
H	-0.719616	0.963381	-3.304619
H	0.804196	1.290947	-2.449893
Cl	-3.852551	0.0	0.0
