16

C	0.0	0.0	0.0
C	-0.462407	0.065049	-1.457528
F	1.362082	0.0	0.0
H	-1.480446	-0.336804	-1.486268
C	-0.453608	1.106451	0.844022
N	-0.545558	2.072615	1.507946
N	-0.363647	-1.332897	0.655142
O	-0.53155	-2.284131	-0.093955
O	-0.316641	-1.3535	1.878909
C	0.437914	-0.734792	-2.288832
N	1.165992	-1.301717	-3.014996
C	-0.485042	1.516824	-1.951106
H	-1.304619	2.035501	-1.454279
H	-0.661779	1.533217	-3.027922
H	0.461732	2.021981	-1.745068
Br	-3.368561	0.0	0.0
