13

C	-0.292671	0.035583	-1.473019
C	0.0	0.0	0.0
F	-1.658229	0.219046	-1.777634
H	1.097292	0.0	0.0
H	0.024843	-0.893675	-1.951109
H	0.254939	0.872709	-1.915244
C	-0.547665	-1.187805	0.627408
N	-0.995468	-2.143667	1.147308
C	-0.439848	1.273121	0.719482
H	-0.14917	1.224813	1.77141
H	0.090686	2.119417	0.273581
H	-1.51803	1.450008	0.65409
F	2.577512	0.0	0.0
