13

C	-0.291199	0.032571	-1.473049
C	0.0	0.0	0.0
F	-1.655664	0.212301	-1.778823
H	1.097277	0.0	0.0
H	0.028555	-0.896378	-1.949921
H	0.254237	0.86964	-1.915639
C	-0.547432	-1.186665	0.629472
N	-0.994891	-2.141314	1.15142
C	-0.440636	1.274217	0.716773
H	0.092825	2.119042	0.271173
H	-1.518534	1.452865	0.648026
H	-0.153095	1.226729	1.769566
F	2.577018	0.0	0.0
