13

C	-0.446351	0.093642	-1.442655
C	0.0	0.0	0.0
F	-0.255303	-1.107046	-2.119674
H	1.09534	0.0	0.0
H	0.166203	0.853638	-1.936788
H	-1.511758	0.345717	-1.542726
C	-0.589273	-1.14937	0.657057
N	-1.088397	-2.073017	1.187801
C	-0.354287	1.296177	0.733043
H	0.00438	1.239062	1.762285
H	0.181758	2.120051	0.254332
H	-1.428769	1.518675	0.742756
F	2.585703	0.0	0.0
