13

C	-0.44866	-0.029384	-1.450757
C	0.0	0.0	0.0
F	-0.130466	1.175954	-2.075263
H	1.095835	0.0	0.0
H	0.079529	-0.825946	-1.981223
H	-1.534146	-0.160375	-1.559102
C	-0.490884	-1.209694	0.635732
N	-0.909753	-2.184228	1.145864
C	-0.482561	1.247542	0.734853
H	-0.130915	1.222333	1.768288
H	-1.574993	1.353465	0.733749
H	-0.039015	2.119193	0.253107
F	2.590039	0.0	0.0
