16

C	-0.465354	0.045742	-1.445873
C	0.0	0.0	0.0
F	-1.908816	0.113376	-1.426552
H	1.095034	0.0	0.0
H	-0.157275	0.972019	-1.935815
N	-0.035823	-1.061773	-2.205803
H	-0.238404	-1.924707	-1.720473
H	-0.467449	-1.070675	-3.119185
N	-0.439686	-1.213767	0.694648
H	-1.359796	-1.49272	0.375166
H	0.222937	-1.963616	0.543261
C	-0.489867	1.225416	0.75804
H	-0.064405	1.207618	1.761791
H	-0.168218	2.146154	0.261977
H	-1.580477	1.229	0.83396
Br	3.724832	0.0	0.0
