16

C	-0.380491	-0.068307	-1.468133
C	0.0	0.0	0.0
F	-1.787458	-0.063173	-1.554938
H	1.096847	0.0	0.0
H	-0.033865	0.826926	-1.994387
N	0.109946	-1.233931	-2.138642
H	0.084414	-1.980192	-1.447203
H	1.088669	-1.070325	-2.352525
N	-0.423808	-1.247149	0.644164
H	-1.367771	-1.153898	0.998729
H	0.194445	-1.440637	1.421093
C	-0.514995	1.259867	0.681354
H	-1.609854	1.276485	0.687528
H	-0.159754	2.156629	0.164422
H	-0.152487	1.305104	1.711688
Br	3.638537	0.0	0.0
