16

C	-0.382768	-0.026674	-1.469232
C	0.0	0.0	0.0
F	-1.790783	-0.007484	-1.554279
H	1.096819	0.0	0.0
H	-0.029612	0.879514	-1.971769
N	0.097151	-1.177447	-2.171037
H	1.075713	-1.016318	-2.388594
H	0.066223	-1.942608	-1.501164
N	-0.426746	-1.262974	0.611159
H	0.191434	-1.478399	1.382543
H	-1.370508	-1.174787	0.968307
C	-0.510282	1.241753	0.717606
H	-0.143254	1.258457	1.747205
H	-1.605021	1.25976	0.729182
H	-0.156174	2.152029	0.224051
Br	3.641701	0.0	0.0
