16

C	-0.506126	0.002413	-1.439368
C	0.0	0.0	0.0
F	-0.23916	1.238006	-2.017013
H	1.095417	0.0	0.0
H	0.041136	-0.757155	-2.004917
N	-1.924747	-0.246449	-1.609848
H	-2.105358	-1.124484	-1.136734
H	-2.436514	0.475971	-1.112971
N	-0.425012	-1.295168	0.580399
H	-1.069849	-1.134448	1.344951
H	0.395021	-1.748029	0.966352
C	-0.496274	1.192442	0.800949
H	-1.586465	1.1717	0.926496
H	-0.038204	1.181059	1.792771
H	-0.221311	2.127418	0.311055
Br	3.666866	0.0	0.0
