16

C	-0.444645	0.076838	-1.460453
C	0.0	0.0	0.0
F	-0.063487	1.319134	-1.965415
H	1.094644	0.0	0.0
H	0.095373	-0.675101	-2.042604
N	-1.853501	-0.082318	-1.699094
H	-2.414661	0.210646	-0.911795
H	-2.09963	-1.020564	-1.97586
N	-0.391362	-1.27389	0.616808
H	0.309928	-1.973044	0.396002
H	-1.283184	-1.586872	0.24795
C	-0.524187	1.163095	0.825627
H	-0.245713	2.116758	0.376016
H	-1.615728	1.128145	0.938307
H	-0.090502	1.09951	1.824012
Br	3.687237	0.0	0.0
