19
Coordinates from ORCA-job run
  C   -0.71959535141144      0.32057302486388      0.21104587340891
  C   0.71574590818472      0.52752980833020     -0.30259211492407
  Br  -1.30575683582148      2.03831075822157      0.99121209864091
  H   0.70296551798044      1.34940240171114     -1.02084174249230
  C   -1.63474118838152      0.04360766812976     -0.97781035082750
  H   -1.51554166880230      0.79790038851812     -1.75870693553268
  H   -2.67607957884022      0.05071649826831     -0.65249763156665
  H   -1.42015327917582     -0.94260533756018     -1.39805078135959
  C   -0.88559350618006     -0.75134421768136      1.27771001083813
  H   -1.93786272847876     -0.81424419595588      1.56139539899906
  H   -0.58222010859739     -1.72384578338788      0.87954788414004
  H   -0.29404955196936     -0.54044018169903      2.16575560440447
  C   1.35508473020894     -0.71346126913489     -0.91009618515365
  H   2.36150729861012     -0.46664093734281     -1.25617288311954
  H   1.43512326852182     -1.51419882904189     -0.17607820004394
  H   0.78390286130605     -1.06279352229725     -1.77027227737105
  N   1.63448720382911      1.01671657423062      0.78062199528923
  O   1.89878313449805      0.23293972117664      1.69131657238731
  O   2.08399387451909      2.15387743065093      0.66451366428292
