19
Coordinates from ORCA-job run
  C   -0.70603821003190      0.37975165798430      0.14976287393819
  C   0.75871368005809      0.45693732282716     -0.31408629810265
  Br  -1.21758621433363      2.19225342080696      0.74699154502859
  H   0.82667275120541      1.21366287238677     -1.09784610164337
  C   -1.58741764638226      0.04746404819398     -1.05041528470260
  H   -2.63873695021632      0.14736537829392     -0.77654822549349
  H   -1.41889487465811     -0.98506326791179     -1.36780551143307
  H   -1.38826676027387      0.71619117367316     -1.89075306723863
  C   -0.98017694293938     -0.57870634287868      1.29884036988024
  H   -0.41471285363300     -0.32086656610789      2.19152347120724
  H   -0.71917625518478     -1.59908294285490      1.00390938371217
  H   -2.04522559538019     -0.55617003047644      1.53729353216650
  C   1.34257815318644     -0.86706614057506     -0.78756226266891
  H   1.33735119269159     -1.60798573380999      0.01075244041031
  H   0.78914473011789     -1.25019689064209     -1.64495028363433
  H   2.37746823850131     -0.71192722398584     -1.10142678779972
  N   1.66172183397650      0.98166635395758      0.76573684939423
  O   2.18080844355233      2.07929708874107      0.58006014675763
  O   1.84377327974390      0.26147582237777      1.74652321022169
