15

C	-0.58375	-0.087155	-1.381156
C	0.0	0.0	0.0
F	-1.896318	-0.411075	-1.351336
H	1.088193	0.0	0.0
H	-0.321863	-0.910834	0.512329
N	-0.448302	1.217321	-2.133532
O	0.659652	1.72839	-2.087374
O	-1.438998	1.630889	-2.721567
N	0.071488	-1.15857	-2.233749
O	0.139138	-2.256235	-1.693489
O	0.405083	-0.874698	-3.37806
N	-0.526308	1.21798	0.615992
H	-1.090968	0.998931	1.423444
H	0.259393	1.779606	0.918247
Br	3.531558	0.0	0.0
