15

C	-0.582407	0.035383	-1.382271
C	0.0	0.0	0.0
F	-1.928727	0.181329	-1.34973
H	1.088193	0.0	0.0
H	-0.324641	0.921899	0.496131
N	-0.084242	1.174078	-2.248791
O	0.468789	2.107621	-1.681381
O	-0.361501	1.093951	-3.441939
N	-0.275418	-1.228209	-2.156878
O	-1.204209	-1.984005	-2.395534
O	0.899316	-1.363252	-2.46043
N	-0.467906	-1.229784	0.629257
H	0.274706	-1.596509	1.207033
H	-1.286785	-1.072285	1.197708
Br	3.545834	0.0	0.0
