15

C	-0.489817	0.009008	-1.421033
C	0.0	0.0	0.0
F	0.150974	-0.874518	-2.192764
H	1.092526	0.0	0.0
H	-0.319188	-0.956913	0.432283
N	-1.978518	-0.321083	-1.547421
O	-2.65515	-0.30088	-0.524428
O	-2.373138	-0.592128	-2.675218
N	-0.360817	1.384316	-2.055913
O	0.746627	1.654056	-2.493882
O	-1.357932	2.096511	-2.046425
N	-0.463061	1.180213	0.705888
H	-1.30869	0.99565	1.224088
H	0.266978	1.489795	1.332021
Br	3.531295	0.0	0.0
