15

C	-0.501162	-0.006958	-1.416321
C	0.0	0.0	0.0
F	0.135461	0.875011	-2.193511
H	1.092527	0.0	0.0
H	-0.315864	0.957541	0.433801
N	-0.38655	-1.381561	-2.055246
O	-1.384091	-2.092	-2.026174
O	0.709967	-1.652685	-2.517372
N	-1.990035	0.330381	-1.526948
O	-2.654765	0.322329	-0.496023
O	-2.396671	0.595101	-2.651771
N	-0.461508	-1.178552	0.709729
H	0.272646	-1.490654	1.330095
H	-1.302566	-0.990941	1.23437
Br	3.52856	0.0	0.0
