15

C	-0.56386	-0.040964	-1.391134
C	0.0	0.0	0.0
F	-1.874415	0.271131	-1.420776
H	1.091239	0.0	0.0
H	-0.328929	0.960749	0.405564
N	0.132592	0.960509	-2.299791
O	0.825727	0.537326	-3.214568
O	-0.085822	2.130532	-2.009049
N	-0.410705	-1.39183	-2.05665
O	-1.244092	-1.670815	-2.91163
O	0.542434	-2.070358	-1.702398
N	-0.575472	-1.120406	0.746243
H	-0.892665	-0.798932	1.649529
H	0.164655	-1.793345	0.903377
Br	3.537768	0.0	0.0
