15

C	-0.595864	0.138206	-1.368699
C	0.0	0.0	0.0
F	-1.926856	0.380183	-1.308354
H	1.088143	0.0	0.0
H	-0.323015	0.880817	0.563894
N	-0.031865	1.285116	-2.182428
O	0.324034	2.267025	-1.540013
O	-0.076457	1.174467	-3.405141
N	-0.387465	-1.112413	-2.189132
O	0.784224	-1.412845	-2.360946
O	-1.381073	-1.699489	-2.590412
N	-0.483328	-1.266675	0.54647
H	-1.198378	-1.121058	1.241362
H	0.299516	-1.749394	0.970769
Br	3.536651	0.0	0.0
