15

C	-0.535901	-0.002555	-1.406435
C	0.0	0.0	0.0
F	-1.89105	0.085987	-1.42266
H	1.08912	0.0	0.0
H	-0.34283	0.932074	0.456863
N	-0.060849	1.137835	-2.283518
O	-0.295938	1.020526	-3.481386
O	0.429739	2.104989	-1.719107
N	-0.159589	-1.277015	-2.129082
O	-1.022882	-2.145729	-2.200229
O	0.99725	-1.337103	-2.519313
N	-0.462829	-1.152171	0.757401
H	0.173116	-1.928206	0.623552
H	-1.399312	-1.434043	0.496521
Br	3.543787	0.0	0.0
