15

C	-0.404847	0.032112	-1.456025
C	0.0	0.0	0.0
F	0.028121	-1.028076	-2.135807
H	1.092556	0.0	0.0
H	-0.36833	0.90261	0.485952
N	-1.92914	0.059292	-1.584701
O	-2.482653	-0.983581	-1.909568
O	-2.472696	1.115293	-1.279066
N	0.035309	1.281073	-2.202687
O	0.057906	1.188182	-3.426666
O	0.275254	2.272383	-1.529238
N	-0.446754	-1.199927	0.68438
H	0.155497	-1.971168	0.428252
H	-1.40716	-1.447988	0.474963
Br	3.509733	0.0	0.0
