15

C	-0.464348	0.019761	-1.426302
C	0.0	0.0	0.0
F	0.004022	1.044228	-2.124009
H	1.094313	0.0	0.0
H	-0.352379	-0.918531	0.465922
N	-0.119835	-1.264512	-2.17568
O	-0.455037	-2.301514	-1.612983
O	0.424395	-1.154321	-3.262964
N	-1.994252	0.077259	-1.519092
O	-2.46168	0.640064	-2.502134
O	-2.623304	-0.469715	-0.621803
N	-0.51317	1.214293	0.631266
H	0.272085	1.749743	0.978252
H	-1.11111	0.979162	1.41049
Br	3.517506	0.0	0.0
