14

C	-0.510417	-0.027133	-1.414397
C	0.0	0.0	0.0
Br	-2.432756	0.270006	-1.588418
H	1.094922	0.0	0.0
H	-0.323572	-1.018841	-1.822494
N	0.255826	0.89172	-2.351678
O	-0.228325	1.945886	-2.73359
O	1.358512	0.437259	-2.647472
C	-0.428302	-1.18653	0.703473
N	-0.710584	-2.210628	1.209267
N	-0.325916	1.203778	0.729435
O	-0.250532	2.259847	0.085936
O	-0.487244	1.121363	1.955321
H	2.334708	0.0	0.0
