14

C	-0.503824	0.077318	-1.411648
C	0.0	0.0	0.0
Br	0.880431	0.545588	-2.758714
H	1.089741	0.0	0.0
H	-1.255649	0.848644	-1.528942
N	-1.113722	-1.211071	-1.861536
O	-0.402337	-2.208104	-1.888579
O	-2.306366	-1.163662	-2.16906
C	-0.405508	-1.151243	0.762994
N	-0.698359	-2.114268	1.373199
N	-0.290983	1.226136	0.706743
O	-0.374805	2.266191	0.027342
O	-0.226898	1.195538	1.945717
H	2.246351	0.0	0.0
