14

C	-0.497806	0.16706	-1.408149
C	0.0	0.0	0.0
Br	0.797872	1.019138	-2.633809
H	1.107087	0.0	0.0
H	-1.382649	0.792294	-1.464781
N	-0.85614	-1.16058	-2.004148
O	-2.042081	-1.312805	-2.30075
O	0.034558	-1.990508	-2.140092
C	-0.387834	-1.224396	0.6498
N	-0.648237	-2.253805	1.158852
N	-0.339794	1.145711	0.800348
O	-0.52792	2.225153	0.206293
O	-0.23799	1.026427	2.032639
H	2.246819	0.0	0.0
