14

C	-0.463804	0.223201	-1.409823
C	0.0	0.0	0.0
Br	0.858048	1.165708	-2.557063
H	1.107545	0.0	0.0
H	-1.3556	0.836597	-1.475385
N	-0.749165	-1.069008	-2.104222
O	0.11397	-1.939197	-2.064067
O	-1.83248	-1.148616	-2.68512
C	-0.408995	-1.236345	0.611519
N	-0.701586	-2.263312	1.107955
N	-0.342678	1.124877	0.830085
O	-0.539401	2.218815	0.266186
O	-0.239265	0.973494	2.058594
H	2.24073	0.0	0.0
