14

C	-0.576968	-0.011219	-1.39543
C	0.0	0.0	0.0
Br	0.28485	1.306095	-2.546739
H	1.106857	0.0	0.0
H	-1.642561	0.208404	-1.430216
N	-0.417729	-1.363601	-2.031187
O	0.55075	-2.036319	-1.702591
O	-1.27082	-1.664868	-2.865419
C	-0.53251	-1.107902	0.763936
N	-0.902663	-2.032953	1.390136
N	-0.483606	1.280881	0.630497
O	0.332803	2.181562	0.785498
O	-1.680789	1.339078	0.933455
H	2.506606	0.0	0.0
