16

C	-0.478001	-0.127002	-1.479649
C	0.033735	-0.147764	-0.049917
Cl	-0.36474	-1.697992	-2.330288
H	1.111843	-0.357468	-0.138742
H	0.091532	0.598936	-2.053412
N	-1.904398	0.336468	-1.577394
O	-2.116573	1.340171	-2.252734
O	-2.761899	-0.31304	-0.984295
C	-0.600626	-1.172031	0.877497
H	-0.016069	-1.182351	1.80133
H	-1.632205	-0.90563	1.114827
H	-0.596789	-2.179291	0.453999
N	-0.097639	1.227623	0.400447
H	0.909931	1.531902	0.522782
H	-0.532392	1.240006	1.316877
H	2.503111	1.308449	0.517139
