16

C	-0.537298	-0.205385	-1.544951
C	0.052493	-0.179831	-0.147233
Cl	-0.287282	-1.73964	-2.43617
H	1.136907	-0.233007	-0.280854
H	-0.102364	0.594882	-2.136068
N	-2.014702	0.07844	-1.557393
O	-2.74856	-0.655163	-0.899937
O	-2.3895	1.0338	-2.233535
C	-0.351668	-1.307189	0.792519
H	0.281061	-1.209499	1.677593
H	-0.198784	-2.297853	0.355379
H	-1.398897	-1.221352	1.089158
N	-0.213332	1.15671	0.352189
H	-0.892079	1.102697	1.105372
H	0.719653	1.434165	0.776909
H	2.249825	1.23417	1.174351
