16

C	-0.706131	0.045538	-1.503568
C	0.097564	-0.068726	-0.214041
Cl	-2.457793	0.095838	-1.238883
H	1.145406	-0.132749	-0.526046
H	-0.504429	-0.781967	-2.184349
N	-0.256829	1.279267	-2.251182
O	0.850525	1.152844	-2.769978
O	-0.95451	2.27995	-2.281685
C	-0.232316	-1.356539	0.536085
H	0.488724	-1.411055	1.355253
H	-1.245296	-1.319932	0.947599
H	-0.143051	-2.249368	-0.096325
N	-0.007805	1.141506	0.565857
H	0.827453	1.080182	1.203434
H	-0.833339	1.081608	1.155721
H	2.184195	0.406981	1.944485
