16

C	0.0	0.0	0.0
C	-0.527014	0.024398	-1.445547
Cl	1.798159	0.0	0.0
H	-1.620121	-0.103435	-1.283228
N	-0.532664	1.135732	0.68401
H	-1.566412	0.961053	0.54126
H	-0.332857	1.014431	1.673057
C	-0.34895	-1.267005	0.688745
N	-0.519135	-2.190545	1.396271
N	-0.008481	-1.213002	-2.183887
O	0.783874	-1.040823	-3.113236
O	-0.438558	-2.308046	-1.829945
N	-0.198908	1.226375	-2.111444
H	0.794189	1.279104	-2.297183
H	-0.699552	1.280379	-2.987062
F	-2.763083	0.0	0.0
