16

C	0.0	0.0	0.0
C	-0.528077	0.057133	-1.444106
Cl	1.797639	0.0	0.0
H	-1.621463	-0.072898	-1.282705
N	-0.532531	1.120486	0.709287
H	-0.332606	0.97697	1.695303
H	-1.565933	0.949104	0.563207
C	-0.348599	-1.281079	0.662625
N	-0.516735	-2.219315	1.351064
N	-0.012988	-1.163335	-2.211393
O	-0.432453	-2.267168	-1.871889
O	0.765432	-0.969484	-3.14875
N	-0.200086	1.273746	-2.083219
H	0.790842	1.324453	-2.279393
H	-0.710208	1.351776	-2.951655
F	-2.763638	0.0	0.0
