16

C	0.0	0.0	0.0
C	-0.364732	-0.529132	-1.440082
Cl	1.824677	0.0	0.0
H	0.535028	-0.952794	-1.887349
N	-0.597005	1.258972	0.266183
H	-1.627015	1.010861	0.198678
H	-0.391412	1.519793	1.224877
C	-0.333368	-1.043527	0.995455
N	-0.514155	-1.787585	1.887444
N	-0.557503	0.735716	-2.330249
O	0.459516	1.37946	-2.581247
O	-1.675456	0.965069	-2.780016
N	-1.424211	-1.44134	-1.452956
H	-1.643403	-1.711868	-2.402087
H	-2.236318	-0.993744	-0.954858
F	-2.8649	0.0	0.0
