16

C	0.0	0.0	0.0
C	-0.28754	-0.188258	-1.520391
Cl	1.794067	0.0	0.0
H	0.28872	-1.095246	-1.746962
N	-0.457837	1.352592	0.514913
O	-0.812232	2.18123	-0.312394
O	-0.389889	1.50729	1.727642
C	-0.538593	-1.107632	0.86189
H	-0.17504	-0.983495	1.880753
H	-0.198198	-2.067414	0.465169
H	-1.633608	-1.052425	0.83933
C	0.326724	0.864246	-2.346528
N	0.844435	1.628752	-3.071801
C	-1.615734	-0.485109	-2.089952
N	-2.330169	-0.885379	-2.938693
Br	-3.758824	0.0	0.0
