16

C	0.0	0.0	0.0
C	-0.314485	-0.113775	-1.528012
Cl	1.771475	0.0	0.0
H	0.385173	0.581089	-2.003183
N	-0.407407	1.396031	0.465283
O	-0.462949	2.265499	-0.397011
O	-0.556828	1.551576	1.668205
C	-0.547841	-1.068035	0.897178
H	-1.640203	-1.018566	0.852194
H	-0.204704	-0.894042	1.915839
H	-0.191936	-2.040516	0.553497
C	-1.60482	0.242005	-2.148452
N	-2.283152	0.525816	-3.070479
C	0.0657	-1.460693	-1.97308
N	0.388666	-2.52479	-2.350607
Br	-3.692945	0.0	0.0
