16

C	0.0	0.0	0.0
C	-0.317539	-0.132426	-1.519857
Cl	1.771996	0.0	0.0
H	0.339332	-0.961435	-1.809696
N	-0.457321	1.318131	0.604656
O	-0.398229	1.38445	1.824689
O	-0.803888	2.205064	-0.1616
C	-0.528551	-1.156773	0.805347
H	-0.157857	-1.09022	1.82715
H	-0.185043	-2.09143	0.355343
H	-1.622292	-1.107949	0.792773
C	0.164141	1.006626	-2.31638
N	0.590479	1.827029	-3.039659
C	-1.626898	-0.569551	-2.047995
N	-2.290749	-1.093181	-2.871186
Br	-3.713908	0.0	0.0
