17

C	-0.464672	-0.015653	-1.451277
C	0.0	0.0	0.0
F	-0.083517	1.114563	-2.082098
H	1.092502	0.0	0.0
N	0.238125	-1.184725	-2.181052
O	-0.136407	-2.303565	-1.853795
O	1.065957	-0.889978	-3.021753
C	-1.904324	-0.237435	-1.653164
N	-3.041685	-0.449055	-1.858226
C	-0.519725	-1.127436	0.87369
H	-0.138686	-2.081146	0.51547
H	-1.613182	-1.155873	0.891446
H	-0.137264	-0.964684	1.882173
N	-0.465703	1.288159	0.609554
O	0.161151	1.686166	1.584285
O	-1.476572	1.822144	0.143855
Cl	3.226095	0.0	0.0
