17

C	-0.399556	-0.022388	-1.469562
C	0.0	0.0	0.0
F	0.093419	-1.150003	-2.032682
H	1.091858	0.0	0.0
N	-1.93379	-0.131311	-1.54837
O	-2.537249	0.879154	-1.206116
O	-2.41344	-1.201054	-1.890618
C	-0.020648	1.128382	-2.29632
N	0.251188	1.957467	-3.082206
C	-0.546147	-1.191392	0.751866
H	-1.631867	-1.15643	0.856248
H	-0.252597	-2.10273	0.230502
H	-0.102564	-1.208958	1.746245
N	-0.410387	1.291997	0.628772
O	-1.155186	1.255086	1.606826
O	0.057847	2.312629	0.132164
Cl	3.193952	0.0	0.0
