17

C	-0.536965	-0.016433	-1.416167
C	0.0	0.0	0.0
F	-1.88904	-0.17813	-1.44787
H	1.090829	0.0	0.0
N	-0.215977	1.268918	-2.207914
O	-1.089856	1.665905	-2.962322
O	0.902343	1.720595	-2.041451
C	0.081637	-1.107041	-2.179947
N	0.557855	-1.981159	-2.803113
C	-0.469341	-1.222284	0.775134
H	-0.019032	-1.190484	1.765289
H	-1.557639	-1.251372	0.862674
H	-0.118288	-2.126674	0.27555
N	-0.463012	1.23079	0.711906
O	-0.18534	1.305757	1.903394
O	-1.090569	2.081722	0.078258
Cl	3.213073	0.0	0.0
