17

C	-0.609978	-0.074641	-1.389087
C	0.0	0.0	0.0
F	-1.971564	0.014563	-1.306099
H	1.092029	0.0	0.0
N	-0.147357	1.035101	-2.35487
O	1.042675	1.005625	-2.619038
O	-1.005474	1.78594	-2.788607
C	-0.26574	-1.336926	-2.055448
N	-0.037399	-2.365896	-2.574481
C	-0.454132	-1.173853	0.850004
H	-0.083421	-2.098028	0.404
H	-1.539456	-1.21709	0.952245
H	-0.004879	-1.079956	1.83622
N	-0.419191	1.299786	0.619434
O	-0.309555	2.304489	-0.07846
O	-0.802392	1.292786	1.785978
Cl	3.199123	0.0	0.0
