14
Coordinates from ORCA-job run
  C   -0.53180230593767      0.10021474444131      0.04364883541030
  C   0.95882685741039     -0.19108254889299      0.17934124968531
  Cl  -1.08040272283530      0.94200158784890      1.52982414648517
  H   1.12906249394457     -0.87016728264085      1.01272683720902
  H   1.34449153385174     -0.61077376781269     -0.75298697009861
  C   -1.29016156888094     -1.22073123230472     -0.07963455727030
  H   -1.10175423044500     -1.83865852539373      0.79985045801092
  H   -2.36040645508319     -1.02773145254594     -0.15245022762535
  H   -0.96637888355182     -1.75297355133668     -0.97750106864751
  C   -0.84177157506987      0.94077571465135     -1.11371388818910
  N   -1.16312391383732      1.53020843362954     -2.07779252918410
  N   1.76487126622835      1.03367527023513      0.46311896803263
  O   1.63670928363172      1.97100222425984     -0.31753978621336
  O   2.50284022057434      0.99524038586154      1.44310853239498
