14
Coordinates from ORCA-job run
  C   -0.52547456837788      0.11300453074909     -0.07722531482190
  C   0.90074661106991     -0.15735748577093      0.38962347509549
  Cl  -1.28439648463261      1.26952641432781      1.06544917668181
  H   0.88631555904569     -0.63662444958087      1.36678332073363
  H   1.42278107972271     -0.77824522538023     -0.34256754885198
  C   -1.31716852790352     -1.19351697975237     -0.04978557012261
  H   -0.86763379487990     -1.91521965061692     -0.73645468215235
  H   -2.34633149256835     -1.00956173696399     -0.35788992519313
  H   -1.31927957714004     -1.60360140979110      0.96150184668138
  C   -0.58187555402185      0.68034791682694     -1.42526912344181
  N   -0.69666474135585      1.04585937617899     -2.53585074208132
  N   1.70585704780140      1.09073687529076      0.54441716539356
  O   2.25406532866347      1.26454039478945      1.62874569876211
  O   1.76805911457681      1.83111142969332     -0.43147777668289
