14
Coordinates from ORCA-job run
  C   -0.70395465279738      0.11378795961904      0.24866470399536
  C   0.66202176222842      0.29331309055705      0.92064947638652
  Cl  -1.88717586024163      0.04860641072384      1.60186122513970
  H   0.69993044037697      1.22991369131402      1.47424820498027
  H   0.86477079870251     -0.56109776096180      1.56458232681025
  C   -0.80704729340779     -1.17084980598968     -0.56298524481226
  H   -0.54960149198730     -2.02494774086448      0.06508579380105
  H   -0.12510659166481     -1.13878608640785     -1.41400309334654
  H   -1.82645197075172     -1.29088945609152     -0.93044317057958
  C   -1.03204859472940      1.27437142217851     -0.57996484219228
  N   -1.29964946557518      2.18505648841081     -1.27242185461502
  N   1.74020639853040      0.33828873488049     -0.10941249102849
  O   2.01375281437698      1.44058361458137     -0.57917984630677
  O   2.25035370693993     -0.73535056194978     -0.42668118823220
