13
Coordinates from ORCA-job run
  C   -0.26195567865023     -0.18621091363412     -0.22847262056334
  C   0.78047534721183     -0.65124323082668      0.49439261966359
  H   0.92083578703517     -1.72499017764062      0.55199216125743
  C   -0.63872117627292      1.23677638184841     -0.47384885835295
  H   -1.58885507744128      1.48783766006809      0.00280516558959
  H   0.13201622980177      1.91195932006386     -0.09615115535249
  H   -0.75372529228327      1.42556867044303     -1.54226499823411
  N   -1.13790822997872     -1.18414429460779     -0.82484083693361
  O   -0.86911402573674     -2.38071060320275     -0.71136078080547
  O   -2.12852815118234     -0.75054339916008     -1.42094880619146
  N   1.74373287525306      0.10549417134839      1.10824591085420
  H   2.27791609626112     -0.35598399057907      1.82383108237422
  H   1.52483129598253      1.06519040587930      1.31762111669441
