13
Coordinates from ORCA-job run
  C   -0.26720410416943     -0.18551023365642     -0.22401850087600
  C   0.74585522839904     -0.65941054921890      0.53414359087384
  H   0.84215300226398     -1.73432706136571      0.63967736082239
  C   -0.58159319702194      1.23940144594023     -0.53636711133914
  H   -1.52583503248533      1.55077553425334     -0.08409774199753
  H   0.21186587941914      1.89874155746243     -0.17817456813269
  H   -0.67573279950060      1.38507631253125     -1.61350372719585
  N   -1.17547308958529     -1.17261926405253     -0.78854974554868
  O   -0.96069396871491     -2.37273766486561     -0.61358179203108
  O   -2.13584953682870     -0.72668194667803     -1.42371700444273
  N   1.73011239608094      0.08483474583619      1.12862485129139
  H   2.24164744241622     -0.36669777397621      1.86655626498916
  H   1.55074777972687      1.06115489778998      1.29300812358693
