13
Coordinates from ORCA-job run
  C   -0.21877259907876      0.14895455983674     -0.16425447883560
  C   0.70331627301450      0.01422828965608      0.83046894104011
  H   0.94471613127730      0.91965681688945      1.38128080909667
  C   -0.87654187540239      1.44464999751211     -0.51684449357000
  H   -0.52040975208083      2.23483940234458      0.14688797929813
  H   -0.66192638048146      1.72993952196380     -1.54886737661726
  H   -1.96228307074168      1.37365204828327     -0.42263671287615
  N   -0.59733464562168     -0.97675071023496     -0.97130900607756
  O   -0.09114261035978     -2.08777926655052     -0.73664525470856
  O   -1.41768747038005     -0.78133036109454     -1.87256870417923
  N   1.32338237685657     -1.10062182670982      1.28426041217549
  H   1.24497270458316     -1.93294544217793      0.72201843477225
  H   2.13271091841511     -0.98649302971827      1.86720945048170
