13
Coordinates from ORCA-job run
  C   -0.28774128587812     -0.19382942949640     -0.18757671184738
  C   0.69490625167931     -0.62891194843985      0.63125314611164
  H   0.69696663605053     -1.67675906096364      0.91059120724670
  C   -0.47827002283713      1.18328719103590     -0.72999494617045
  H   -0.57878238455385      1.15809147432766     -1.81610498659309
  H   0.37805489826617      1.81631078808868     -0.48820202767183
  H   -1.38246216220444      1.65008621180328     -0.33298667682054
  N   -1.29045467715895     -1.17313515894308     -0.58083431487271
  O   -1.18187005301030     -2.34266030962688     -0.21018448805527
  O   -2.21752850974386     -0.75147604640246     -1.27891939010702
  N   1.75525849492165      0.10873860256047      1.08951580091495
  H   1.66097172850624      1.11069791564529      1.09791297279193
  H   2.23095108596275     -0.26044022958895      1.89453041507305
