13
Coordinates from ORCA-job run
  C   -0.32399360626586     -0.16894901699088     -0.14955182047748
  C   0.58759072082521     -0.62016989152481      0.73975307498146
  H   0.50448591609160     -1.64800671248428      1.07544189869389
  C   -0.43001616609225      1.20296063157239     -0.72737340687664
  H   0.25158207863363      1.88967944955666     -0.22106484769132
  H   -0.20376891905033      1.20803199636918     -1.79600884895055
  H   -1.44274116078009      1.59142223610833     -0.61042190002216
  N   -1.30928819036793     -1.13181165495313     -0.61905300827158
  O   -2.08668659031018     -0.73228403985875     -1.49104209734160
  O   -1.32547934052522     -2.26982833283552     -0.14827465824575
  N   1.57617549171281      0.12016988363090      1.33394662129340
  H   2.33112885060611     -0.40322750462444      1.74218432194386
  H   1.87101091552250      0.96401295603436      0.87146467096449
