13
Coordinates from ORCA-job run
  C   -0.23510491669124      0.13045583389263     -0.15774792228153
  C   0.93638628246396      0.12932415447036      0.53926715420419
  H   1.31573756766219      1.10390003768057      0.83544920928469
  C   -0.99190505572412      1.37182764003781     -0.50722403576327
  H   -1.99196339658672      1.36294037008928     -0.06867162551210
  H   -0.45569818837704      2.24939276943610     -0.14104804637781
  H   -1.11625373978193      1.46586444133825     -1.58818930216288
  N   -0.83885819975122     -1.10198221220692     -0.57977919584725
  O   -1.91392692279501     -1.03276505679973     -1.18216068366121
  O   -0.26591041852479     -2.17554587383989     -0.32488255430551
  N   1.74267332057691     -0.90844534339390      0.86557005498497
  H   1.37142784026693     -1.83681352730609      0.74183603363400
  H   2.44339582726209     -0.75815323339848      1.56858091380371
