13
Coordinates from ORCA-job run
  C   -0.19228126096462      0.13888760078640     -0.20238004714553
  C   0.83630452175647      0.08713265953747      0.69050869698408
  H   1.24566930952145      1.04503432071012      1.00089033058370
  C   -0.75981396835447      1.41250640017904     -0.74239700304045
  H   -0.21892307893313      2.26543702747028     -0.32801406536102
  H   -1.81793810287116      1.51242727931148     -0.49162788272216
  H   -0.68320855288564      1.44732073934950     -1.83128638559540
  N   -0.82299432398028     -1.06518626523655     -0.66552480239122
  O   -0.40399261110588     -2.16303874915961     -0.25952290611325
  O   -1.76527556679864     -0.94763176364026     -1.45397903399148
  N   1.47576841915949     -0.98933740204021      1.20571869422670
  H   1.04875692861811     -1.89088056895226      1.06498537045868
  H   2.05692828683828     -0.85167127831541      2.01262903410736
