13
Coordinates from ORCA-job run
  C   -0.34282910662087     -0.15775291950507     -0.11551816076664
  C   0.57312009579430     -0.57631092080769      0.78527193505206
  H   0.42553641287000     -1.54658266267027      1.24651477934083
  C   -0.36836729482280      1.13919096974878     -0.85330689616623
  H   0.40104898847902      1.81559817548828     -0.47515197485719
  H   -1.33444272751273      1.63139800213880     -0.73120447786686
  H   -0.21276937644091      0.99481349104438     -1.92474562951473
  N   -1.42394693597279     -1.08205737988504     -0.42335647054762
  O   -2.21757558752775     -0.71867421164037     -1.29673712393234
  O   -1.50069976303841     -2.15557176112666      0.17562267468322
  N   1.64558384040784      0.14144687141919      1.24440843061029
  H   2.37390962108045     -0.38799954154018      1.69094361046308
  H   1.98143183330464      0.90250188733586      0.67825930350213
