13
Coordinates from ORCA-job run
  C   -0.20243249730739      0.12171806958041     -0.20362501365990
  C   0.93473596912502      0.09949765741163      0.54777870719492
  H   1.49743279590434      1.02863122791548      0.58768356255533
  C   -0.68844576362714      1.33048814707382     -0.93754882163544
  H   -1.67598425740962      1.63703362074451     -0.58626076599576
  H   -0.77575085490183      1.13249031610112     -2.00802565090950
  H   0.00828421692160      2.15828553770933     -0.79232303615081
  N   -1.03403372010404     -1.04372462946174     -0.31054820444061
  O   -2.06139910376506     -0.95033713299974     -0.98841770637701
  O   -0.69331469474827     -2.08641673730771      0.27460799986595
  N   1.51096115987980     -0.93351660366284      1.20689930616664
  H   0.96215588915546     -1.77058730894750      1.32179281075225
  H   2.21679086087713     -0.72256216415676      1.88898681263394
