13
Coordinates from ORCA-job run
  C   -0.35047724504239     -0.16585171808429     -0.06915717781446
  C   0.68510457301685     -0.55557566311338      0.70625409370162
  H   0.62041404542870     -1.52391512534623      1.19010093429733
  C   -0.50327068481173      1.12210051226515     -0.80731890533910
  H   -0.50450631871621      0.96601680665383     -1.88828385866777
  H   0.30440460623658      1.81200708469673     -0.55393702193063
  H   -1.44755458283708      1.60407306332227     -0.54935864667480
  N   -1.44395110010275     -1.11458211359446     -0.22088924832791
  O   -2.35843211541433     -0.77314456949712     -0.97710700123089
  O   -1.41415660417811     -2.18571596804489      0.38637950847379
  N   1.79262385661823      0.18889179118803      1.01633133087142
  H   2.03479105231855      0.95062776204814      0.40494284349028
  H   2.58501051748368     -0.32393186249376      1.36204314915111
