13
Coordinates from ORCA-job run
  C   -0.23255986096849      0.14359625319352     -0.14990319543437
  C   0.84411372360814      0.07166708556129      0.68287391364875
  H   1.04749027588779      0.95936931751609      1.27622786374274
  C   -1.11210771947038      1.34708393110740     -0.26765621893818
  H   -0.74727731535335      2.13977605496301      0.38832438905022
  H   -2.14315410062717      1.11257343939176      0.00528479047127
  H   -1.12874170974371      1.72357261215132     -1.29269043022153
  N   -0.60728130922230     -0.97855988485879     -0.96379724048136
  O   0.07772558094384     -2.01508484911809     -0.91857376561603
  O   -1.60930467333442     -0.85751811342099     -1.67420365667041
  N   1.74664361675247     -0.92550521633676      0.83900010322312
  H   2.33848386597056     -0.90415056771349      1.64963335833511
  H   1.52596962555701     -1.81682006243628      0.42448008889069
