13
Coordinates from ORCA-job run
  C   -0.23833999439695      0.13123673905869     -0.15208215190160
  C   0.88916144015695      0.12819702032732      0.61398024592851
  H   1.15506035524176      1.07659207316063      1.07364104574509
  C   -1.09113338579680      1.34024914136827     -0.36865693001359
  H   -2.10835122557198      1.17762882633098     -0.00617088929957
  H   -1.16442202099743      1.58560502855480     -1.43036305612279
  H   -0.66336585958410      2.19568421095219      0.15759143161656
  N   -0.69573987768940     -1.07123125053507     -0.78934673626380
  O   -1.73741694995483     -1.00597100024379     -1.44816809234085
  O   -0.03672222498897     -2.11676118239871     -0.65402480060235
  N   1.77297071197739     -0.87220919135504      0.84065793497106
  H   1.50028608492675     -1.80031512281880      0.55905821093814
  H   2.41801294667761     -0.76870529240147      1.60288378734520
