13
Coordinates from ORCA-job run
  C   -0.28265774381112     -0.21009507933633     -0.17880442267397
  C   0.59654599283973     -0.54261661758022      0.79175271525072
  H   0.50362099393266     -1.52177956767387      1.24839413612600
  C   -0.33552386299670      1.05799187553435     -0.96379844739322
  H   -1.23294221634142      1.63629554896654     -0.73296705374639
  H   -0.35414037931915      0.84682760362463     -2.03402699010050
  H   0.54174865827830      1.67578147627658     -0.76051009916986
  N   -1.31534064296247     -1.18868219683250     -0.48623910989007
  O   -2.15500833698506     -0.84763770019081     -1.32477930393211
  O   -1.31398694348416     -2.27962949894928      0.08544052937352
  N   1.66124601901957      0.20966493212427      1.21280703308572
  H   1.63866430494115      1.19971831906245      1.03433287227879
  H   2.04877415688868     -0.03483909502581      2.10739814079137
