13
Coordinates from ORCA-job run
  C   -0.28683519350022     -0.19977059295666     -0.18257038119292
  C   0.73530451891071     -0.61770678651982      0.59589824618549
  H   0.77760193105978     -1.66925561596951      0.85757542623852
  C   -0.53894841297407      1.17989178185078     -0.69242494643180
  H   -1.44218710393229      1.61048920882256     -0.25441123638909
  H   -0.67810558274580      1.17060156204587     -1.77451159628721
  H   0.30521190622335      1.83588485096793     -0.46974859252052
  N   -1.27341821588565     -1.20217774251459     -0.55692516872706
  O   -1.11467861771540     -2.37489075844428     -0.21551964336313
  O   -2.23946677647071     -0.79631121829556     -1.21015892016201
  N   1.78720247023663      0.14427990270688      1.03213216951994
  H   1.66486390953592      1.14280231484595      1.05923140169781
  H   2.30445516725775     -0.22383690653956      1.81143324143199
