13
Coordinates from ORCA-job run
  C   -0.31613820294291     -0.18514963067285     -0.14665618916096
  C   0.61158784856372     -0.58037984988840      0.75258558101379
  H   0.46995384135998     -1.53748117332024      1.24230647176472
  C   -0.32000100407406      1.06487669786239     -0.96176657131717
  H   0.62519861842127      1.60098020486049     -0.85349617069591
  H   -0.45309286109232      0.83320547700783     -2.01955342705391
  H   -1.13578330359777      1.73081174019164     -0.67172425079423
  N   -1.45865586363335     -1.06701860580474     -0.33530916728128
  O   -2.33388060267191     -0.66494146563866     -1.10793315253233
  O   -1.50881697907724     -2.14088686259913      0.26580020847940
  N   1.77587969616206      0.07465166770205      1.05731519537945
  H   1.82808940805957      1.05931063725454      0.85624721107768
  H   2.21565940452297     -0.18797883695493      1.92218426112075
