13
Coordinates from ORCA-job run
  C   -0.35389000191637     -0.16521454346815     -0.07079694223933
  C   0.70593444077040     -0.60221190467877      0.64427710343878
  H   0.67056337764714     -1.61092013212662      1.04095993009479
  C   -0.53730214481528      1.17959008239539     -0.69172603800923
  H   -1.51018798314478      1.59557729016736     -0.42659391293880
  H   -0.49454615468567      1.12855572660785     -1.78228675618614
  H   0.22969228590080      1.87410580686862     -0.34242646321530
  N   -1.42685200655375     -1.12104884952747     -0.29806993977806
  O   -2.34571467237781     -0.74367860062730     -1.03135064015896
  O   -1.37752239323715     -2.23270331779648      0.23024365151025
  N   1.80507106524482      0.13600990242290      0.99690148822471
  H   2.02127547416506      0.94967808699489      0.44556030059042
  H   2.61347871300260     -0.38773954723224      1.28430821866686
