13
Coordinates from ORCA-job run
  C   -0.21985899194848      0.14928887877847     -0.16270316346597
  C   0.74023486440173      0.02706301497992      0.79716205886726
  H   1.03840846897322      0.94732199455862      1.29278350149500
  C   -0.84830954386116      1.45057610628939     -0.54699162346065
  H   -0.43275148215199      2.25743686830366      0.05967435490162
  H   -0.67396473959779      1.67827354832736     -1.60069318723741
  H   -1.93003096129100      1.42501366342957     -0.39872578072216
  N   -0.67554671698374     -0.99830754893747     -0.89524663222693
  O   -1.53025606858550     -0.81550771481051     -1.76678049318319
  O   -0.19761060160576     -2.11500746073464     -0.62993173922006
  N   1.34035804075380     -1.08790879582642      1.27673628872739
  H   1.20825451287285     -1.94180928237182      0.75860375961663
  H   2.17907321902383     -0.97643327198613      1.81711265590846
