13
Coordinates from ORCA-job run
  C   -0.35235602563551     -0.15204260212681     -0.09467329290241
  C   0.56950277606247     -0.53489299227460      0.81597100029039
  H   0.39511593908701     -1.45812760745683      1.35746418353132
  C   -0.34487144768899      1.08221145422011     -0.93339523885089
  H   0.45349075731876      1.75794617084640     -0.61941233679351
  H   -0.21068159414005      0.84869328248369     -1.99197759733036
  H   -1.29114568116358      1.61695006640692     -0.83864766271383
  N   -1.47575588375173     -1.05307914001338     -0.30343386455472
  O   -1.58552346497697     -2.06543098612919      0.38955576112840
  O   -2.26903143504881     -0.73477655753943     -1.19456302137087
  N   1.68146691854931      0.17160206020992      1.19032521365116
  H   2.03383885941187      0.86991461158257      0.55744907017471
  H   2.39795028197623     -0.34996776020937      1.66433778574062
