16

C	0.0	0.0	0.0
C	-0.532309	-0.081378	-1.421765
Cl	1.827541	0.0	0.0
H	-1.625588	-0.195337	-1.209447
H	-0.245722	-0.940145	0.4947
N	-0.54844	1.166591	0.621807
H	-1.57604	0.948978	0.51631
H	-0.328309	1.120091	1.611879
N	-0.072538	-1.34703	-2.060096
O	0.301818	-1.316001	-3.235247
O	-0.130198	-2.379328	-1.391385
C	-0.225272	1.122198	-2.277714
H	0.844432	1.214269	-2.474352
H	-0.563546	2.001841	-1.731355
H	-0.750637	1.061591	-3.230918
F	-2.819196	0.0	0.0
