16

C	0.0	0.0	0.0
C	-0.529354	-0.223737	-1.411204
Cl	1.807389	0.0	0.0
H	-1.62541	-0.302332	-1.203539
H	-0.257745	-0.877752	0.593932
N	-0.562153	1.232112	0.470484
H	-0.316639	1.340008	1.449619
H	-1.589599	0.981905	0.415417
N	-0.087952	-1.550747	-1.92429
O	-0.110707	-2.504711	-1.144434
O	0.231267	-1.649956	-3.111829
C	-0.201035	0.886696	-2.380873
H	-0.522449	1.820127	-1.91971
H	-0.728759	0.744471	-3.323484
H	0.869776	0.940264	-2.585626
F	-2.826583	0.0	0.0
