16

C	0.0	0.0	0.0
C	-0.417701	-0.069115	-1.516506
Cl	1.799652	0.0	0.0
H	0.457765	0.146775	-2.137767
H	-0.293229	-0.956048	0.428082
N	-0.509435	1.012418	0.855044
H	-0.363259	1.909791	0.410569
H	-1.535186	0.787086	0.778377
N	-1.356318	1.021015	-1.953781
O	-2.24772	0.746544	-2.747123
O	-1.064649	2.169657	-1.616634
C	-1.008369	-1.426685	-1.828714
H	-1.930953	-1.469998	-1.245269
H	-1.215348	-1.546789	-2.892934
H	-0.302586	-2.20055	-1.513234
F	-2.684658	0.0	0.0
