14
Coordinates from ORCA-job run
  C   0.07097658291836     -0.48586271389182      0.08698223992952
  C   -0.73224166703155      0.79093771073970     -0.16330572478496
  H   -0.13221934114738     -0.81795041602259      1.11848942627949
  H   -0.49858377754096      1.13263726428069     -1.17765076883735
  H   -1.80390848202981      0.56356353445788     -0.14346560042270
  N   1.48591524489641     -0.15990365621950      0.03136870397547
  H   2.04235903409596     -0.90226111755945      0.43754595573840
  H   1.74561155288321     -0.08325923469396     -0.94719001801523
  N   -0.29027638713723     -1.48006470651377     -0.92415289758847
  H   -1.29519370025941     -1.61839900029550     -0.94024892461135
  H   0.13434542723705     -2.37291586436925     -0.69941739061011
  N   -0.46401199458192      1.87106606204133      0.77443495594367
  H   0.54405260461907      1.95098484272717      0.85342678931432
  H   -0.80782509692180      1.61242729531904      1.69218325368931
