14
Coordinates from ORCA-job run
  C   0.54623078304953     -0.28919465768725     -0.08406113643664
  C   -0.38415829390073      0.91560397397411     -0.07978597186436
  H   1.25330716135511     -0.17607228807795      0.75563238588035
  H   -1.06448843670350      0.80645705559530     -0.93041881382045
  H   0.22229405636127      1.81450258735675     -0.24233575669692
  N   1.34467034952112     -0.25776491832303     -1.29833243533117
  H   2.10373552636766     -0.92530339918149     -1.22651559122155
  H   0.74732989125297     -0.57764555679773     -2.05455682889248
  N   -0.27929910768047     -1.48643729186464      0.02140536713252
  H   -0.97758960080696     -1.31809917398682      0.73906652115970
  H   0.28298040633385     -2.28073701400843      0.30388917493916
  N   -1.18556491273458      0.93174729204495      1.14734185935228
  H   -1.98075949814340      1.54758801512294      1.03799564222302
  H   -0.62868832427186      1.29735537583328      1.91067558357654
