14
Coordinates from ORCA-job run
  C   0.09579486403229     -0.60879901261105      0.09635628572327
  C   -0.74143022195478      0.66208734008667      0.06339975298696
  H   0.26055941799641     -0.88041573331472      1.15319697123837
  H   -1.70896525775147      0.44446383418663      0.53109635663624
  H   -0.92023647151463      0.90876333972320     -0.98803597585585
  N   1.33460400469263     -0.34167461852357     -0.62477440525664
  H   1.67782592285245      0.56537143265841     -0.32402287127564
  H   2.03423625935517     -1.03858100134697     -0.39738792663180
  N   -0.67708578192693     -1.69194687029252     -0.48876489155461
  H   -0.64766301892862     -1.56700038257632     -1.49600763294936
  H   -0.22667251927724     -2.57848407365090     -0.29350905716183
  N   -0.00232243392322      1.77093788663026      0.67375291665125
  H   -0.05948571098730      1.70119452945375      1.68287369535138
  H   -0.41915905266476      2.65508332957714      0.41282678209826
