14
Coordinates from ORCA-job run
  C   0.09680008291109     -0.56222847461649     -0.50043906785451
  C   -0.57199693922933      0.80694674972510     -0.35742962659596
  H   -0.13366011530790     -0.96446538245244     -1.49948201013646
  H   -1.66402773351742      0.68476529241387     -0.45869575576128
  H   -0.23759988883211      1.45115571036961     -1.17728617357428
  N   -0.39901411126699     -1.40948257165256      0.58437417103718
  H   -1.34868364661699     -1.70748039134847      0.39251941014272
  H   0.19205886378413     -2.23051644092266      0.62813604513808
  N   1.54335882098812     -0.52375480920588     -0.37065991116496
  H   1.75683974561024      0.13171197757886      0.37510853923635
  H   1.94800134621722     -0.15573173161129     -1.22304014266424
  N   -0.15021744166792      1.39411422940018      0.90991972907895
  H   -0.45904093611278      0.77998486550866      1.65371875250707
  H   -0.57381804695936      2.30298097681349      1.04225604061134
