18
Coordinates from ORCA-job run
  C   -0.56156411737206     -0.45588182753112      0.04144081048652
  C   0.90187894137390     -0.16716081300007     -0.37172787196979
  Cl  -0.57691132988207     -2.11426242553086      0.75862686382202
  H   1.20216408487388     -0.97277959574180     -1.05258200957842
  C   -1.46991104380477     -0.48720699432150     -1.17886227168979
  H   -1.09249688021376     -1.18763593714640     -1.92741755218682
  H   -1.53391952229668      0.50723402672377     -1.62735467642031
  H   -2.47343760951625     -0.80382629649506     -0.88931085060532
  C   -1.07403411173083      0.51836550912785      1.08849020632036
  H   -2.11607363160291      0.29379928933460      1.32351993958923
  H   -0.49967343719354      0.45597101749392      2.01295116144724
  H   -1.01832627822306      1.54066050726863      0.70258348897533
  C   1.90772158505753     -0.09300647393187      0.78166431953976
  H   1.85769726753503     -0.99928297046096      1.38509521747448
  H   1.71749667322678      0.77216969784312      1.41779312391504
  H   2.91874109960235      0.00130626842685      0.38115496656028
  C   0.94155585937489      1.08587305432287     -1.13225962090810
  N   0.96909245079158      2.10666396361803     -1.71280524477174
