11

C	0.0	0.0	0.0
C	-0.295896	-0.07806	-1.524767
Cl	1.783996	0.0	0.0
H	0.154301	-1.005561	-1.891101
H	-0.302852	0.967982	0.390947
H	0.242001	0.743574	-2.007688
C	-0.723398	-1.044641	0.733163
N	-0.73874	-2.032745	1.400866
C	-1.699726	-0.046191	-1.980302
N	-2.617321	-0.223278	-2.706251
H	-2.108418	0.0	0.0
