11

C	0.0	0.0	0.0
C	-0.502395	0.031735	-1.443389
Cl	1.781559	0.0	0.0
H	-0.199991	-0.874218	-1.971624
H	-0.352532	0.893156	0.51626
H	-1.613259	0.045893	-1.262469
C	-0.483813	-1.171845	0.727355
N	-0.518847	-2.157987	1.369908
C	-0.049242	1.209615	-2.156843
N	0.273855	2.174144	-2.746008
H	-2.700434	0.0	0.0
