11

C	0.0	0.0	0.0
C	-0.482363	0.052048	-1.449137
Cl	1.781967	0.0	0.0
H	-1.596208	0.095618	-1.289246
H	-0.374284	0.885503	0.513898
H	-0.104299	0.96295	-1.919951
C	-0.474867	-1.189919	0.711574
N	-0.569337	-2.180648	1.340636
C	-0.086635	-1.108616	-2.224711
N	0.19956	-2.056847	-2.856365
H	-2.669679	0.0	0.0
