11

C	0.0	0.0	0.0
C	-0.511557	-0.032421	-1.436174
Cl	1.781781	0.0	0.0
H	-1.627557	-0.035135	-1.246839
H	-0.374103	0.90703	0.473974
H	-0.207607	0.884884	-1.948158
C	-0.448566	-1.155597	0.786363
N	-0.556986	-2.108784	1.46714
C	-0.056408	-1.187327	-2.187384
N	0.285395	-2.114556	-2.824588
H	-2.727804	0.0	0.0
