15
Coordinates from ORCA-job run
  C   -0.99201300506170      0.13715659471192     -0.10102390152622
  C   0.39180344219384     -0.07215164691431      0.53445198913275
  Cl  -1.19513097083607      1.84455274687947     -0.60275788230508
  H   0.41933427397046     -1.12385327030932      0.84992843381808
  H   -1.74759468336193     -0.02787102095543      0.67047369612831
  C   -1.24890008593729     -0.77914643930677     -1.28326220220031
  H   -2.27803881671726     -0.66645197058039     -1.62642410197580
  H   -1.09523119519968     -1.82183594513884     -0.98997408998648
  H   -0.58930247981311     -0.54442616087293     -2.11900017612530
  C   0.51513445353422      0.73271756721869      1.75326450467880
  N   0.62699826728807      1.37324368414208      2.73062638624467
  C   1.57459023441050      0.19037561459267     -0.40128863817661
  H   1.54193872000480     -0.48041838372566     -1.26069603667073
  H   2.51263567496768      0.01709887105431      0.12835973902836
  H   1.56477617055748      1.22100975920452     -0.75567772006445
