15
Coordinates from ORCA-job run
  C   -0.56818062755377     -0.52734100830871     -0.59530108228598
  C   0.41208896256694      0.18113852876294      0.35323901801457
  Cl  -1.05544365315060     -2.08406027533652      0.15290099790173
  H   -0.10107599881346      0.32097326521369      1.31240643335122
  H   -0.04125297482906     -0.79228640674220     -1.51586523716537
  C   -1.81035726516822      0.28744166150756     -0.90216329995673
  H   -2.33687535500841      0.54294164577330      0.02027361979641
  H   -2.48917201870748     -0.28263598323885     -1.53745927334731
  H   -1.54000855488139      1.20920730388056     -1.42173119928956
  C   0.71613440819260      1.50920567965662     -0.18839927578061
  N   0.97720445587179      2.56085375137878     -0.64112577860443
  C   1.71633494457503     -0.58981559219499      0.58015938295304
  H   2.23246538602902     -0.75028093840043     -0.36908386306006
  H   1.50991989099426     -1.55708639788521      1.03663998023773
  H   2.37921839988276     -0.02725523406656      1.23950957723533
