15
Coordinates from ORCA-job run
  C   -0.98303598632091      0.20269449521343     -0.17734383850753
  C   0.34099374483130     -0.04581038904141      0.56280338996920
  Cl  -1.04074882082577      1.87927450653812     -0.80478892605625
  H   0.27795134463548     -1.07143057670957      0.95077788661602
  H   -1.79515072686922      0.13979537435174      0.55057115726375
  C   -1.22458852290613     -0.77785210554537     -1.31025385861799
  H   -0.49989260862545     -0.64372641171031     -2.11369415271600
  H   -2.22063308796233     -0.62726841658172     -1.72839547995439
  H   -1.15797012567245     -1.80448294006759     -0.93816659220188
  C   0.44142671809862      0.83622978201761      1.72915012542847
  N   0.53486414073137      1.53773356849983      2.66583702853255
  C   1.59494940115194      0.07324313689172     -0.30720965270797
  H   2.48460427975416     -0.11484158264587      0.29582950855244
  H   1.57315028059453     -0.65814294386924     -1.11608379302064
  H   1.67407996938487      1.07258450265864     -0.73503280257978
