15
Coordinates from ORCA-job run
  C   -0.84171603390699     -0.61899454752367     -0.05419876459719
  C   0.37572856797791     -0.01589442565723      0.65914033051988
  Cl  -2.25252809911536     -0.53890489304482      1.04859757781700
  H   0.44142533920210     -0.48542475442837      1.64656239956865
  H   -0.64263837942361     -1.68419462284299     -0.19783735090665
  C   -1.18863165003827      0.04310633176756     -1.37298136543853
  H   -0.35823332718610     -0.04437987619000     -2.07747791621466
  H   -2.06112162315949     -0.43878672800712     -1.81579910143201
  H   -1.41828712581525      1.09971656963235     -1.22400999359673
  C   0.18815763450650      1.42125700563955      0.87285813884130
  N   0.04732241719184      2.57939153223783      1.00404075183377
  C   1.68015072621836     -0.27776254952231     -0.10306045262842
  H   1.69821374888415      0.24705109476788     -1.05870730966344
  H   2.53345280072512      0.06447908491980      0.48472034379970
  H   1.79770500393909     -1.34865922174845     -0.28584728790267
