17

C	-0.431442	0.001992	-1.451742
C	0.0	0.0	0.0
F	0.340148	0.870757	-2.157995
H	1.096061	0.0	0.0
C	-0.369328	-1.356539	-2.112885
H	-0.616719	-1.23691	-3.170805
H	-1.068323	-2.050779	-1.647013
H	0.645463	-1.750061	-2.02952
N	-1.871309	0.492086	-1.582165
O	-2.155155	1.153477	-2.57024
O	-2.635154	0.11535	-0.700718
C	-0.473724	-1.133773	0.75601
N	-0.799561	-2.10043	1.346581
N	-0.384065	1.263556	0.71572
O	-0.659105	2.242104	0.023609
O	-0.2459	1.252546	1.935357
Br	2.738469	0.0	0.0
