17

C	-0.416993	-0.007095	-1.468304
C	0.0	0.0	0.0
F	0.032857	1.148027	-2.021162
H	1.092812	0.0	0.0
C	0.132321	-1.200243	-2.203315
H	-0.123396	-1.112325	-3.261596
H	1.21826	-1.196052	-2.078061
H	-0.2876	-2.121658	-1.802053
N	-1.942396	0.021438	-1.608567
O	-2.457399	1.033909	-2.06475
O	-2.523366	-1.001858	-1.261234
C	-0.490982	-1.140851	0.754759
N	-0.828887	-2.077751	1.377413
N	-0.50162	1.270514	0.63935
O	0.312168	2.160989	0.842313
O	-1.708981	1.312785	0.880037
Br	3.353714	0.0	0.0
