17

C	-0.480655	-0.012488	-1.463258
C	0.0	0.0	0.0
F	0.093996	-1.100176	-2.03812
H	1.092819	0.0	0.0
C	-1.968732	-0.053529	-1.699444
H	-2.37213	-0.957291	-1.240308
H	-2.145189	-0.09125	-2.777017
H	-2.458077	0.819369	-1.276528
N	0.086749	1.221097	-2.162754
O	-0.472805	2.277512	-1.869761
O	1.002538	1.061999	-2.954149
C	-0.501642	-1.191915	0.667752
N	-0.894963	-2.167474	1.190626
N	-0.505078	1.217883	0.723387
O	-1.669353	1.182865	1.126936
O	0.273349	2.154928	0.835585
Br	3.344119	0.0	0.0
