17

C	-0.402576	-0.0148	-1.472895
C	0.0	0.0	0.0
F	0.026245	1.154448	-2.013612
H	1.092937	0.0	0.0
C	0.192927	-1.188262	-2.202601
H	1.275964	-1.152502	-2.06222
H	-0.051006	-1.104814	-3.264153
H	-0.203235	-2.12386	-1.809865
N	-1.924384	-0.033224	-1.644823
O	-2.481369	-1.061305	-1.274475
O	-2.456692	0.942634	-2.155129
C	-0.495108	-1.132227	0.764823
N	-0.843979	-2.041433	1.421663
N	-0.507084	1.273216	0.630165
O	0.317342	2.11697	0.951321
O	-1.729376	1.358895	0.752221
Br	3.359272	0.0	0.0
