12

C	-0.605349	-0.038077	-1.538792
C	0.077248	0.133281	-0.180477
Br	-2.556793	-0.1618	-1.335712
H	1.149695	0.255522	-0.364011
H	-0.304984	-0.996477	-1.963353
H	-0.288502	1.06207	0.276599
C	-0.322635	1.046163	-2.471624
N	-0.071316	1.924199	-3.210773
N	-0.115578	-1.061989	0.613213
H	0.786713	-1.266578	1.048887
H	-0.791072	-0.893405	1.345818
Cl	3.025215	-0.881322	1.437201
