12

C	-0.387473	-0.014227	-1.358533
C	-0.200554	-0.365361	0.114244
Br	-0.160585	-1.618187	-2.468509
H	0.796751	-0.802801	0.204136
H	0.419069	0.668056	-1.647133
H	-0.953275	-1.103979	0.408318
C	-1.700347	0.55147	-1.63709
N	-2.767402	0.976562	-1.883553
N	-0.382179	0.867467	0.867451
H	-0.417758	0.647863	1.855956
H	0.46236	1.417524	0.704968
Cl	2.497775	1.593657	-0.542875
