12

C	-0.122821	0.052077	-1.331396
C	0.116458	0.277418	0.153555
Br	-1.755562	-0.980929	-1.66272
H	1.145986	0.663182	0.22198
H	0.720415	-0.544052	-1.706259
H	0.126504	-0.703564	0.629784
C	-0.238741	1.319	-2.039889
N	-0.323012	2.373989	-2.551265
N	-0.912938	1.120556	0.756585
H	-0.812213	1.090125	1.76344
H	-0.7653	2.082692	0.472811
Cl	2.797401	-1.434159	-1.056893
