12

C	-0.541088	-0.039429	-1.529477
C	-0.038867	-0.286275	-0.088688
Br	0.544993	1.263462	-2.483152
H	0.993277	-0.644518	-0.131598
H	-1.546153	0.390474	-1.490035
H	-0.668158	-1.10789	0.287784
C	-0.604854	-1.27605	-2.300761
N	-0.670062	-2.299487	-2.874688
N	-0.084285	0.847992	0.791693
H	-0.851186	1.470205	0.57278
H	0.801092	1.361919	0.751388
Cl	2.951313	2.034048	0.629665
