12

C	-0.637074	-0.028734	-1.467452
C	-0.056369	0.213711	-0.069696
Br	-0.533336	1.605925	-2.564864
H	1.005298	0.457571	-0.150452
H	-1.710416	-0.222779	-1.38681
H	-0.591617	1.081752	0.335984
C	-0.042249	-1.131444	-2.212499
N	0.354183	-2.029386	-2.857748
N	-0.178362	-0.943389	0.78905
H	0.705526	-1.454425	0.749375
H	-0.949449	-1.545048	0.528744
Cl	2.987007	-1.430918	0.39263
