15

C	0.0	0.0	0.0
C	-0.470458	-0.013387	-1.455665
F	1.417612	0.0	0.0
H	-1.57793	-0.016452	-1.324032
H	-0.322583	0.948963	0.43689
N	-0.50749	-1.053085	0.808985
H	-1.529541	-0.854775	0.805775
H	-0.386911	-1.93244	0.314732
C	-0.060868	-1.250178	-2.111681
N	0.264989	-2.244189	-2.64939
C	-0.015527	1.21122	-2.245281
H	1.075237	1.272178	-2.284241
H	-0.405099	1.1889	-3.265994
H	-0.40083	2.110583	-1.75584
H	-3.0083	0.0	0.0
