15

C	0.0	0.0	0.0
C	-0.487144	-0.035974	-1.452405
F	1.389118	0.0	0.0
H	-1.593924	-0.036537	-1.307984
H	-0.334538	0.951959	0.422985
N	-0.502163	-1.044575	0.829047
H	-0.371043	-1.934779	0.35339
H	-1.522581	-0.859055	0.839016
C	-0.085953	-1.281838	-2.093847
N	0.239615	-2.282687	-2.619124
C	-0.033952	1.176322	-2.263819
H	-0.399384	2.08562	-1.776905
H	1.056521	1.225238	-2.324165
H	-0.442835	1.148599	-3.27681
H	-3.020056	0.0	0.0
