15

C	0.0	0.0	0.0
C	-0.238204	0.055992	-1.544719
F	1.380299	0.0	0.0
H	0.467858	-0.70542	-1.896215
H	-0.311898	0.930945	0.487555
N	-0.572772	-1.184853	0.540765
H	-1.597523	-0.998441	0.452128
H	-0.381208	-1.196982	1.538771
C	0.278944	1.340788	-2.030564
N	0.689321	2.365169	-2.433024
C	-1.590938	-0.238324	-2.188491
H	-1.9476	-1.212893	-1.861996
H	-2.352893	0.467649	-1.876149
H	-1.455912	-0.238836	-3.277347
H	-3.190122	0.0	0.0
