15

C	0.0	0.0	0.0
C	-0.200241	0.045765	-1.562328
F	1.390817	0.0	0.0
H	0.393624	-0.816774	-1.897703
H	-0.346817	0.923212	0.465407
N	-0.583705	-1.096033	0.668062
H	-1.596928	-0.85422	0.707219
H	-0.502825	-1.932208	0.095494
C	0.487424	1.229142	-2.086214
N	1.008354	2.192854	-2.520311
C	-1.588549	-0.053063	-2.188358
H	-1.473806	-0.135157	-3.277146
H	-2.209317	0.799478	-1.929636
H	-2.130337	-0.908355	-1.793432
H	-3.238166	0.0	0.0
