15

C	0.0	0.0	0.0
C	-0.200786	0.057367	-1.560862
F	1.390756	0.0	0.0
H	0.389003	-0.805277	-1.902864
H	-0.346146	0.919633	0.473054
N	-0.584082	-1.101125	0.660543
H	-0.50818	-1.930896	0.08148
H	-1.594821	-0.855716	0.704482
C	0.490187	1.242838	-2.080877
N	1.011389	2.204351	-2.507754
C	-1.589102	-0.02802	-2.186456
H	-2.136228	-0.880734	-1.792349
H	-1.477127	-0.106316	-3.277394
H	-2.203507	0.828195	-1.923938
H	-3.241496	0.0	0.0
