16

C	-0.442957	0.097561	-1.439098
C	0.0	0.0	0.0
F	-1.800535	0.337603	-1.544891
H	1.086909	0.0	0.0
H	-0.392537	-0.89182	0.48237
C	0.333158	1.051692	-2.298151
H	1.39857	0.879521	-2.12578
H	0.081074	2.061061	-1.984754
H	0.08276	0.905156	-3.350515
N	-0.277093	-1.330583	-1.983284
O	0.661103	-1.56057	-2.740376
O	-1.110982	-2.152199	-1.608406
N	-0.416343	1.133452	0.813671
O	-0.641657	0.908964	2.006985
O	-0.423626	2.263975	0.311977
H	2.621732	0.0	0.0
