16

C	-0.414728	-0.018926	-1.451199
C	0.0	0.0	0.0
F	-0.001049	1.17473	-1.976867
H	1.09032	0.0	0.0
H	-0.387586	0.899128	0.477287
C	0.113472	-1.142572	-2.2974
H	-0.312097	-2.092007	-1.987094
H	-0.125604	-0.936111	-3.343565
H	1.195417	-1.164422	-2.1486
N	-1.948243	0.017567	-1.55021
O	-2.526378	-1.014027	-1.215353
O	-2.491236	1.049307	-1.93151
N	-0.438653	-1.143418	0.783348
O	-0.996144	-0.917084	1.866886
O	-0.135439	-2.273193	0.385545
H	2.626617	0.0	0.0
