16

C	-0.552875	0.151013	-1.390088
C	0.0	0.0	0.0
F	-1.92503	0.315064	-1.365287
H	1.089454	0.0	0.0
H	-0.31499	0.86708	0.581634
C	0.093352	1.334106	-2.078799
H	1.181823	1.239785	-1.99911
H	-0.225349	1.383889	-3.124969
H	-0.227946	2.246701	-1.574555
N	-0.3044	-1.071935	-2.263889
O	0.867493	-1.296573	-2.531389
O	-1.274191	-1.691913	-2.67888
N	-0.481515	-1.175478	0.706987
O	-0.705837	-1.060148	1.918265
O	-0.540838	-2.243305	0.08519
H	2.616679	0.0	0.0
