16

C	-0.421083	-0.002435	-1.438599
C	0.0	0.0	0.0
F	-0.037392	1.132481	-2.080699
H	1.08865	0.0	0.0
H	-0.308475	-0.916051	0.499802
C	0.187305	-1.188171	-2.150125
H	1.269576	-1.122012	-1.99742
H	-0.185786	-2.123373	-1.732352
H	-0.053488	-1.133722	-3.214923
N	-1.943163	-0.087663	-1.597694
O	-2.503947	-0.915975	-0.882953
O	-2.484475	0.604893	-2.447646
N	-0.537656	1.113948	0.780383
O	-0.221438	1.145491	1.971209
O	-1.238605	1.963539	0.216089
H	2.685774	0.0	0.0
