16

C	-0.40502	-0.030452	-1.454473
C	0.0	0.0	0.0
F	-0.020584	1.178558	-1.97008
H	1.090304	0.0	0.0
H	-0.388758	0.901675	0.470315
C	0.175179	-1.129801	-2.296757
H	1.255375	-1.108814	-2.128145
H	-0.053641	-0.92895	-3.347158
H	-0.218033	-2.095012	-1.99546
N	-1.935558	-0.042931	-1.573875
O	-2.484089	-1.109117	-1.309676
O	-2.508523	0.994548	-1.888778
N	-0.423052	-1.13865	0.797921
O	-0.162783	-2.273809	0.384209
O	-0.905374	-0.902117	1.916648
H	2.617385	0.0	0.0
