13

C	-0.338472	0.018485	-1.480783
C	0.0	0.0	0.0
Br	0.198375	-1.671118	-2.303489
H	1.093325	0.0	0.0
H	0.27744	0.789333	-1.947546
C	-1.750775	0.245557	-1.757175
N	-2.890554	0.418836	-1.986861
C	-0.538905	-1.107442	0.745404
N	-0.93523	-2.050984	1.326442
N	-0.32972	1.269767	0.611805
O	-0.394278	1.319041	1.845633
O	-0.344802	2.260516	-0.139688
H	2.3503	0.0	0.0
