13

C	-0.332409	-0.026765	-1.470663
C	0.0	0.0	0.0
Br	-2.267893	-0.004048	-1.845302
H	1.095193	0.0	0.0
H	0.015366	-0.992775	-1.85021
C	0.306109	1.016087	-2.268842
N	0.809494	1.778695	-3.008903
C	-0.452279	-1.185291	0.683059
N	-0.753522	-2.203208	1.190263
N	-0.398511	1.202306	0.694797
O	-0.493482	2.239007	0.024477
O	-0.460211	1.146497	1.930892
H	2.354855	0.0	0.0
