13

C	-0.33354	-0.018949	-1.470123
C	0.0	0.0	0.0
Br	-2.269747	0.053014	-1.843243
H	1.09522	0.0	0.0
H	-0.01601	-0.994763	-1.849793
C	0.331682	1.005716	-2.270635
N	0.843117	1.75941	-3.013014
C	-0.459765	-1.183952	0.681809
N	-0.7632	-2.202004	1.188047
N	-0.387544	1.206611	0.693241
O	-0.473525	1.150429	1.928035
O	-0.445824	2.247474	0.021134
H	2.354808	0.0	0.0
