13

C	-0.450352	-0.001059	-1.449111
C	0.0	0.0	0.0
Br	0.199001	-1.607853	-2.357092
H	1.094834	0.0	0.0
H	0.015268	0.845784	-1.953463
C	-1.902157	0.057815	-1.576319
N	-3.07357	0.117768	-1.665352
C	-0.49663	-1.120358	0.76549
N	-0.882159	-2.066329	1.349257
N	-0.334948	1.262243	0.634156
O	-0.366669	2.264615	-0.100454
O	-0.395192	1.28937	1.870957
H	2.36315	0.0	0.0
