13

C	-0.329259	-0.015654	-1.471797
C	0.0	0.0	0.0
Br	-2.263429	0.087817	-1.84602
H	1.095217	0.0	0.0
H	-0.027296	-0.996072	-1.849509
C	0.35283	0.995609	-2.27424
N	0.86817	1.728631	-3.034317
C	-0.471344	-1.182858	0.675855
N	-0.786742	-2.20258	1.170992
N	-0.387835	1.208164	0.690062
O	-0.399292	2.25252	0.022534
O	-0.526392	1.148435	1.919647
H	2.355823	0.0	0.0
