13

C	-0.322635	0.005435	-1.485004
C	0.0	0.0	0.0
Br	0.20745	-1.701226	-2.279486
H	1.093364	0.0	0.0
H	0.312782	0.761095	-1.951357
C	-1.726486	0.248537	-1.786825
N	-2.859663	0.436681	-2.038307
C	-0.544278	-1.099666	0.752773
N	-0.932889	-2.042237	1.340797
N	-0.327562	1.277459	0.595391
O	-0.320058	2.261627	-0.166151
O	-0.409815	1.338245	1.828765
H	2.34702	0.0	0.0
