13

C	-0.333513	-0.005027	-1.470308
C	0.0	0.0	0.0
Br	-2.268967	0.03843	-1.843669
H	1.095224	0.0	0.0
H	0.005741	-0.96858	-1.861436
C	0.314096	1.040652	-2.255508
N	0.814994	1.807686	-2.990629
C	-0.45293	-1.195425	0.665154
N	-0.749012	-2.2224	1.156493
N	-0.390574	1.194454	0.712119
O	-0.451742	1.122082	1.948118
O	-0.47399	2.242121	0.055485
H	2.355586	0.0	0.0
