13

C	-0.320272	-0.019657	-1.472349
C	0.0	0.0	0.0
Br	-2.250111	0.035691	-1.863637
H	1.095162	0.0	0.0
H	0.011765	-0.9913	-1.848182
C	0.343486	1.009716	-2.268077
N	0.861969	1.762147	-3.007386
C	-0.459	-1.185716	0.677724
N	-0.758536	-2.207656	1.178413
N	-0.397902	1.20375	0.691491
O	-0.518785	1.14305	1.923372
O	-0.440645	2.246261	0.023961
H	2.356415	0.0	0.0
