13

C	-0.477818	0.02314	-1.437544
C	0.0	0.0	0.0
Br	0.726002	1.070099	-2.625876
H	1.091633	0.0	0.0
H	-1.432272	0.545343	-1.523042
C	-0.573406	-1.310711	-2.01583
N	-0.674255	-2.373309	-2.507888
C	-0.396347	-1.178705	0.731484
N	-0.662689	-2.181177	1.290291
N	-0.393237	1.195868	0.707256
O	-0.71743	2.193481	0.036351
O	-0.21671	1.200935	1.936195
H	2.296027	0.0	0.0
