17

C	-0.344823	0.003047	-1.478013
C	0.0	0.0	0.0
Cl	-2.150694	0.061032	-1.731322
H	1.098611	0.0	0.0
H	-0.052388	-0.972204	-1.868288
C	0.317117	1.117018	-2.260794
H	0.15261	0.989246	-3.332846
H	1.389759	1.083566	-2.049915
H	-0.073283	2.093545	-1.969451
N	-0.447437	-1.257594	0.597925
H	0.117732	-1.436984	1.421136
H	-1.414513	-1.165481	0.895963
C	-0.465388	1.241334	0.755035
H	-0.112743	1.177733	1.78783
H	-1.557774	1.316768	0.762488
H	-0.053083	2.158592	0.328098
Cl	3.522292	0.0	0.0
