15

C	0.0	0.0	0.0
C	-0.50295	0.115438	-1.441734
F	1.3646	0.0	0.0
H	-0.048225	1.060807	-1.767089
H	-0.371266	0.80386	0.638346
N	-0.393299	-1.279667	0.707557
O	-1.019759	-2.138954	0.092066
O	-0.014446	-1.365243	1.872381
N	-1.923003	0.22953	-1.633076
H	-2.450818	-0.537073	-1.227865
H	-2.335653	1.057741	-1.220132
N	0.104774	-0.938269	-2.24515
H	-0.424636	-1.786549	-2.079974
H	-0.062175	-0.684083	-3.211853
Br	-4.828129	0.0	0.0
