15

C	0.0	0.0	0.0
C	-0.542415	-0.155931	-1.417741
F	1.378031	0.0	0.0
H	-1.446686	-0.756352	-1.33739
H	-0.374354	0.880227	0.517129
N	-0.327829	-1.168323	0.90696
O	-0.142201	-0.951507	2.103875
O	-0.642315	-2.241998	0.411238
N	0.432991	-0.880831	-2.218246
H	0.009017	-0.999511	-3.130713
H	1.250674	-0.295348	-2.349839
N	-0.957205	1.118704	-1.998478
H	-0.314365	1.86062	-1.738996
H	-1.873504	1.330216	-1.605655
Br	-3.62854	0.0	0.0
