15

C	0.0	0.0	0.0
C	-0.531788	0.068191	-1.443663
F	1.362318	0.0	0.0
H	-0.489349	1.14028	-1.713448
H	-0.375061	0.78176	0.660287
N	-0.394323	-1.31056	0.63019
O	0.191314	-2.309183	0.220487
O	-1.257629	-1.272733	1.498183
N	-1.825511	-0.550269	-1.490505
H	-2.189561	-0.46806	-2.430389
H	-2.542625	-0.195617	-0.851202
N	0.30201	-0.637901	-2.401477
H	0.250942	-1.622914	-2.163326
H	1.266925	-0.343204	-2.308074
Br	-4.833636	0.0	0.0
