17

C	0.0	0.0	0.0
C	-0.54456	-0.241414	-1.420183
Cl	1.785313	0.0	0.0
H	-1.613232	-0.015458	-1.322199
N	-0.494923	1.265526	0.473551
H	-1.519033	1.201903	0.439548
H	-0.224812	1.392893	1.443291
C	-0.352335	-1.140308	0.877221
N	-0.582725	-2.041274	1.595895
N	-0.316381	-1.634348	-1.803213
H	-0.441727	-1.708694	-2.806562
H	-1.047804	-2.199222	-1.380516
C	0.084519	0.700828	-2.429747
H	1.09425	0.370686	-2.685766
H	-0.523574	0.713455	-3.339567
H	0.127448	1.713069	-2.027487
Br	-3.781089	0.0	0.0
