17

C	0.0	0.0	0.0
C	-0.430978	-0.336596	-1.481025
Cl	1.853276	0.0	0.0
H	0.423617	-0.063302	-2.104527
N	-0.491861	1.249281	0.43136
H	-0.991282	1.199	1.307077
H	-1.083505	1.631736	-0.303065
C	-0.325841	-1.072535	0.949737
N	-0.53786	-1.951204	1.70056
N	-1.524155	0.538647	-1.864984
H	-2.406933	0.256718	-1.422598
H	-1.642457	0.51804	-2.870094
C	-0.712834	-1.827221	-1.653533
H	0.127006	-2.445047	-1.32082
H	-1.608613	-2.103488	-1.093448
H	-0.894092	-2.034461	-2.712071
Br	-4.268105	0.0	0.0
