17

C	0.0	0.0	0.0
C	-0.448486	0.407312	-1.420843
Cl	1.785918	0.0	0.0
H	0.077994	-0.276743	-2.096802
N	-0.524031	0.922001	0.97556
H	-1.54256	0.849704	0.960979
H	-0.20844	0.663337	1.904159
C	-0.364777	-1.409604	0.259207
N	-0.626104	-2.527865	0.509697
N	0.055155	1.757284	-1.681744
H	-0.374532	2.079876	-2.542621
H	-0.287007	2.357037	-0.936751
C	-1.949647	0.254508	-1.613593
H	-2.179424	0.339431	-2.680143
H	-2.350046	-0.702866	-1.27614
H	-2.525768	1.018111	-1.09108
Br	-4.986718	0.0	0.0
