17

C	0.0	0.0	0.0
C	-0.379152	0.051858	-1.547034
Cl	1.797637	0.0	0.0
H	0.463462	0.599093	-1.981833
N	-0.506912	1.172042	0.662212
H	-1.528161	1.106464	0.616683
H	-0.247188	1.144867	1.643301
C	-0.382849	-1.262295	0.657627
N	-0.647938	-2.286465	1.172085
N	-1.562757	0.776869	-1.904322
H	-2.410294	0.366128	-1.510009
H	-1.50288	1.728872	-1.566353
C	-0.425838	-1.350346	-2.133965
H	-0.508153	-1.271489	-3.219083
H	-1.305824	-1.880072	-1.759786
H	0.46487	-1.930645	-1.881874
Br	-4.14864	0.0	0.0
