12
Coordinates from ORCA-job run
  C   0.85389197780278      0.44921744798297      0.27313226263614
  C   -0.25154398421265     -0.54513227572622     -0.03555097892610
  F   0.39086713438167      1.39940988080236      1.17225087198519
  H   -0.52666434244819     -1.03989107226825      0.90028530899383
  H   1.16262136646019      0.98567484710134     -0.62986517635631
  H   0.15780557503747     -1.31227014601300     -0.70032616436658
  C   2.03104666020931     -0.21385372816095      0.85670001874534
  N   2.96031876297615     -0.77114138181844      1.30667418661792
  C   -1.46201711209827      0.13430790054118     -0.66549577471297
  H   -1.19803538567224      0.61421097627674     -1.61144236119373
  H   -1.86936436168581      0.89461377724370      0.00135558374745
  H   -2.24792629075041     -0.59514622596144     -0.86871777717019
