17
Coordinates from ORCA-job run
  C   0.71342861340204     -0.26320436835142      0.53887656371935
  C   -0.70754328700771      0.20668946692159      0.25999439320647
  H   0.76073919579336     -1.02083560571643      1.32072315720253
  H   -1.08193680130603      0.47929143912391      1.25246880853419
  N   1.53145174598212      0.90410993345207      1.02365178922813
  O   2.43653832462497      1.31783642502790      0.31528239701742
  O   1.17819929975936      1.33970481338053      2.11118687016010
  N   1.42161952164707     -0.84355831516374     -0.64326663174392
  O   2.29073910421704     -1.67293799484954     -0.38733479435345
  O   1.10511536818778     -0.44643330291020     -1.76181651876235
  C   -1.56364564071342     -0.93526682152833     -0.28952402450890
  H   -2.60679645689634     -0.61494206941919     -0.33284045247713
  H   -1.51268112317937     -1.82587027832017      0.34473227448058
  H   -1.25110357067030     -1.20567890071851     -1.29936540088292
  N   -0.66974043097230      1.43007058899465     -0.52173237457165
  H   -1.54572792532185      1.92746146065636     -0.43558123052587
  H   -0.49965593754643      1.22556352942052     -1.49745482572257
