17
Coordinates from ORCA-job run
  C   0.76839222990990      0.45795147517051      0.24853924227768
  C   -0.76778489192972      0.39550855138785      0.13637877427684
  H   1.11147826691027      1.49129816591347      0.32126506169857
  H   -1.12539137845736      0.96152549573269      1.00087724850688
  N   1.41893639144726     -0.10603718236653     -0.96695274745238
  O   1.97073019852292      0.70515675828199     -1.70924525229865
  O   1.29737427429143     -1.31076708034166     -1.16369736476384
  N   1.30754379638348     -0.23223984500830      1.47312612809024
  O   2.35382745132523     -0.85912461862369      1.37667436445020
  O   0.66213550351835     -0.03026120161973      2.49679916788823
  C   -1.34392867872826     -1.01028656637413      0.21100498565246
  H   -2.43098515615060     -0.92427015729436      0.22708706216944
  H   -1.02273798419013     -1.53326142363904      1.11224347809123
  H   -1.05621716695200     -1.60738642180140     -0.65492656205002
  N   -1.24785093696096      1.05721986718899     -1.06224838266827
  H   -0.99479610779226      0.54317715592676     -1.89753202648347
  H   -0.89872581114756      2.00379702746657     -1.14739317738514
