17
Coordinates from ORCA-job run
  C   0.68448922982121     -0.18525535346092      0.53740076751672
  C   -0.79458094236182      0.15718133410267      0.27632875303457
  H   0.80241730612351     -0.92058261923565      1.33519744761879
  H   -1.20063613461576      0.38949484592762      1.26478147682016
  N   1.48756953479803      1.01536998035180      0.95936701789739
  O   2.65926087831327      1.07053980967417      0.60937038545392
  O   0.90115623417349      1.81105331027275      1.68650672864289
  N   1.31833320281157     -0.77105849183648     -0.67505766209176
  O   1.67131860003331     -1.94537292051074     -0.60037997257111
  O   1.37333465273672     -0.05380491333897     -1.67117034212565
  C   -1.49392289798557     -1.07885736273957     -0.27747516445419
  H   -1.15936041156284     -1.29112705081610     -1.29655873933176
  H   -1.30902772302213     -1.96562772231682      0.33391019562233
  H   -2.56569193422140     -0.88544847539500     -0.31190118865188
  N   -1.05044796596767      1.29893560892066     -0.57080521690307
  H   -0.73528813796045      2.15507953402602     -0.13395769220940
  H   -0.58992349111347      1.19948048637455     -1.46655679426796
