17
Coordinates from ORCA-job run
  C   0.89629751849862      0.33847540078721      0.12853048868581
  C   -0.64059463890771      0.45380885647829      0.04837620456610
  H   1.37862943573789      1.24122337263954     -0.24199563880917
  H   -0.94294040418023      0.88714586636172      1.01103728494193
  N   1.45479590997668     -0.79168606513951     -0.69252955500278
  O   2.13458487894019     -1.63821379203596     -0.12346377454556
  O   1.15343592411719     -0.77349878052986     -1.87872904555452
  N   1.35889376018066      0.14026444741421      1.53182863563309
  O   0.74424833542202     -0.67498081395396      2.21375875277261
  O   2.31236384691341      0.82391671701586      1.89807505360626
  C   -1.34661442595320     -0.88942646896889     -0.08774876002959
  H   -1.19419540432356     -1.30078044597369     -1.08637064770757
  H   -2.41865383215869     -0.74666129863302      0.06763610793547
  H   -0.98631429569519     -1.60110461463377      0.65475096964348
  N   -0.95805473551384      1.34416991179608     -1.05900015079036
  H   -1.28011197117054      2.24298614842595     -0.72603312532586
  H   -1.66876990188371      0.94636155894981     -1.65712280001934
