14
Coordinates from ORCA-job run
  C   -0.19454392064138      0.28352767801964     -0.81230777018352
  C   1.23044040107139     -0.09764845156067     -0.40826761015424
  Br  -0.31886191046486      0.38409224118299     -2.75078206565835
  H   1.32188006499286      0.00249181940277      0.67894652706506
  H   1.94688879112824      0.58793460648877     -0.86097585153182
  C   -1.25199684177331     -0.64510230407157     -0.26391634018665
  H   -1.07843718289242     -1.65474032249734     -0.63760167356987
  H   -2.24439794905285     -0.31553875572900     -0.56236933944827
  H   -1.19717421346893     -0.65298881326993      0.82891128466162
  N   -0.44736681460438      1.70694129198776     -0.30859766288998
  O   -1.61102211822108      2.02101306397595     -0.09380859360886
  O   0.53227787874419      2.43412341634566     -0.18002968944955
  C   1.53624447016868     -1.47184786211201     -0.79126371827830
  N   1.77606934501384     -2.58225760816302     -1.08493749676727
