14
Coordinates from ORCA-job run
  C   -0.32360203380872      0.12318645862645     -0.97754830529530
  C   1.00059984218013     -0.63442385509733     -1.05287591396920
  Br  -1.09188081350008      0.17227890469986     -2.76596354248872
  H   1.66364004577254     -0.16066725929687     -1.77674865916746
  H   0.79513738837185     -1.65425771121541     -1.38785164560300
  C   -1.31020049161297     -0.46239166796581      0.00430672844809
  H   -2.24652969959784      0.09032195310130     -0.01466860771664
  H   -0.89465680499764     -0.41663465395553      1.01400951864893
  H   -1.50186044287227     -1.50419353871691     -0.25881184120910
  N   -0.02983119383243      1.58155546288496     -0.61566643607579
  O   1.05393182541578      2.03187755679394     -0.96985722011890
  O   -0.91046909042939      2.19219706316382     -0.02337751236057
  C   1.64959606802484     -0.66901097048730      0.25661991919126
  N   2.14512540088619     -0.68983774253515      1.32043351771640
