14
Coordinates from ORCA-job run
  C   -0.32478758271089      0.14748749111955     -0.96884015465858
  C   1.03521042943452     -0.53626805889335     -1.09387897761203
  Br  -1.08480043194993      0.30463716496751     -2.75455536674031
  H   0.88136869817264     -1.53039896590384     -1.52136930605530
  H   1.68089946238509      0.03113347552303     -1.76401036324107
  C   -1.28670559869341     -0.56392710992001     -0.04696400607917
  H   -2.24996263235230     -0.05944234483196     -0.03285357555084
  H   -1.42254884286324     -1.58996353531585     -0.39309460302443
  H   -0.88081298852799     -0.57743497496868      0.96755904317186
  N   -0.10856364015326      1.58361704957700     -0.48591219071049
  O   0.96444857805604      2.10705563517023     -0.76511083894292
  O   -1.03613257775218      2.10840316761902      0.11722182447290
  C   1.67361181953588     -0.66087203580341      0.21552288244885
  N   2.15877530741904     -0.76302695833924      1.27928563252153
