14
Coordinates from ORCA-job run
  C   -0.31631348213635      0.15522771472677     -0.97317944150300
  C   1.02346546664107     -0.57037242011579     -1.07644394731718
  Br  -1.04865863502121      0.32398840764687     -2.76945497569522
  H   0.84517610343132     -1.56233645563363     -1.49938128450970
  H   1.69430043641378     -0.02713758624757     -1.74198631248295
  C   -1.31093085357303     -0.52008822014138     -0.05922884913857
  H   -2.25786252000238      0.01448443465631     -0.05860021585373
  H   -0.91739439679256     -0.54087708875029      0.96004839185894
  H   -1.47522197528043     -1.54325489488339     -0.40148702413012
  N   -0.06162660319657      1.58739928880361     -0.49646251266040
  O   -0.97822969871109      2.14335082715817      0.09531717363855
  O   1.02933869664464      2.07654227348376     -0.76797065302475
  C   1.64368307121674     -0.70585418967572      0.24060013187050
  N   2.13027439036606     -0.83107209102772      1.30122951894763
