14
Coordinates from ORCA-job run
  C   -0.28451776816670      0.07058009500877     -0.82211737803527
  C   0.92935826783946     -0.78483390399184     -0.46621448304340
  Br  -0.47836852502715      0.15571340209418     -2.74453640932455
  H   0.99923508640120     -0.86876293314899      0.62029601012528
  H   0.77194475717925     -1.78390929889267     -0.88077091789572
  C   -1.56010879012506     -0.45005509726081     -0.18426293140862
  H   -1.76236482084546     -1.46358504783810     -0.53295782122885
  H   -2.40153321836555      0.18932251518998     -0.45367871241541
  H   -1.44309327476797     -0.45615719605158      0.90299232907034
  N   -0.07764148510068      1.48422604687756     -0.26789212608858
  O   0.55921561831412      1.53534521664435      0.78176065165744
  O   -0.62733430301821      2.41837358349709     -0.82955312536030
  C   2.18210810199612     -0.23995440523880     -0.98139810036584
  N   3.19410035368664      0.19269702311087     -1.38766698568655
