14
Coordinates from ORCA-job run
  C   -0.20258617533288      0.25947668411392     -0.82613849404547
  C   1.22919757178464     -0.17158604680115     -0.50818867997053
  Br  -0.51050134269092      0.13426110270124     -2.74264719878155
  H   1.43258887382982      0.04437528592454      0.54624864089823
  H   1.93867016057090      0.40496866864622     -1.10207675501967
  C   -1.25475782006891     -0.51814743270387     -0.07014107857176
  H   -1.09270494686272     -0.39544136493672      1.00513066436343
  H   -2.24967899754734     -0.15650376315807     -0.31877956796446
  H   -1.18000935134329     -1.57589031574303     -0.32378912134678
  N   -0.32903633315344      1.74630219353245     -0.48460713380782
  O   -1.46065282949443      2.17538746100086     -0.30201420872309
  O   0.70822029964347      2.40059964135031     -0.43971675175811
  C   1.41353176219970     -1.59862244992443     -0.75058908020755
  N   1.55871912846540     -2.74917966400228     -0.92969123506484
