14
Coordinates from ORCA-job run
  C   -0.28179523002361      0.08178031430535     -0.80088419306253
  C   0.93812148708112     -0.76663782141172     -0.45623399244952
  Br  -0.47486463422542      0.19953118837670     -2.72585407392460
  H   1.04078189076765     -0.81608309317417      0.63054635702240
  H   0.75317954249857     -1.77777922141408     -0.82901670179619
  C   -1.55377371397463     -0.46164359188695     -0.17805375188549
  H   -1.44845247248170     -0.47041706527335      0.91122575575430
  H   -2.40105716975798      0.16661432325463     -0.45067609524419
  H   -1.73548350548405     -1.47784254506589     -0.53021316356929
  N   -0.10171390409966      1.49879284072649     -0.25177346540139
  O   -0.92715343351176      2.33317614115088     -0.59268524147115
  O   0.81062657877159      1.66174650594588      0.55415140248306
  C   2.18522501244143     -0.27029379526870     -1.03072500685140
  N   3.19735955199845      0.09905581973494     -1.49480782960400
