15

C	0.0	0.0	0.0
C	-0.278828	0.100134	-1.529938
Br	2.0319	0.0	0.0
H	-1.378134	0.137996	-1.542072
N	-0.307008	1.264206	0.612254
H	0.166917	1.316143	1.505352
H	0.052426	1.990894	0.000874
C	-0.776301	-1.119473	0.579362
N	-0.736985	-2.194538	1.106712
C	0.159727	-1.110987	-2.235
N	0.497089	-2.011368	-2.912211
N	0.251523	1.326428	-2.110303
H	-0.263753	1.542277	-2.954309
H	1.228814	1.206848	-2.345788
H	-2.228221	0.0	0.0
