15

C	0.0	0.0	0.0
C	-0.254716	0.116474	-1.537031
Br	2.041382	0.0	0.0
H	-1.337534	0.158911	-1.597102
N	-0.307153	1.284669	0.586406
H	0.107146	2.006956	0.002334
H	0.11029	1.310802	1.51376
C	-0.962939	-1.042765	0.529504
N	-0.975113	-2.149469	0.99995
C	0.174304	-1.097697	-2.247854
N	0.487885	-1.99999	-2.932239
N	0.278019	1.34543	-2.119596
H	-0.201469	1.524472	-2.996306
H	1.268737	1.231021	-2.31142
H	-2.028741	0.0	0.0
