13

C	0.0	0.0	0.0
C	-0.456879	-0.180478	-1.455627
Cl	1.754048	0.0	0.0
H	0.215118	0.408081	-2.086467
H	-0.39104	-0.74382	0.678546
N	-0.418168	1.341789	0.524564
O	-0.459173	2.261095	-0.283748
O	-0.571403	1.430126	1.734129
C	-1.847718	0.233422	-1.788113
N	-2.569385	0.573891	-2.664171
C	-0.256926	-1.58856	-1.808384
N	-0.063286	-2.707699	-2.106586
F	-2.392467	0.0	0.0
