13

C	0.0	0.0	0.0
C	-0.457712	0.031904	-1.468998
Cl	1.755267	0.0	0.0
H	-0.207033	-0.968564	-1.849898
H	-0.390681	-0.856738	0.530605
N	-0.431933	1.217255	0.76447
O	-0.567352	2.256818	0.134681
O	-0.52262	1.081162	1.978114
C	0.31848	0.978755	-2.285367
N	0.92225	1.693459	-2.994774
C	-1.910663	0.243747	-1.750375
N	-2.681041	0.418527	-2.636692
F	-2.404514	0.0	0.0
