13

C	0.0	0.0	0.0
C	-0.422114	0.359438	-1.429443
Cl	1.787308	0.0	0.0
H	0.158064	1.241861	-1.716556
H	-0.379991	-0.944052	0.36283
N	-0.417881	1.062968	0.971112
O	-0.475861	2.209618	0.546106
O	-0.56566	0.709403	2.132688
C	-1.856181	0.678992	-1.666625
N	-2.611476	1.121639	-2.466689
C	-0.011859	-0.732581	-2.318012
N	0.349986	-1.586544	-3.036495
F	-2.3675	0.0	0.0
