16

C	-0.418225	-0.021341	-1.453996
C	0.0	0.0	0.0
Br	-2.393163	-0.000892	-1.590203
H	1.095136	0.0	0.0
H	-0.108837	0.908667	-1.925386
C	0.151505	-1.228631	-2.162924
H	1.23809	-1.199024	-2.040291
H	-0.224566	-2.144579	-1.709064
H	-0.100549	-1.211585	-3.225366
N	-0.468337	-1.107639	0.749802
H	-1.440226	-0.990417	1.004463
H	0.083253	-1.202299	1.590937
N	-0.400314	1.349843	0.601721
O	-0.974412	1.347301	1.69155
O	-0.11118	2.359078	-0.037381
Cl	3.310356	0.0	0.0
