16

C	-0.429815	-0.01502	-1.450556
C	0.0	0.0	0.0
Br	-2.409292	-0.013994	-1.578764
H	1.09946	0.0	0.0
H	-0.13006	0.920352	-1.917977
C	0.143399	-1.217392	-2.167639
H	1.23262	-1.181659	-2.052419
H	-0.116654	-1.199548	-3.227977
H	-0.223985	-2.137763	-1.715224
N	-0.460224	-1.115194	0.745859
H	0.119109	-1.233215	1.566575
H	-1.421848	-0.989057	1.034723
N	-0.399914	1.344383	0.612467
O	-0.137521	2.356667	-0.029774
O	-0.941417	1.334744	1.717592
Cl	3.294688	0.0	0.0
