16

C	-0.518491	-0.030307	-1.434769
C	0.0	0.0	0.0
Br	0.073941	1.559025	-2.405882
H	1.094	0.0	0.0
H	0.017554	-0.853103	-1.91429
C	-2.022541	-0.179211	-1.613739
H	-2.540579	0.713664	-1.270648
H	-2.40355	-1.024361	-1.034053
H	-2.251511	-0.342889	-2.668725
N	-0.462261	-1.151578	0.748369
H	0.334102	-1.526161	1.246619
H	-0.814424	-1.877165	0.135954
N	-0.506794	1.242398	0.696333
O	-1.718174	1.311054	0.918038
O	0.310029	2.109403	0.987425
Cl	3.374607	0.0	0.0
