16

C	-0.619813	-0.055276	-1.397956
C	0.0	0.0	0.0
Br	0.171328	1.20354	-2.665516
H	1.091274	0.0	0.0
H	-0.342336	-1.037967	-1.777945
C	-2.129272	0.117949	-1.395418
H	-2.581193	-0.590036	-0.696486
H	-2.405806	1.132347	-1.100974
H	-2.533577	-0.068239	-2.391922
N	-0.440982	-1.152596	0.739662
H	-1.253343	-0.913892	1.295324
H	0.309567	-1.425767	1.36234
N	-0.449005	1.291545	0.668013
O	-1.373276	1.226074	1.487886
O	0.090485	2.331795	0.311025
Cl	3.330275	0.0	0.0
