16

C	-0.560341	-0.076687	-1.425552
C	0.0	0.0	0.0
Br	0.261274	1.229642	-2.623458
H	1.090789	0.0	0.0
H	-0.226764	-1.0417	-1.812748
C	-2.072138	0.062543	-1.532143
H	-2.384482	1.075509	-1.279516
H	-2.395516	-0.154275	-2.55205
H	-2.584093	-0.624121	-0.852079
N	-0.390798	-1.10525	0.825164
H	0.354921	-1.788019	0.834678
H	-1.27707	-1.522676	0.581024
N	-0.512782	1.274635	0.625725
O	0.146195	2.296712	0.468105
O	-1.602706	1.219022	1.198724
Cl	3.339673	0.0	0.0
