15

C	-0.290491	0.018189	-1.512874
C	0.0	0.0	0.0
Cl	0.06245	-1.678471	-2.154801
H	1.097	0.0	0.0
N	-1.689624	0.232179	-1.806947
H	-1.888113	1.203283	-1.581473
H	-1.847509	0.102722	-2.800396
N	0.597364	0.986631	-2.047503
H	0.617755	0.945271	-3.060072
H	1.540978	0.822614	-1.664197
C	-0.554565	-1.13158	0.715604
N	-0.943377	-2.04778	1.341324
C	-0.453318	1.249765	0.589405
N	-0.803907	2.264335	1.070385
H	2.56882	0.0	0.0
