15

C	-0.286811	-0.020928	-1.515198
C	0.0	0.0	0.0
Cl	0.040468	1.684884	-2.153184
H	1.096977	0.0	0.0
N	0.615877	-0.974232	-2.046576
H	1.555779	-0.803186	-1.657874
H	0.636646	-0.935941	-3.05869
N	-1.680561	-0.255788	-1.815306
H	-1.8602	-1.234932	-1.612905
H	-1.841891	-0.102421	-2.80491
C	-0.453703	-1.250218	0.588321
N	-0.806501	-2.26753	1.061763
C	-0.558529	1.13098	0.713143
N	-0.959315	2.044776	1.334759
H	2.573907	0.0	0.0
