15

C	-0.156575	-0.00135	-1.520648
C	0.0	0.0	0.0
Cl	-1.892397	-0.017344	-2.065137
H	1.100023	0.0	0.0
N	0.419224	1.243863	-1.967768
H	1.379637	1.244354	-1.610278
H	0.44941	1.252161	-2.982066
N	0.441157	-1.237225	-1.966905
H	0.464379	-1.252254	-2.980456
H	1.403101	-1.218281	-1.615204
C	-0.501441	-1.199623	0.642769
N	-0.879382	-2.147537	1.226197
C	-0.504188	1.1996	0.640736
N	-0.887123	2.146274	1.222962
H	2.575658	0.0	0.0
