15

C	-0.135026	-0.006275	-1.523633
C	0.0	0.0	0.0
Cl	-1.860269	-0.006643	-2.100276
H	1.1	0.0	0.0
N	0.464259	1.230932	-1.96484
H	0.512274	1.233481	-2.978729
H	1.420181	1.216148	-1.592216
N	0.463648	-1.248246	-1.954998
H	1.419755	-1.233928	-1.580998
H	0.513321	-1.258593	-2.968642
C	-0.506546	-1.198477	0.639523
N	-0.876236	-2.158137	1.208728
C	-0.506294	1.204018	0.629874
N	-0.875932	2.168424	1.191299
H	2.574076	0.0	0.0
