15

C	-0.264699	0.052152	-1.512293
C	0.0	0.0	0.0
Cl	0.210465	-1.735614	-2.136049
H	1.09524	0.0	0.0
N	-1.61886	0.27596	-1.856041
H	-1.722653	0.318766	-2.862547
H	-2.183268	-0.488879	-1.5093
N	0.619381	0.992959	-2.043535
H	1.551702	0.827354	-1.637891
H	0.660118	0.949797	-3.052085
C	-0.576862	-1.140265	0.679842
N	-1.040008	-2.067867	1.235255
C	-0.437702	1.238533	0.627999
N	-0.758172	2.224958	1.181643
H	2.552861	0.0	0.0
