15

C	-0.223928	0.054329	-1.511488
C	0.0	0.0	0.0
Cl	-2.010134	0.636666	-1.89601
H	1.09976	0.0	0.0
N	0.649905	1.055421	-1.999136
H	0.695268	1.047127	-3.011058
H	1.578306	0.860538	-1.586263
N	-0.040994	-1.241752	-2.066725
H	-0.071163	-1.192906	-3.077629
H	-0.753667	-1.88773	-1.746172
C	-0.529368	-1.196775	0.61636
N	-0.929385	-2.194224	1.094912
C	-0.435802	1.19973	0.689398
N	-0.738166	2.156879	1.300749
H	2.532179	0.0	0.0
