15

C	-0.271448	0.305351	-1.487832
C	0.0	0.0	0.0
Cl	0.06504	-1.25316	-2.430699
H	1.100731	0.0	0.0
N	-1.661649	0.593954	-1.75614
H	-1.842557	1.523801	-1.386878
H	-1.814103	0.614865	-2.758593
N	0.637515	1.339461	-1.819746
H	1.572093	1.095171	-1.45637
H	0.674498	1.488576	-2.820558
C	-0.562051	-1.24539	0.480376
N	-0.970095	-2.25727	0.917577
C	-0.460387	1.118884	0.805575
N	-0.823999	2.033665	1.449015
H	2.571045	0.0	0.0
