15

C	-0.276125	-0.265663	-1.494598
C	0.0	0.0	0.0
Cl	0.040331	1.319135	-2.394142
H	1.100477	0.0	0.0
N	0.637279	-1.283566	-1.859565
H	1.570284	-1.046947	-1.49081
H	0.670835	-1.401685	-2.864342
N	-1.665308	-0.560611	-1.761736
H	-1.828804	-1.504976	-1.425734
H	-1.826508	-0.547464	-2.763327
C	-0.452158	-1.140878	0.778819
N	-0.802151	-2.069258	1.410283
C	-0.561463	1.230914	0.517872
N	-0.96647	2.228902	0.990117
H	2.569557	0.0	0.0
