15

C	-0.516161	-0.002337	-1.446968
C	0.0	0.0	0.0
Cl	0.420093	-1.297115	-2.345057
H	1.100589	0.0	0.0
N	-1.927504	-0.275925	-1.489266
H	-2.13748	-1.142939	-1.005848
H	-2.21779	-0.374144	-2.457118
N	-0.184866	1.247694	-2.079388
H	-0.218711	1.149248	-3.086055
H	-0.866925	1.936311	-1.780334
C	-0.449098	-1.179359	0.71707
N	-0.778337	-2.164066	1.27191
C	-0.450445	1.204562	0.671503
N	-0.760758	2.211733	1.195438
H	2.497857	0.0	0.0
