15

C	-0.517192	0.000127	-1.445708
C	0.0	0.0	0.0
Cl	0.358671	1.347626	-2.32677
H	1.101539	0.0	0.0
N	-0.130691	-1.2224	-2.095991
H	-0.283631	-1.140702	-3.094764
H	-0.712906	-1.968026	-1.727339
N	-1.940747	0.213024	-1.480076
H	-2.182525	1.07201	-0.996966
H	-2.237624	0.303442	-2.446884
C	-0.440684	-1.21232	0.666324
N	-0.741967	-2.229018	1.177777
C	-0.459959	1.172211	0.721341
N	-0.794393	2.148022	1.289047
H	2.500806	0.0	0.0
