15

C	-0.135371	-0.024517	-1.535916
C	0.0	0.0	0.0
Cl	-1.887679	-0.01768	-2.043672
H	1.101791	0.0	0.0
N	0.502349	1.166249	-2.000329
H	1.42983	1.181001	-1.560602
H	0.626071	1.072975	-3.003794
N	0.458911	-1.214174	-2.100418
H	-0.025078	-2.04234	-1.767524
H	1.415385	-1.233989	-1.733325
C	-0.489507	-1.213236	0.618614
N	-0.842619	-2.226509	1.1003
C	-0.518876	1.193075	0.636512
N	-0.908658	2.153386	1.192006
H	2.560528	0.0	0.0
