17

C	0.0	0.0	0.0
C	-0.506212	-0.022282	-1.560448
Br	1.924956	0.0	0.0
H	-1.589201	-0.128354	-1.589485
N	-0.396182	1.441183	0.40982
O	-1.723848	1.481868	0.927106
O	0.430053	2.320132	0.833765
N	-0.272399	-1.106463	0.987493
H	0.116723	-1.999255	0.689962
H	-1.296451	-1.183736	0.984779
N	-0.046059	-1.283691	-2.141566
O	0.84567	-1.269136	-3.001464
O	-0.579592	-2.324278	-1.696808
N	-0.147799	1.105039	-2.343481
H	-0.768939	1.87023	-2.082111
H	0.807639	1.391981	-2.17835
H	-1.87168	0.0	0.0
