13

C	-0.597427	-0.037408	-1.392642
C	0.0	0.0	0.0
Cl	0.021958	1.241371	-2.437596
H	1.096577	0.0	0.0
H	-1.680644	0.060695	-1.354058
H	-0.366115	-0.89159	0.518253
N	-0.359097	-1.39572	-2.01201
O	0.581868	-1.581954	-2.766771
O	-1.164014	-2.25136	-1.641364
N	-0.526378	1.20708	0.666125
H	0.184797	1.923784	0.540258
H	-0.531689	1.017966	1.661666
H	2.953727	0.0	0.0
