13

C	-0.47599	-0.017809	-1.421932
C	0.0	0.0	0.0
Cl	-0.242689	-1.59412	-2.210651
H	1.092513	0.0	0.0
H	0.017233	0.741949	-2.02322
H	-0.375055	-0.877614	0.533418
N	-1.95114	0.298313	-1.51073
O	-2.691965	-0.200672	-0.667689
O	-2.31539	1.024174	-2.434033
N	-0.42637	1.280175	0.570962
H	-1.180387	1.148642	1.230999
H	0.371202	1.672985	1.058335
H	2.907691	0.0	0.0
