13

C	-0.459228	-0.092427	-1.424427
C	0.0	0.0	0.0
Cl	-2.247109	-0.143612	-1.596109
H	1.094751	0.0	0.0
H	-0.065783	-0.975919	-1.918051
H	-0.365691	0.929547	0.446313
N	0.009761	1.08304	-2.232873
O	-0.174213	2.201595	-1.763735
O	0.530518	0.836725	-3.318179
N	-0.408681	-1.2199	0.69719
H	-1.178844	-1.038077	1.325835
H	0.389302	-1.52417	1.244535
H	2.875072	0.0	0.0
