13

C	-0.633746	-0.007986	-1.365283
C	0.0	0.0	0.0
Cl	-0.040962	1.306297	-2.404979
H	1.094089	0.0	0.0
H	-1.71908	0.071171	-1.323102
H	-0.325417	0.931997	0.475813
N	-0.405418	-1.310579	-2.096201
O	0.5589	-1.994937	-1.782888
O	-1.226155	-1.582229	-2.973256
N	-0.549759	-1.161362	0.725455
H	-0.725497	-0.890773	1.684362
H	0.198557	-1.847026	0.756671
H	2.987861	0.0	0.0
