13

C	-0.457374	-0.098463	-1.425485
C	0.0	0.0	0.0
Cl	-2.243819	-0.140734	-1.603342
H	1.094725	0.0	0.0
H	-0.066238	-0.986285	-1.912802
H	-0.366291	0.931776	0.44108
N	0.022557	1.070726	-2.237692
O	0.558982	0.816428	-3.313958
O	-0.16601	2.192672	-1.778802
N	-0.410051	-1.216257	0.702622
H	-1.175683	-1.031051	1.335979
H	0.389915	-1.521362	1.245978
H	2.873485	0.0	0.0
