13

C	-0.374204	-0.057486	-1.471118
C	0.0	0.0	0.0
Cl	-0.002912	-1.631759	-2.180327
H	1.093076	0.0	0.0
H	0.142899	0.713697	-2.039672
H	-0.411031	-0.879103	0.504456
N	-1.841348	0.22612	-1.639492
O	-2.655712	-0.659936	-1.402243
O	-2.128181	1.399525	-1.89992
N	-0.38366	1.235986	0.664511
H	0.376976	1.896118	0.556198
H	-1.229984	1.65177	0.297991
H	2.841435	0.0	0.0
