13

C	-0.459212	-0.06006	-1.426247
C	0.0	0.0	0.0
Cl	-2.248369	-0.083334	-1.599703
H	1.095375	0.0	0.0
H	-0.077759	-0.940003	-1.935713
H	-0.363998	0.92061	0.465831
N	0.028021	1.123976	-2.21162
O	0.558187	0.890376	-3.295417
O	-0.149519	2.2363	-1.725546
N	-0.411504	-1.23311	0.671136
H	-1.1765	-1.062024	1.308578
H	0.38776	-1.555166	1.206008
H	2.87309	0.0	0.0
