13

C	-0.596934	-0.008953	-1.382671
C	0.0	0.0	0.0
Cl	0.032032	1.304137	-2.402075
H	1.094172	0.0	0.0
H	-1.682991	0.069117	-1.37918
H	-0.335092	0.929643	0.472289
N	-0.339173	-1.31208	-2.103766
O	0.629384	-1.982039	-1.771213
O	-1.140628	-1.597754	-2.994806
N	-0.558911	-1.165865	0.710114
H	0.181924	-1.859688	0.727414
H	-0.725704	-0.906506	1.673796
H	2.990741	0.0	0.0
