18

C	0.0	0.0	0.0
C	-0.578905	0.364717	-1.395176
Cl	1.783598	0.0	0.0
H	0.238958	0.739868	-2.018467
N	-0.253069	1.114738	1.073813
O	0.354931	2.167649	0.925771
O	-0.967228	0.835461	2.024762
C	-0.466161	-1.314567	0.577141
H	0.013179	-1.466984	1.545225
H	-0.190732	-2.11284	-0.109295
H	-1.552464	-1.215735	0.670325
N	-1.584874	1.569818	-1.495578
O	-1.599059	2.485657	-0.696614
O	-2.216105	1.55454	-2.549671
N	-1.185242	-0.792903	-1.951603
H	-2.040987	-0.846231	-1.360748
H	-1.463264	-0.563066	-2.897769
F	-2.763009	0.0	0.0
