18

C	0.0	0.0	0.0
C	-0.276147	0.107718	-1.543717
Cl	1.795923	0.0	0.0
H	0.266849	0.990176	-1.877977
N	-0.419916	1.236811	0.746067
O	-0.404262	2.287911	0.114311
O	-0.619815	1.130009	1.948303
C	-0.410117	-1.272219	0.704648
H	0.004003	-2.124264	0.161807
H	-1.503857	-1.251073	0.697714
H	0.000699	-1.268736	1.714138
N	-1.688893	0.372183	-2.058555
O	-1.990589	1.550107	-2.199021
O	-2.31866	-0.578316	-2.498594
N	0.160644	-1.051155	-2.291579
H	-0.537019	-1.776618	-2.170512
H	1.053389	-1.370405	-1.943921
F	-2.492605	0.0	0.0
