18

C	0.0	0.0	0.0
C	-0.33119	0.191391	-1.505212
Cl	1.78146	0.0	0.0
H	0.289805	1.015745	-1.856783
N	-0.40241	1.204101	0.821223
O	-0.722686	1.021971	1.986629
O	-0.264009	2.296554	0.280366
C	-0.441109	-1.296628	0.63605
H	-1.535976	-1.258378	0.610903
H	-0.057876	-1.340326	1.655181
H	-0.013812	-2.1184	0.061157
N	-1.743016	0.661422	-1.945275
O	-1.978709	1.856569	-1.846758
O	-2.395342	-0.129734	-2.619893
N	0.013613	-1.020581	-2.185501
H	0.167822	-0.80795	-3.163285
H	-0.808062	-1.61744	-2.152337
F	-2.57874	0.0	0.0
