18

C	0.0	0.0	0.0
C	-0.574746	-0.282531	-1.41504
Cl	1.792107	0.0	0.0
H	0.25463	-0.303307	-2.127756
N	-0.259966	1.466751	0.478232
O	0.360512	2.351101	-0.098423
O	-1.008628	1.62696	1.42884
C	-0.474262	-0.934003	1.084219
H	-1.560429	-0.807166	1.128498
H	-0.207439	-1.952277	0.810028
H	0.001474	-0.660537	2.026855
N	-1.482837	0.82441	-2.07764
O	-1.660132	1.940854	-1.630203
O	-1.931447	0.424915	-3.155384
N	-1.285747	-1.50837	-1.39486
H	-1.551437	-1.725297	-2.347142
H	-2.138141	-1.227282	-0.845752
F	-2.837224	0.0	0.0
