18

C	0.0	0.0	0.0
C	-0.62011	0.087731	-1.395716
Cl	1.774025	0.0	0.0
H	-1.721697	0.157897	-1.121585
N	-0.410308	1.255288	0.806115
O	-0.375034	2.338592	0.241325
O	-0.669512	1.088123	1.991549
C	-0.478319	-1.217146	0.760476
H	-1.573981	-1.168344	0.708751
H	-0.083941	-2.119476	0.293951
H	-0.118363	-1.165286	1.785389
N	-0.427616	-1.295626	-2.050795
O	0.560067	-1.439632	-2.780335
O	-1.270566	-2.166609	-1.860029
N	-0.088451	1.099185	-2.23339
H	0.830148	0.835917	-2.56822
H	-0.705827	1.246775	-3.019537
F	-2.84284	0.0	0.0
