18

C	0.0	0.0	0.0
C	-0.385979	0.270389	-1.528599
Cl	1.790344	0.0	0.0
H	0.427958	-0.219595	-2.065779
N	-0.427654	1.058439	1.002728
O	-0.42388	2.224976	0.629919
O	-0.663979	0.67723	2.142345
C	-0.550595	-1.335334	0.417454
H	-0.249295	-2.087374	-0.316023
H	-1.642367	-1.199173	0.427686
H	-0.16784	-1.615381	1.397646
N	-0.179556	1.742069	-1.903972
O	0.982198	2.099311	-2.109898
O	-1.167148	2.449681	-2.023659
N	-1.632526	-0.147237	-2.021907
H	-1.574379	-1.131431	-2.245676
H	-2.382435	-0.010547	-1.259017
F	-3.047524	0.0	0.0
