15

C	0.0	0.0	0.0
C	-0.604454	0.02093	-1.391593
Cl	1.776979	0.0	0.0
H	-0.309699	-0.865401	-1.95262
H	-1.721789	0.00301	-1.11228
C	-0.482847	1.154605	0.84881
H	-0.138726	2.085726	0.39413
H	-0.081603	1.076171	1.857317
H	-1.576713	1.070351	0.829684
N	-0.401663	-1.325244	0.651688
O	-0.49382	-2.304065	-0.080343
O	-0.514973	-1.340999	1.869864
C	-0.226874	1.216197	-2.116724
N	0.085576	2.174098	-2.720887
F	-2.832799	0.0	0.0
