15

C	0.0	0.0	0.0
C	-0.626605	-0.06466	-1.376019
Cl	1.789019	0.0	0.0
H	-1.745898	-0.075039	-1.067014
H	-0.328573	-0.976117	-1.89613
C	-0.477131	1.196091	0.792231
H	-0.158257	2.101988	0.271858
H	-1.570015	1.105533	0.801581
H	-0.051259	1.184813	1.794087
N	-0.385901	-1.289308	0.732085
O	-0.492823	-1.233966	1.950199
O	-0.484002	-2.308661	0.05897
C	-0.289091	1.094826	-2.176668
N	-0.042031	2.030477	-2.845312
F	-2.852284	0.0	0.0
