15

C	0.0	0.0	0.0
C	-0.626689	-0.089514	-1.37477
Cl	1.776536	0.0	0.0
H	-1.731216	-0.204122	-1.082453
H	-0.515284	0.889936	-1.849064
C	-0.499635	1.228484	0.728459
H	-0.151269	2.114452	0.19169
H	-0.112675	1.24731	1.745454
H	-1.594597	1.137172	0.698251
N	-0.386447	-1.245246	0.806703
O	-0.632726	-2.26706	0.180836
O	-0.353797	-1.150474	2.027881
C	-0.096492	-1.100072	-2.269549
N	0.315908	-1.865106	-3.060648
F	-2.862255	0.0	0.0
