15

C	0.0	0.0	0.0
C	-0.61779	-0.206703	-1.366481
Cl	1.78825	0.0	0.0
H	-1.734974	-0.168188	-1.073501
H	-0.344587	-1.180697	-1.77208
C	-0.482465	1.26874	0.662769
H	-1.575202	1.170104	0.680926
H	-0.170615	2.116782	0.049139
H	-0.055656	1.36607	1.659366
N	-0.384957	-1.208758	0.858542
O	-0.465013	-2.294393	0.294759
O	-0.506009	-1.028804	2.062902
C	-0.250372	0.848091	-2.28859
N	0.024137	1.698015	-3.053333
F	-2.846168	0.0	0.0
