15

C	0.0	0.0	0.0
C	-0.616922	0.136168	-1.377364
Cl	1.776319	0.0	0.0
H	-1.733005	0.105565	-1.088833
H	-0.345074	-0.710114	-2.008069
C	-0.487478	1.067954	0.951537
H	-0.172587	2.040486	0.566673
H	-0.064906	0.917163	1.943353
H	-1.580376	0.967997	0.940354
N	-0.392057	-1.381218	0.535679
O	-0.505231	-1.502793	1.748046
O	-0.483583	-2.293854	-0.277496
C	-0.238845	1.381448	-2.013595
N	0.048744	2.388636	-2.547777
F	-2.848407	0.0	0.0
