15

C	0.0	0.0	0.0
C	-0.621571	0.266347	-1.355661
Cl	1.775725	0.0	0.0
H	-1.738615	0.201256	-1.066754
H	-0.346723	-0.512747	-2.066968
C	-0.487233	0.969782	1.051734
H	-1.579464	0.867349	1.036813
H	-0.057765	0.728567	2.022335
H	-0.180316	1.976339	0.758412
N	-0.388934	-1.427548	0.401552
O	-0.495426	-1.665159	1.597569
O	-0.482616	-2.257275	-0.495923
C	-0.255032	1.571099	-1.865075
N	0.030629	2.63463	-2.277184
F	-2.852156	0.0	0.0
