15

C	0.0	0.0	0.0
C	-0.615409	-0.120267	-1.377115
Cl	1.786099	0.0	0.0
H	-0.340678	-1.067439	-1.841799
H	-1.733324	-0.097932	-1.082268
C	-0.480423	1.225167	0.741768
H	-0.048298	1.260123	1.74024
H	-0.170802	2.109698	0.181425
H	-1.572595	1.126426	0.758477
N	-0.381119	-1.260609	0.781296
O	-0.472088	-1.161079	1.997906
O	-0.481335	-2.304686	0.147165
C	-0.237178	0.985779	-2.231618
N	0.057532	1.874089	-2.943683
F	-2.838166	0.0	0.0
