15

C	0.0	0.0	0.0
C	-0.624002	0.046357	-1.376973
Cl	1.787095	0.0	0.0
H	-0.514482	1.068087	-1.75184
H	-1.728782	-0.097016	-1.095997
C	-0.494823	1.152286	0.845445
H	-0.145026	2.085533	0.39761
H	-0.107512	1.070653	1.858965
H	-1.589923	1.066381	0.807218
N	-0.383639	-1.317778	0.680987
O	-0.620811	-2.275829	-0.04223
O	-0.360135	-1.340502	1.905696
C	-0.096385	-0.872052	-2.367114
N	0.307432	-1.559642	-3.230533
F	-2.856506	0.0	0.0
