13
Coordinates from ORCA-job run
  C   0.77640099026693      0.31124591181589      0.34100312025410
  C   -0.58718755351168     -0.35212013031625      0.14525923920289
  Cl  0.77759209617391      1.87131247700529     -0.59527337764138
  H   -0.63148051496545     -1.21401801727158      0.81721847884797
  H   0.86158081589887      0.60159536520378      1.38702428155662
  N   1.79352463424833     -0.60857538494003     -0.00590244035365
  H   2.70437785081890     -0.27767957021942      0.28273501702398
  H   1.81122382234487     -0.79697099789335     -1.00158664558773
  C   -0.79449060857665     -0.77524714294718     -1.23191950005666
  N   -0.88030035629844     -1.16090828825569     -2.33752199718974
  N   -1.68477028356437      0.57914063298417      0.60794161114105
  O   -2.57800777901429      0.86549049527232     -0.17633621681045
  O   -1.56946311382094      0.95573464956206      1.76835842961298
