13
Coordinates from ORCA-job run
  C   0.87470769027288     -0.27604654040399      0.00636766129993
  C   -0.60519060083253     -0.16619820165408      0.38299249974725
  Cl  1.67063357956499     -1.20602294397987      1.35722499628289
  H   -0.72124940793968      0.38992855460455      1.31555333391142
  H   0.97460863359253     -0.89999902718192     -0.88071803479858
  N   1.39768839258943      1.01048874051926     -0.24072953038508
  H   2.30797639365559      0.97395838232961     -0.67792385101758
  H   1.44489222536090      1.57889332883175      0.59567702318715
  C   -1.26390912152884     -1.46259630557148      0.46983603474644
  N   -1.80025984968201     -2.50451568553860      0.53965449807004
  N   -1.27587561456393      0.65535593782238     -0.69496489925503
  O   -1.30937006579187      0.15044209375910     -1.80967789861691
  O   -1.69465225469747      1.75631166646329     -0.36329183317195
