13
Coordinates from ORCA-job run
  C   0.90823937134496     -0.12102460446796      0.48800249651409
  C   -0.60876243774171     -0.35068929654604      0.43081278944583
  Cl  1.28821023172574      0.85286658602648      1.95545656597183
  H   -0.97393381698400     -0.62856032001607      1.41985318599415
  H   1.35660362150518     -1.09819704155541      0.69965424481528
  N   1.37812005552744      0.53302852005112     -0.68215021381024
  H   0.82679376807426      0.34890989209533     -1.50825624014225
  H   2.35827155721368      0.36395451202301     -0.85055526343269
  C   -0.92432928395374     -1.38019229065596     -0.55337310898264
  N   -1.13487874834397     -2.23999663466922     -1.32514128168562
  N   -1.32597330721658      0.92887211578868      0.06271693986307
  O   -1.75385904649463      1.59412072929216      0.99636798628593
  O   -1.39550196465663      1.19690783263387     -1.13238810083676
