13
Coordinates from ORCA-job run
  C   0.86493216499759     -0.17975177673072      0.49618884883007
  C   -0.63285233738759     -0.43919538276669      0.30454373731889
  Cl  0.98352377938509      0.98076267297828      1.92092838964667
  H   -1.05452356470957     -0.84388043546151      1.22526124615286
  H   1.30332706330401     -1.10284829647890      0.87726583163849
  N   1.51987705140194      0.21143815776342     -0.67935360881309
  H   2.52224143825202      0.25451956145528     -0.56540684167467
  H   1.15864748190569      1.07098131101858     -1.06840982300347
  C   -0.87757272208136     -1.33984646824039     -0.81674796128882
  N   -1.06087007371094     -2.08752354569333     -1.70317474642796
  N   -1.39135701487481      0.84841854841771      0.06381919625390
  O   -0.99279296146983      1.55853265792679     -0.85379372430886
  O   -2.34258030501224      1.06839299581147      0.80087945567598
