13
Coordinates from ORCA-job run
  C   0.88009042854624     -0.25651891425106      0.02657355054039
  C   -0.61675355435099     -0.20494374652694      0.34420782579114
  Cl  1.64102463945552     -1.25585732783849      1.34777076099483
  H   -0.78649465332194      0.28436201887902      1.30561516559049
  H   1.03292430463007     -0.81811441686875     -0.89389379167281
  N   1.38087268542692      1.05459375596301     -0.11304954836698
  H   1.37821402012716      1.56779857433835      0.75940874405305
  H   2.30968743341524      1.06715888989334     -0.51119341854520
  C   -1.24556670575006     -1.51873418993301      0.31659293931113
  N   -1.75859859562882     -2.57440674550535      0.29423633114665
  N   -1.26133073130777      0.67211482194631     -0.70521712802281
  O   -1.72091153872049      1.73871779923146     -0.31942762957669
  O   -1.23315773252107      0.24382948067210     -1.85162380124319
