13
Coordinates from ORCA-job run
  C   0.85395381094534     -0.25169074332430     -0.22056603539757
  C   -0.52426290535658     -0.25860387571994      0.44615797523319
  Cl  1.87450348645730     -1.43381913651162      0.71946609406763
  H   -0.44946565555804      0.07938787037548      1.48178861293542
  H   0.76931805523871     -0.66678266474253     -1.22399109012544
  N   1.34594847479098      1.06907965850995     -0.27866357564672
  H   1.56354367257516      1.44443537677577      0.63609109507806
  H   2.15487870698946      1.14779605720496     -0.87899049662158
  C   -1.18050275286152     -1.55717707368611      0.37396197020093
  N   -1.71544338650526     -2.60067898184803      0.31813737590070
  N   -1.37115433072040      0.76242193313581     -0.27977019379930
  O   -1.62522290293680      0.51206951820484     -1.45078007388544
  O   -1.69609427305835      1.75556206162572      0.35715834206013
