13
Coordinates from ORCA-job run
  C   0.76485833373402      0.39433582087989      0.27516334663521
  C   -0.58069510657994     -0.32839116317085      0.21128842865293
  Cl  0.74276571367963      1.72505063897537     -0.96626960713374
  H   -0.61603007187910     -1.03173260123967      1.04821277681980
  H   0.83029299717020      0.89891963892675      1.23781678033323
  N   1.80693189637469     -0.55146091221980      0.13550358834978
  H   1.84083865433642     -0.94422788536124     -0.79813253928303
  H   2.70654489745769     -0.14524009935843      0.35498581476765
  C   -0.75991056731279     -1.03564932967858     -1.04834039697042
  N   -0.82181111333801     -1.64698909612150     -2.04880031816954
  N   -1.70508774285202      0.65236469964019      0.45854773382142
  O   -1.61321430903523      1.26748298069913      1.51435139870532
  O   -2.59448358175558      0.74453730802873     -0.37532700652862
