13
Coordinates from ORCA-job run
  C   0.83442593611796      0.35579354295177      0.33772228344233
  C   -0.54591244212329     -0.29619054545413      0.09405841453216
  Cl  0.80798949510456      1.97403789487063     -0.40592364333553
  H   -0.57377273878194     -1.23984102236886      0.64804085270066
  H   0.93817403643133      0.49589029531138      1.41433710129819
  N   1.94016006747256     -0.39268800479645     -0.16133544710137
  H   1.85301293905559     -0.60754991029463     -1.14666642908812
  H   2.10618021856297     -1.23151540840730      0.37830998551779
  C   -0.79154760197030     -0.53866792534346     -1.31908996345407
  N   -0.90764895251019     -0.78062715287338     -2.46219646579607
  N   -1.63519479961070      0.54914357369936      0.71160528814864
  O   -2.50961424020353      1.00397096904286     -0.01217011783469
  O   -1.51825191754503      0.70724369366222      1.92230814097007
