13
Coordinates from ORCA-job run
  C   0.85222333712809     -0.19521642068170      0.51537380725258
  C   -0.64591896183349     -0.42425584028615      0.29155853009339
  Cl  0.96637773200329      0.97132758152149      1.93388328754419
  H   -1.09658306902225     -0.81653049385284      1.20387856972220
  H   1.26252107422709     -1.12535597810222      0.91053545122730
  N   1.54043240848766      0.17374096532754     -0.64940017307473
  H   1.20532594230892      1.03906180893671     -1.04931819740310
  H   2.54051531441604      0.20016014447099     -0.51114198844283
  C   -0.88613376677596     -1.32358959436681     -0.83174494071702
  N   -1.09520163459826     -2.07585625373524     -1.70854798077274
  N   -1.37153817971903      0.87839655497918      0.02982001923929
  O   -2.32994212353687      1.12382057145465      0.74937156747882
  O   -0.94107807308524      1.57429695433442     -0.88426795214734
