13
Coordinates from ORCA-job run
  C   0.94658990024854     -0.31675067042754     -0.10743153149714
  C   -0.49983717862136     -0.30461893605952      0.44281023464289
  Cl  1.85562435970237     -1.42132569633810      0.96910123786523
  H   -0.50202337107003      0.01734057081372      1.48568274389917
  H   0.93444151844663     -0.76934813417015     -1.09938624700414
  N   1.57048972426535      0.95470064146815     -0.17934643195230
  H   1.32496361002669      1.46451429612764     -1.01567070278670
  H   1.44990683466929      1.52048136269549      0.64939995125523
  C   -1.17928169360486     -1.58230043993194      0.28636346231400
  N   -1.71655984455054     -2.61834497936847      0.15677831405500
  N   -1.23887582625940      0.75288463386534     -0.33367091472195
  O   -1.41567011323007      0.52542358914472     -1.52602161364710
  O   -1.53076792002260      1.77834376218065      0.27239149757780
