13
Coordinates from ORCA-job run
  C   0.94359620157440     -0.09223080334315      0.50287157763964
  C   -0.58853349861067     -0.34549687424801      0.44326446779945
  Cl  1.19433933068736      1.14996633994858      1.76887253334462
  H   -0.95634711943610     -0.67480125945499      1.41618560797288
  H   1.38283345902944     -1.01584808187164      0.88615824211237
  N   1.60191407479098      0.26648288292831     -0.70074164686484
  H   1.10972264310192      0.98858737059291     -1.20872595086122
  H   1.76417435568147     -0.53671546992020     -1.29264671719790
  C   -0.87948465063101     -1.32665515960284     -0.59350480973166
  N   -1.04898235170868     -2.14052474089364     -1.42311539322367
  N   -1.33318208683096      0.92918555211037      0.13963394794879
  O   -2.10867120937284      1.33197795929271      0.99660985319246
  O   -1.08137914827533      1.46607228446161     -0.93586171213090
