13
Coordinates from ORCA-job run
  C   0.93298387823699     -0.10964024594832      0.51898688735383
  C   -0.60356368659666     -0.32767189293517      0.43702433045805
  Cl  1.19279792028534      1.13782216694621      1.77763830791212
  H   -0.99460944323949     -0.63906175608137      1.40677573062671
  H   1.34446750425716     -1.04007066895337      0.91652129295927
  N   1.61854084575318      0.22250059810142     -0.67707253334800
  H   1.77119267699358     -0.58972407659795     -1.25904393532439
  H   1.15223802968759      0.95168106839677     -1.19913367501042
  C   -0.90066039102779     -1.31139598875520     -0.59550946711886
  N   -1.07490640075503     -2.12870112986567     -1.42078629312527
  N   -1.31309190837113      0.96123104532951      0.11001864736870
  O   -1.03196931121638      1.48198797678784     -0.96610876403017
  O   -2.09241971400734      1.39004290357529      0.95068947127843
