13
Coordinates from ORCA-job run
  C   0.88181128187554     -0.23147813300087     -0.09772570435819
  C   -0.56715262079175     -0.25046891863011      0.39718791425406
  Cl  1.81572824610514     -1.30704147891914      1.03957092518252
  H   -0.63067505311671      0.15502721485948      1.40911275209524
  H   0.93466446121613     -0.71486349156781     -1.07216606997855
  N   1.33526603560093      1.10086763139088     -0.18933406514757
  H   1.42922851327565      1.54419394095968      0.71582159622647
  H   2.20779688659260      1.17192651022245     -0.69412489724498
  C   -1.16701926477724     -1.57657005677044      0.33429793901345
  N   -1.65685651946322     -2.64228223839356      0.28483275452097
  N   -1.35027070390667      0.68812393600684     -0.49250309779399
  O   -1.45201524894184      0.35377523815169     -1.66568327737179
  O   -1.78050601366855      1.70678984569091      0.03171323060236
