13
Coordinates from ORCA-job run
  C   0.82530402882306      0.12669616021418      0.49054702024853
  C   -0.57158338551908     -0.25476502858920     -0.05105799211526
  Cl  0.97978971119589      1.89834989662375      0.39088881537250
  H   -0.71445829776093     -1.32708047589493      0.11601274741137
  H   0.84429835437107     -0.14085984068485      1.54768878839453
  N   1.91421209170929     -0.49694685538765     -0.18589453589507
  H   1.89790563817098     -0.33313424696614     -1.18467400582365
  H   1.97127375096404     -1.48581568228394      0.01737814755277
  C   -0.70891720114318      0.05291838791254     -1.46624589482426
  N   -0.74124029249799      0.25028207587306     -2.62328107419060
  N   -1.64733337449852      0.41437636405734      0.77136272395513
  O   -2.42032274924852      1.18275002323747      0.21678033200624
  O   -1.62592827456611      0.11422922188837      1.96049492790777
