13
Coordinates from ORCA-job run
  C   0.95587813262609     -0.28730032666529      0.10474978319880
  C   -0.56749566729272     -0.27430826851820      0.37800191393991
  Cl  1.67202367940233     -1.22816990898236      1.44943997782729
  H   -0.76980006045227      0.16079497056893      1.35834197219745
  H   1.13611890298419     -0.84702102247413     -0.81353336967140
  N   1.55632962552797      0.99286567066756     -0.00073928872678
  H   1.26971975902470      1.64347256400562      0.71744615464016
  H   1.46354646702656      1.39337690812503     -0.92284585924716
  C   -1.17993871426432     -1.58835568257311      0.24969613060118
  N   -1.66072559482781     -2.65458069555466      0.14520599037376
  N   -1.16987044410441      0.65996679987769     -0.63797684283343
  O   -1.11933244405740      0.29409862749067     -1.80767170449707
  O   -1.58545364159290      1.73516036403222     -0.21911485780272
