13
Coordinates from ORCA-job run
  C   0.77368326627555      0.42396676695963      0.19430691458277
  C   -0.57442955248380     -0.29309071358798      0.27101040423477
  Cl  0.71563098428911      1.57171226672576     -1.21678890523155
  H   -0.58337975744114     -0.87564479809077      1.19671711150403
  H   0.86906254184601      1.05539651522739      1.07628068955795
  N   1.80935295209155     -0.53831216919317      0.15496198632771
  H   1.81473975933319     -1.05550384664485     -0.71657079492883
  H   2.71593817261736     -0.11161056536970      0.29070359606828
  C   -0.79447465598796     -1.16371449449946     -0.87451309883316
  N   -0.88935524862251     -1.90416047953031     -1.78071443475140
  N   -1.68881092054979      0.71815901386182      0.41823320294363
  O   -2.60367315963537      0.70234324854227     -0.39280044357449
  O   -1.56328438173219      1.46945925559936      1.37817377210029
