13
Coordinates from ORCA-job run
  C   0.95675220226386     -0.28726884878283     -0.09088789297274
  C   -0.50305122466266     -0.33327884601867      0.42084929205058
  Cl  1.86768863783066     -1.40620031332383      0.97095671671309
  H   -0.54147426346581     -0.04726267556525      1.47350843269164
  H   0.98206513820822     -0.70571195138641     -1.09751893556100
  N   1.54561824315673      1.00200365956160     -0.10357621635685
  H   1.32206364730649      1.52616262120190     -0.93666194796727
  H   1.37569764382451      1.54278591664962      0.73284623781643
  C   -1.14257136971437     -1.62251672296432      0.20363976481082
  N   -1.64599298555697     -2.66785184282100      0.02222313502365
  N   -1.24914996841575      0.73077374083063     -0.34014428237189
  O   -1.40071287753012      0.53343059436922     -1.54122617673078
  O   -1.56793282324480      1.73493466824935      0.28799187285431
