13
Coordinates from ORCA-job run
  C   0.77703400129604      0.31493010563325      0.33606784890938
  C   -0.60256366831735     -0.31890108189278      0.15695997413506
  Cl  0.85821215098234      1.78553654593373     -0.73291567812588
  H   -0.69610019637392     -1.11681488114960      0.89921978064893
  H   0.84330084429487      0.69460048447456      1.35447142842381
  N   1.77099881768239     -0.66374778657255      0.10243419836450
  H   1.80946012811872     -0.94107798789251     -0.87159916063864
  H   2.68452870978080     -0.33816013274234      0.38859388151806
  C   -0.78625300041664     -0.85342078447414     -1.18432828976399
  N   -0.85446240908313     -1.33050703711385     -2.25495607415140
  N   -1.67995430892557      0.68380380235257      0.50370877436684
  O   -2.54183085901315      0.92759259955291     -0.32859736785619
  O   -1.58337021002541      1.15716615389075      1.62994068416952
