13
Coordinates from ORCA-job run
  C   0.93059209731071     -0.14487524476891      0.37749367930749
  C   -0.58327704415715     -0.36734249117196      0.45551246455653
  Cl  1.29519933590088      1.19517353897916      1.58420894554242
  H   -0.86275264308216     -0.62560996096215      1.47754018373870
  H   1.40553440447257     -1.02441764479961      0.81390488105839
  N   1.39922487332387      0.05199447165059     -0.92949001034779
  H   0.99814675480586      0.86554800942790     -1.37483368530193
  H   2.40798656354289      0.07283495441402     -0.97510319146429
  C   -1.01907441893391     -1.40169465853935     -0.47642378523597
  N   -1.38021879351182     -2.25792604971505     -1.19390739392501
  N   -1.34539616677644      0.90527933810560      0.15450993185617
  O   -2.16001202745048      1.26575571720774      0.99295538890188
  O   -1.08595293544483      1.46428002017202     -0.90636740868659
