13
Coordinates from ORCA-job run
  C   0.92126339958565     -0.16284612582813      0.39347438165536
  C   -0.59609513175826     -0.36741837241432      0.43540669087618
  Cl  1.27605635515999      1.14862966883644      1.63398080344006
  H   -0.90035702498975     -0.63978381920597      1.44667991333858
  H   1.37588114492281     -1.05674072976449      0.82235050121336
  N   1.42033443947762      0.05350656614399     -0.89931281958845
  H   1.03861744995070      0.88089428018427     -1.33590099622627
  H   2.42997096710006      0.06434431151296     -0.92220957023428
  C   -1.02596057122671     -1.38145046217376     -0.52170307814238
  N   -1.38533797693283     -2.22282165202381     -1.25738851715650
  N   -1.33772102848266      0.91882107465372      0.14135995908605
  O   -1.04564220381028      1.49750040646682     -0.90034797159117
  O   -2.17100981899635      1.26936485361228      0.96561070332945
