14

C	0.0	0.0	0.0
C	-0.549112	0.181326	-1.400562
Cl	1.811021	0.0	0.0
H	-1.641828	0.351199	-1.214842
H	-0.456194	-0.790025	-1.891267
N	-0.281695	1.310881	0.829725
O	-0.443802	2.362663	0.226062
O	-0.285253	1.174151	2.048176
N	-0.599307	-1.107065	0.58071
H	-0.386177	-1.11853	1.573568
H	-1.646383	-0.887651	0.461773
C	0.05882	1.201729	-2.234901
N	0.484968	1.98917	-2.995579
H	-2.922918	0.0	0.0
