14

C	0.0	0.0	0.0
C	-0.50266	-0.004078	-1.433514
Cl	1.774146	0.0	0.0
H	-1.608762	0.092928	-1.316635
H	-0.085228	0.837463	-1.986418
N	-0.368745	1.390684	0.626847
O	-0.539096	2.344681	-0.121064
O	-0.409367	1.421001	1.850764
N	-0.53659	-1.064636	0.714867
H	-0.247099	-1.01152	1.685518
H	-1.579551	-0.910131	0.630036
C	-0.165117	-1.253028	-2.098717
N	0.073509	-2.242266	-2.685601
H	-2.88697	0.0	0.0
