14

C	0.0	0.0	0.0
C	-0.528073	0.021906	-1.444346
Cl	1.755595	0.0	0.0
H	-0.165124	0.918511	-1.951167
H	-1.634631	0.086591	-1.308121
N	-0.615427	1.227041	0.583334
O	-1.769193	0.945271	1.115822
O	-0.330041	2.307567	0.010819
N	-0.42629	-1.133211	0.769058
H	-0.140173	-1.973564	0.28045
H	-1.446321	-1.081097	0.794805
C	-0.205381	-1.185156	-2.177325
N	0.056138	-2.173334	-2.758525
H	-2.881674	0.0	0.0
