14

C	0.0	0.0	0.0
C	-0.549173	0.029856	-1.415527
Cl	1.773018	0.0	0.0
H	-1.656336	0.122569	-1.243878
H	-0.172879	0.89479	-1.965572
N	-0.313178	1.410083	0.648956
O	-0.374035	2.390848	-0.082684
O	-0.416055	1.416692	1.870216
N	-0.588846	-1.040135	0.704995
H	-1.632	-0.860311	0.573215
H	-0.358	-0.973665	1.693406
C	-0.24481	-1.205526	-2.121547
N	-0.027582	-2.187366	-2.730711
H	-2.949873	0.0	0.0
