14

C	0.0	0.0	0.0
C	-0.544636	0.276266	-1.385881
Cl	1.798007	0.0	0.0
H	-1.651154	0.326466	-1.201718
H	-0.174884	1.22579	-1.770107
N	-0.277146	1.303475	0.864175
O	-0.306045	2.391005	0.300713
O	-0.386929	1.122437	2.070404
N	-0.598539	-1.118138	0.542245
H	-0.365345	-1.201062	1.526102
H	-1.646271	-0.901822	0.439485
C	-0.225947	-0.798812	-2.307817
N	0.050255	-1.608952	-3.112388
H	-2.923595	0.0	0.0
