14

C	0.0	0.0	0.0
C	-0.244834	-0.103216	-1.502298
Cl	1.772796	0.0	0.0
H	0.215745	-1.064423	-1.76171
H	0.34734	0.712727	-1.946269
N	-0.591534	1.279774	0.507569
O	-0.590457	2.239414	-0.292097
O	-0.613688	1.416854	1.750814
N	-0.33258	-1.182497	0.74897
H	0.069554	-1.071925	1.672813
H	-1.351222	-1.129693	0.823671
C	-1.610161	-0.033858	-2.037496
N	-2.543761	-0.095223	-2.750904
H	-2.212966	0.0	0.0
