13
Coordinates from ORCA-job run
  C   0.79914045175618      0.08370470285040     -0.32805691417454
  C   -0.50829968621719     -0.06366924921707      0.41087118515399
  F   0.94661737523651     -0.89215270182044     -1.26130668713135
  H   -0.49837219960917     -1.04141754587922      0.90305472706411
  H   0.92613879219552      1.05750440500158     -0.80446264675798
  H   -0.54462333160107      0.70382425001241      1.18741973725317
  N   1.93542147767204     -0.02874246727964      0.66266351297817
  O   2.09537089538289      0.96363872937879      1.36713399658362
  O   2.56085999512974     -1.07805678586025      0.71300789934659
  C   -1.69880201686974      0.05184036893413     -0.53474810465364
  H   -1.66470984981794     -0.72277076733548     -1.30131120657806
  H   -2.63401616849094     -0.05808990543154      0.01660585807729
  H   -1.71572573476685      1.02538696664634     -1.03087135716138
