13
Coordinates from ORCA-job run
  C   0.86101966247261      0.68777592288790      0.00030705596907
  C   -0.60086398749930      0.60155729861072      0.36957514428406
  F   1.02011160872767      1.00328116864290     -1.31134398641285
  H   -1.03173782582643      1.58689782261956      0.16919027811275
  H   1.42605924505028      1.39470116481077      0.60979416336302
  H   -0.66586150639527      0.42462752618727      1.44544048990054
  N   1.50338648506912     -0.65894878154560      0.24550006474643
  O   1.81841466011300     -1.34183918735163     -0.71837364333015
  O   1.60993540818657     -0.95863009614862      1.43099022804999
  C   -1.34003901459820     -0.47903370160353     -0.41291919991472
  H   -0.99091366993063     -1.47755480179916     -0.14284499211113
  H   -1.20169752354562     -0.34892422489353     -1.48685526962271
  H   -2.40881354182381     -0.43291011041705     -0.19846033303429
