13
Coordinates from ORCA-job run
  C   0.77123729644709      0.35852947836828      0.68571881821351
  C   -0.56009272552625      0.71695035957429      0.07732985780458
  F   1.49736167207838      1.48049244215364      0.94875228127045
  H   -1.09860422584874      1.30700880748702      0.82437768063087
  H   0.70506722790574     -0.24839828993738      1.58897995797393
  H   -0.35667272708188      1.37066795427139     -0.77506563237658
  N   1.54952194909933     -0.47100053689416     -0.30339733098889
  O   1.58472564924708     -1.68067462083416     -0.08864334063855
  O   2.02945641450986      0.11850799393151     -1.26398709612209
  C   -1.37061547900501     -0.50551535544598     -0.34152167212776
  H   -1.49603974732316     -1.20641056158623      0.48686190048301
  H   -2.36256201819740     -0.19999920399399     -0.67714746850787
  H   -0.89278328630506     -1.04115846709424     -1.16325795561461
