13
Coordinates from ORCA-job run
  C   0.81599903043930      0.70275952620595      0.18904963196829
  C   -0.46098130814816      0.52211274995681     -0.59087513791847
  F   1.68454348300746      1.50218302116012     -0.49025484111308
  H   -0.91337306830762      1.51316573195095     -0.68756389772955
  H   0.67760855025656      1.09460754414783      1.19696352490465
  H   -0.17810972375933      0.19016300663594     -1.59348053870850
  N   1.47140984438259     -0.64329717996492      0.36526848781553
  O   2.02277268747527     -1.12425344469863     -0.61718432420456
  O   1.34228273253722     -1.16887906932081      1.46878231147626
  C   -1.42654137828066     -0.45863183241836      0.06668832542420
  H   -1.63333192729779     -0.18378021775727      1.10346909824864
  H   -2.37392825593336     -0.47130521830725     -0.47385205890857
  H   -1.02935066637146     -1.47484461759034      0.06398941874516
