16
Coordinates from ORCA-job run
  C   -0.60197455752350     -0.26746543399019      0.30858652960252
  C   0.80753690816961     -0.12885531261649     -0.31795616545387
  F   -0.46260593344735     -0.16057783862461      1.68732577779012
  H   0.75161130463956     -0.36680927623142     -1.38068011897833
  C   -1.61759740725383      0.75561558685628     -0.15394278514378
  H   -2.58831175871673      0.52608460739141      0.28680021487583
  H   -1.30757827458588      1.74712304902336      0.17769092845119
  H   -1.70439765283922      0.75514682492886     -1.24141721473961
  C   -1.04647121232582     -1.64069112874547      0.01142164688477
  N   -1.37975402156321     -2.73284227638929     -0.26318744028803
  N   1.83484138239136     -0.88073318240505      0.31496692790014
  H   1.74022755129161     -0.86550924414209      1.32126951423486
  H   1.86896586890881     -1.83014677317880     -0.02735501741239
  N   1.16516057265732      1.33614504417636     -0.25951065458908
  O   1.60407695333312      1.75247518752979      0.80631491109658
  O   0.93727027686416      2.00104016641733     -1.26832705423092
