16
Coordinates from ORCA-job run
  C   -0.59390956443185     -0.25802947892432      0.33103758528016
  C   0.79575569213262     -0.14161654507491     -0.34255294698239
  F   -0.40868867518279     -0.13933718165044      1.70338031776631
  H   0.70227319769380     -0.39245952719259     -1.39962943848725
  C   -1.61278038221546      0.77201976437760     -0.10836836125546
  H   -1.73657573518908      0.76084043639825     -1.19218139849078
  H   -2.57039496800521      0.55860535320270      0.36769632848083
  H   -1.28038733262690      1.76336362055532      0.20150706969973
  C   -1.06332704179245     -1.62899997141320      0.06263351221970
  N   -1.41827848977777     -2.72015511080862     -0.18725188350483
  N   1.83516666851486     -0.89631732575293      0.26643606691258
  H   1.77079498093727     -0.87244253145151      1.27488301008131
  H   1.85232306683115     -1.84856346481531     -0.06920742838473
  N   1.16884895176979      1.32031514713043     -0.31499703455923
  O   1.64285889557757      1.74665347650589      0.73160670353394
  O   0.91632073576444      1.97412333891363     -1.32499210230988
