16
Coordinates from ORCA-job run
  C   -0.68406581905116      0.23932304351417      0.35733014321586
  C   0.64647136783347      0.28851698469135     -0.40758229251042
  F   -0.86245387905056      1.47014600056795      0.97028813083291
  H   0.54848653073977      0.99900790226240     -1.22964955002340
  C   -1.84287548677092     -0.01313724318889     -0.58575972524018
  H   -1.70753143720256     -0.96210571629162     -1.10269152117552
  H   -2.77462411214754     -0.03085811356098     -0.01907111426368
  H   -1.88770015749051      0.79872856761227     -1.31450152210975
  C   -0.63591455275488     -0.79505527600593      1.40577931889589
  N   -0.63402915195286     -1.65516592139313      2.20523882288222
  N   1.00336603052618     -1.00301480967271     -0.86932002320039
  H   1.76178545083265     -0.96297220581737     -1.53726610475036
  H   1.27229128170098     -1.59981726167660     -0.09470606806416
  N   1.68268630421063      0.92612957163603      0.51572668645484
  O   1.94710432784925      2.10921495576906      0.33080470350445
  O   2.16700330272806      0.19005952155400      1.37238011555169
