16
Coordinates from ORCA-job run
  C   -0.77460369437965      0.27293899124375     -0.22894272393180
  C   0.75630304923265      0.40543076170094     -0.30341336096703
  F   -1.19135487324594      0.55744799118583     -1.53606135950144
  H   0.98070677435491      1.41976469687989     -0.65077425910892
  C   -1.32369615575140     -1.08569803973735      0.14807618285263
  H   -1.12376153050334     -1.30726704938698      1.19342424334078
  H   -0.85857316865018     -1.85494973189049     -0.46647404600127
  H   -2.40069731550526     -1.07417436095146     -0.02746842868624
  C   -1.30533642966662      1.33061598192704      0.64591716268082
  N   -1.72155322242509      2.16851102450548      1.35557323601439
  N   1.31221467729511     -0.66230005279716     -1.08312615833405
  H   0.77889508247492     -0.76016143156730     -1.93918948952931
  H   2.26970105501309     -0.44688727897605     -1.33632678653686
  N   1.36971204005427      0.35596424609954      1.07696966563134
  O   1.09397362338113     -0.59632203818682      1.79765844743106
  O   2.13707008832138      1.27708628995113      1.35315767464590
