16
Coordinates from ORCA-job run
  C   -0.75763519855567      0.37610657225331      0.35958769420080
  C   0.73635173507379      0.59095297896763      0.02872211908001
  F   -1.33774053979668      1.63262470187050      0.26133833742826
  H   1.09369563725283      1.42060760475518      0.63921658486696
  C   -1.47364068569660     -0.55649837513218     -0.59469488124565
  H   -1.42152777251861     -0.13282106171466     -1.59757364588253
  H   -2.52056081582569     -0.63167183343055     -0.29954992119685
  H   -1.02527970417166     -1.55049309230185     -0.58196568064053
  C   -0.91975876926619     -0.07287805894775      1.75358408578347
  N   -1.09152520333262     -0.44506676074877      2.85397298816130
  N   0.92556164310909      0.84846896395783     -1.35097255982734
  H   1.81171058349001      1.30481704867540     -1.52030066820600
  H   0.88315160622140     -0.00829043064556     -1.88878480583556
  N   1.51262932390445     -0.62769398179507      0.52763590424550
  O   2.02628988280329     -0.55091690555036      1.63924843739408
  O   1.55627827730887     -1.59624737021311     -0.23046398832592
