16
Coordinates from ORCA-job run
  C   -0.63310080999514     -0.24740705380174      0.39036775375203
  C   0.70867444193414     -0.29325239307584     -0.36077379852794
  F   -0.34853251668876     -0.04309590031571      1.73660425073334
  H   0.53882362711478     -0.59062984392805     -1.39696448932526
  C   -1.58738062891702      0.83824993387210     -0.06335783313100
  H   -1.16420748193905      1.81697062773277      0.16379885375381
  H   -2.52933989895689      0.72920977194808      0.47493201033203
  H   -1.77409138170570      0.77107152360545     -1.13588399362186
  C   -1.25055632518526     -1.57744237252199      0.25335062880217
  N   -1.78773499780453     -2.61154502597371      0.11175593733471
  N   1.59997389309706     -1.16605590488072      0.29668012085658
  H   2.46239406480664     -1.28967025725872     -0.21524724918151
  H   1.79650496889236     -0.84279743036391      1.23450141850096
  N   1.20949525216851      1.15240665296459     -0.47149365914622
  O   1.87110744445446      1.58575785054159      0.46697582017831
  O   0.88797034872440      1.77022982145581     -1.48424577131016
