16
Coordinates from ORCA-job run
  C   -0.71246357170129      0.36042902345005      0.45484626711184
  C   0.79174966275723      0.50083543499403      0.12885364724272
  F   -1.16900404678856      1.65732570983140      0.63918804233393
  H   1.23655750119234      1.14261758881911      0.88992968485673
  C   -1.52674911619710     -0.28024294243665     -0.64950656934135
  H   -1.44487998328089      0.33701240138704     -1.54421175773339
  H   -2.57300583270513     -0.31525585026417     -0.34424928616009
  H   -1.17914541456275     -1.29265312932260     -0.85764149643294
  C   -0.90120152665374     -0.35555846324469      1.72897153589236
  N   -1.09478639370027     -0.93363402179668      2.73265564854284
  N   0.98907670367963      1.02895191882270     -1.17026454693558
  H   0.85442334790757      0.31514743185981     -1.87546156181348
  H   1.91463667975847      1.42375233303052     -1.26848182858040
  N   1.44883836086337     -0.86440545383395      0.33263464667683
  O   1.38533082650531     -1.64793886534844     -0.61441689978492
  O   1.97962280292579     -1.07738311594747      1.41815447412489
