16
Coordinates from ORCA-job run
  C   -0.68306220955828      0.25590006662065      0.35207962254134
  C   0.65379256809169      0.27305168423118     -0.40326470885103
  F   -0.83978642523258      1.49319830468352      0.95787609837524
  H   0.57676180999988      0.98183153088157     -1.22902021041861
  C   -1.83991676900595      0.02316342276019     -0.59840322490990
  H   -1.72085106518409     -0.93089798806654     -1.10988708582107
  H   -1.86216745765666      0.83220312838888     -1.33135679206431
  H   -2.77606565158182      0.02790924004673     -0.03870600135875
  C   -0.66282285777441     -0.77462198469527      1.40530183124559
  N   -0.66527297518717     -1.63674230290837      2.20258400497728
  N   0.98668639666803     -1.02756270974808     -0.85687519234798
  H   1.23818652622280     -1.62639134333512     -0.07798769066267
  H   1.74978038941833     -1.00635452956168     -1.52018086615817
  N   1.69704351432566      0.89353350936745      0.52426228861962
  O   1.98287608868997      2.07148328585848      0.33865487765404
  O   2.16481811776459      0.15029668547641      1.38392304917939
