16
Coordinates from ORCA-job run
  C   -0.60928776545944     -0.22003192225154      0.33185126054213
  C   0.79111662884474     -0.18517282203434     -0.32797995441334
  F   -0.43436005700147     -0.06040722672324      1.70097111704253
  H   0.69938295017079     -0.46250744879064     -1.37865855045815
  C   -1.57933384537971      0.83459098996730     -0.15672008097183
  H   -1.68892183288142      0.79251913005335     -1.24129597739781
  H   -2.55108617551389      0.67661387681609      0.31229002520638
  H   -1.21034278269099      1.82128762899348      0.12528918792367
  C   -1.12970267753453     -1.58030885255371      0.10600867131242
  N   -1.52023490136046     -2.66669807708704     -0.10953638608823
  N   1.79004060322269     -0.96495548394382      0.31594889135704
  H   1.71624228698733     -0.90730805842684      1.32243972967909
  H   1.76979207328705     -1.92695631145472      0.00958468698072
  N   1.22873181812457      1.25990251908161     -0.33967311603820
  O   1.71004132022602      1.69629047953135      0.69941907606942
  O   1.01692235695871      1.89314157882271     -1.37193858074584
