16
Coordinates from ORCA-job run
  C   -0.62550490365978     -0.27939073632936      0.37859490568785
  C   0.71892185571299     -0.25729289999491     -0.36927678100601
  F   -0.35001083091925     -0.11247432488594      1.73189290452855
  H   0.56007291614432     -0.52271304738378     -1.41579091725985
  C   -1.61365040159228      0.78996625159875     -0.03993569755805
  H   -1.80032714954317      0.75029233579281     -1.11369796873873
  H   -2.55042348779498      0.63417997131357      0.49573088084665
  H   -1.22132509770903      1.77380141976646      0.21782057969720
  C   -1.19991981935371     -1.62306234218306      0.19402418450392
  N   -1.70569231585785     -2.66726718807680      0.01577871157474
  N   1.63424835014395     -1.12616413703527      0.25938083055729
  H   2.49999074730629     -1.20914509565118     -0.25485661153003
  H   1.82033046540813     -0.83125385478624      1.20855498930928
  N   1.17545324086473      1.20563566795337     -0.42532690814684
  O   0.83453690507414      1.85112231960676     -1.41412183019938
  O   1.82229952577549      1.62376566029483      0.53022872773341
