16
Coordinates from ORCA-job run
  C   -0.69977733026322      0.07972602723768     -0.46359300967692
  C   0.85195509766512      0.01246850298429     -0.51154162796606
  F   -1.09752752335934     -0.71536646563664     -1.54072002343770
  H   1.16770496645448      0.45812243384493     -1.45582237772250
  C   -1.33526129686642     -0.47414045089373      0.79251542840656
  H   -2.41769912004435     -0.48862256960609      0.65869471913127
  H   -0.99453357684969     -1.49642094270086      0.95864952462833
  H   -1.09029733327040      0.13374485759795      1.66288686924931
  C   -1.16183492927081      1.45019415712477     -0.72786069128325
  N   -1.54392242180335      2.54288495599863     -0.92705974614075
  N   1.43473425424937     -1.28133975537718     -0.36591154907444
  H   1.20148433868149     -1.70073939743455      0.52381989534136
  H   1.14795279526272     -1.88266367076983     -1.12647792989771
  N   1.39058477281349      0.90162860687667      0.57052845229201
  O   1.48215201359424      0.40254501858001      1.69032153586693
  O   1.66428529300664      2.05797869217394      0.26357053028357
