17

C	-0.321015	0.029118	-1.490094
C	0.0	0.0	0.0
F	-0.052454	-1.265866	-2.008572
H	1.105365	0.0	0.0
C	-1.759704	0.244671	-1.771235
N	-2.896318	0.426703	-2.002435
N	0.464271	1.020115	-2.120387
H	1.437395	0.908989	-1.83352
H	0.386556	0.959365	-3.127427
N	-0.598894	-1.194819	0.592751
H	-0.360736	-1.190812	1.579005
H	-0.132702	-2.00209	0.193575
C	-0.506826	1.242651	0.707437
H	-0.142392	2.14327	0.213676
H	-1.600582	1.251876	0.730861
H	-0.134908	1.248667	1.735996
Br	3.619666	0.0	0.0
