17

C	-0.52133	-0.021906	-1.438143
C	0.0	0.0	0.0
F	-0.112626	1.121692	-2.104494
H	1.099679	0.0	0.0
C	0.053187	-1.171654	-2.189508
N	0.38026	-2.133575	-2.779019
N	-1.954222	-0.06292	-1.43254
H	-2.311972	-0.390172	-2.321153
H	-2.21414	-0.716492	-0.699151
N	-0.520249	-1.21854	0.654675
H	0.130214	-1.974402	0.455357
H	-0.466218	-1.073104	1.6566
C	-0.490267	1.239668	0.727408
H	0.016839	1.302522	1.693934
H	-0.233686	2.133496	0.159737
H	-1.571382	1.215014	0.882076
Br	3.597615	0.0	0.0
