17

C	-0.538771	-0.001245	-1.429272
C	0.0	0.0	0.0
F	-1.976676	0.02567	-1.319611
H	1.094428	0.0	0.0
C	-0.229725	1.232871	-2.178073
N	-0.041723	2.218034	-2.786494
N	-0.102323	-1.131343	-2.133519
H	-0.621775	-1.266973	-2.990286
H	-0.1697	-1.928171	-1.509257
N	-0.396212	-1.286097	0.587428
H	0.321182	-1.565838	1.245432
H	-1.277036	-1.192661	1.079864
C	-0.481786	1.212809	0.784554
H	-0.151033	2.143712	0.317948
H	-0.050502	1.176429	1.786998
H	-1.572699	1.226692	0.861756
Br	3.579358	0.0	0.0
