17

C	-0.270631	0.028896	-1.518912
C	0.0	0.0	0.0
F	-0.024963	-1.280489	-2.017719
H	1.09909	0.0	0.0
C	-1.698179	0.268204	-1.832408
N	-2.845384	0.446955	-2.011307
N	0.55607	0.992188	-2.130911
H	1.512363	0.880474	-1.790802
H	0.532073	0.913744	-3.139243
N	-0.501818	-1.180781	0.672697
H	-1.501464	-1.272422	0.516626
H	-0.048693	-1.997762	0.283277
C	-0.510559	1.257398	0.678772
H	-0.152746	1.258591	1.709179
H	-0.146029	2.151987	0.173214
H	-1.606669	1.281943	0.691748
Br	3.594176	0.0	0.0
