17

C	-0.426519	-0.217298	-1.36344
C	0.0	0.0	0.0
F	-1.895775	0.240779	-1.508173
H	1.095978	0.0	0.0
C	0.130777	1.029998	-2.202
N	0.809729	2.385591	-2.885985
N	-0.230145	-1.123384	-2.107883
H	0.41388	-1.150514	-3.018467
H	0.226359	-1.929701	-1.417755
N	-0.429406	-1.219074	0.463627
H	-0.007857	-1.405558	1.493874
H	-1.470303	-1.269875	0.672574
C	-0.462887	1.215684	0.65447
H	-0.138254	1.20274	1.811376
H	-0.127962	2.171479	0.257106
H	-1.641415	1.261282	0.768079
Br	2.877106	0.0	0.0
