17

C	-0.54071	-0.007562	-1.433341
C	0.0	0.0	0.0
F	-0.062983	1.100498	-2.105112
H	1.100391	0.0	0.0
C	-0.070152	-1.220994	-2.145134
N	0.303315	-2.186167	-2.698088
N	-1.987136	0.026053	-1.541038
H	-2.283519	0.941027	-1.217119
H	-2.326487	-0.660163	-0.870508
N	-0.53604	-1.218058	0.638124
H	-0.510674	-1.08144	1.642939
H	0.116619	-1.974043	0.450481
C	-0.469354	1.234504	0.750314
H	0.073457	1.299447	1.696971
H	-0.241932	2.137454	0.181534
H	-1.542639	1.195866	0.966724
Br	3.60192	0.0	0.0
