15
Coordinates from ORCA-job run
  C   -0.47575523685637      0.27009768309968     -0.39608947639281
  C   0.92822100646330     -0.26371429073058     -0.65701888865990
  Br  -1.21679092365783      0.93686213493310     -2.07315951571863
  H   1.49552834816910      0.48015594197287     -1.22156804630626
  H   0.81330309094130     -1.14816802555943     -1.28876389316321
  N   -0.35979005422059      1.49164644977717      0.51169580202691
  O   -1.32813198284169      1.77339357608375      1.20665333667167
  O   0.69338607797012      2.12245156415424      0.46437739394224
  C   -1.41006259698232     -0.73795090365822      0.22579733712057
  H   -0.97642576863252     -1.07217113854391      1.16912284411848
  H   -1.51077640823031     -1.59025526016804     -0.44849545558961
  H   -2.39156782057253     -0.30505572933391      0.40421620927076
  N   1.52982363280196     -0.62964199367084      0.61780830091762
  H   2.10432939923061      0.12802013227553      0.96068480074594
  H   2.10470923641776     -1.45467014063142      0.52473925101623
