15
Coordinates from ORCA-job run
  C   -0.36685275456309      0.35560652953262     -0.17277549016348
  C   1.09801336273222     -0.01831588556562      0.04014727660421
  Br  -0.65982378256706      0.73279411436610     -2.07046771886439
  H   1.72783834093181      0.80465114028968     -0.30703143390987
  H   1.24188425887284     -0.10907927127404      1.12243345879569
  N   -0.64890685782938      1.67485423706838      0.53988166015759
  O   0.29903566444584      2.43749275908519      0.70650241567257
  O   -1.80565383446570      1.88909806234773      0.88436757302843
  C   -1.33744198028369     -0.69741626585834      0.29879668140258
  H   -2.36481638114582     -0.40816283937953      0.09128106287904
  H   -1.09346994792213     -1.63428424504860     -0.19765822835659
  H   -1.22004391042340     -0.82882274747550      1.37880179958200
  N   1.37419406456616     -1.30852455016402     -0.57826959039905
  H   1.54878453799766     -1.18308356252157     -1.56752350732618
  H   2.20825921965373     -1.70780747540249     -0.16848595910253
