15
Coordinates from ORCA-job run
  C   -0.31540811371057      0.36775275117285     -0.22818280762925
  C   1.08622204277954     -0.06752721828262      0.18779537888457
  Br  -0.32944267464582      0.70004406793222     -2.15585732112816
  H   1.79770455444761      0.71824539269665     -0.08179637950469
  H   1.08216385455463     -0.14396325303877      1.27957844602529
  N   -0.64613709688942      1.71122506543460      0.41371528655702
  O   0.27467383158143      2.32581092183910      0.94700776094035
  O   -1.81226990682473      2.08167011335391      0.35577314011922
  C   -1.39481274376958     -0.62289833992087      0.13407792012740
  H   -1.42729952957975     -0.72538075464264      1.22362453600124
  H   -1.14113057714503     -1.58723856262287     -0.30089000924974
  H   -2.36706536562907     -0.28489985356656     -0.21753783866663
  N   1.37810582870470     -1.38115257237711     -0.37230957295568
  H   2.13442652389852     -1.80779331618078      0.14632292075181
  H   1.68126937222754     -1.28489444179711     -1.33332146027276
