16

C	-0.371847	0.064132	-1.475474
C	0.0	0.0	0.0
Cl	-0.236193	-1.668938	-2.163267
H	1.095269	0.0	0.0
H	-0.380678	-0.922649	0.437841
N	-1.76776	0.404872	-1.697928
H	-2.001428	0.225614	-2.668661
H	-1.837136	1.407137	-1.549319
N	0.530204	0.94744	-2.128616
H	1.49287	0.757722	-1.849883
H	0.44653	0.889641	-3.135875
C	-0.497066	1.219272	0.769734
H	-0.137612	2.138956	0.302521
H	-0.099138	1.192319	1.786942
H	-1.588889	1.246163	0.828646
Br	3.68479	0.0	0.0
