16

C	-0.234817	0.026163	-1.499388
C	0.0	0.0	0.0
Cl	-2.01369	0.019747	-1.927035
H	1.099582	0.0	0.0
H	-0.350857	-0.960307	0.383128
N	0.2936	1.272687	-2.023779
H	0.263645	1.252394	-3.037747
H	1.272118	1.312831	-1.736505
N	0.308581	-1.203575	-2.042816
H	1.272035	-1.264804	-1.713803
H	0.326549	-1.143751	-3.055707
C	-0.561943	1.175156	0.776102
H	-0.18729	2.116585	0.374518
H	-0.259511	1.104311	1.824243
H	-1.654384	1.194483	0.730351
Br	3.614252	0.0	0.0
