16

C	-0.249371	0.015681	-1.49988
C	0.0	0.0	0.0
Cl	-2.050853	-0.09323	-1.844565
H	1.099233	0.0	0.0
H	-0.343412	-0.958721	0.40027
N	0.240537	1.246504	-2.050522
H	1.175592	1.394086	-1.673066
H	0.322951	1.122588	-3.05414
N	0.34067	-1.124905	-2.18523
H	1.33401	-1.102053	-1.950687
H	-0.036764	-1.982581	-1.793965
C	-0.564829	1.170547	0.784785
H	-1.657333	1.182642	0.749161
H	-0.249515	1.104341	1.829466
H	-0.202302	2.115967	0.380545
Br	3.606616	0.0	0.0
