16

C	-0.382856	0.104352	-1.464708
C	0.0	0.0	0.0
Cl	-0.173904	-1.729662	-2.23626
H	1.093257	0.0	0.0
H	-0.311684	0.962356	0.422074
N	-1.739215	0.450475	-1.683708
H	-1.927898	0.507254	-2.677105
H	-2.328904	-0.275684	-1.30444
N	0.502556	0.957072	-2.125725
H	0.419573	0.905375	-3.132139
H	1.462336	0.768449	-1.845637
C	-0.583871	-1.143321	0.808864
H	-0.289419	-1.026085	1.855399
H	-1.679873	-1.161193	0.773713
H	-0.208861	-2.104301	0.457533
Br	3.668884	0.0	0.0
