16

C	-0.378144	-0.098634	-1.466812
C	0.0	0.0	0.0
Cl	-0.19303	1.760639	-2.222176
H	1.093259	0.0	0.0
H	-0.311545	-0.965183	0.416002
N	0.525601	-0.924454	-2.133051
H	0.437739	-0.880884	-3.138903
H	1.483057	-0.722376	-1.85152
N	-1.728514	-0.461151	-1.702184
H	-2.334284	0.247962	-1.310702
H	-1.912132	-0.503243	-2.697774
C	-0.585505	1.138945	0.813812
H	-0.308695	1.005539	1.863518
H	-1.680718	1.169959	0.762032
H	-0.196058	2.099954	0.479414
Br	3.658394	0.0	0.0
