16

C	-0.429803	0.327349	-1.427175
C	0.0	0.0	0.0
Cl	-0.228831	-1.23529	-2.454619
H	1.092527	0.0	0.0
H	-0.302845	0.87873	0.584851
N	-1.817937	0.689814	-1.645883
H	-1.997431	1.503541	-1.066239
H	-2.41697	-0.06774	-1.340867
N	0.37201	1.384251	-1.898257
H	0.206982	1.54813	-2.882586
H	1.356528	1.207403	-1.714189
C	-0.569077	-1.261619	0.623686
H	-0.163117	-2.152577	0.146331
H	-1.662341	-1.300752	0.555324
H	-0.299584	-1.296088	1.682083
Br	3.665296	0.0	0.0
