11
Coordinates from ORCA-job run
  C   0.62348994373838     -0.50837819436027      0.44370441930504
  C   -0.32449132505619      0.42579987987595     -0.29710938868184
  F   0.54031897887255     -0.25617511661034      1.80129802137672
  H   -0.13147760637625      1.43175500963066      0.08856434691007
  H   0.32084185065707     -1.54586036296341      0.28300091370497
  H   -0.06250257198677      0.43035697353511     -1.36031304715343
  C   2.01713182694486     -0.31958234044155      0.00801903728706
  N   3.11217081682508     -0.15452962690689     -0.37955694288396
  N   -1.69902035648255      0.00862187980142     -0.05587510005157
  H   -2.23667163696353      0.73908203049505      0.38468400473498
  H   -2.15978992017265     -0.25009013205573     -0.91541626454804
