11
Coordinates from ORCA-job run
  C   0.76408284633637     -0.06572166828277      0.50700666121206
  C   -0.44271779129985      0.00236006863231     -0.42120542661537
  F   1.30290850868341      1.20169447249044      0.64445420849693
  H   -0.73618003349158     -1.02187942095799     -0.68012396252027
  H   0.45128945805649     -0.39781419932112      1.50007811708813
  H   -0.10027576632719      0.48345186334107     -1.34398605740028
  C   1.79893827050866     -0.96637444697241     -0.02433238089547
  N   2.58441923993578     -1.71682129316240     -0.46464844408208
  N   -1.51179555524259      0.74821237801441      0.22239379884555
  H   -1.78054982073171      1.55937811393307     -0.31384356387699
  H   -2.32911935642779      0.17451413228540      0.37520704974779
