11
Coordinates from ORCA-job run
  C   0.74781294896886      0.15181905804063      0.25902781081396
  C   -0.60703914447035     -0.34929393457517     -0.23875852369977
  F   1.14834402395227      1.21658259760970     -0.53661962562665
  H   -0.47384045345689     -0.69710324008990     -1.26664907447928
  H   0.67006042817546      0.52635054168913      1.28452215588763
  H   -0.90588917319595     -1.21218522090720      0.36281413698836
  C   1.76945405966162     -0.90287413065541      0.20240017584203
  N   2.54828916010270     -1.77941510494861      0.15680195973871
  N   -1.65895775083707      0.64690665166720     -0.21491180901110
  H   -1.37406699559581      1.46314999803861     -0.74024093063461
  H   -1.86516710330485      0.93706278413102      0.73261372418073
