15
Coordinates from ORCA-job run
  C   -0.45428571443706      0.04060716927074      0.20814971572100
  C   1.00733100875181     -0.37842970800041      0.28141840797800
  H   -0.98871002144800     -0.55213282064855      0.95851079725359
  H   1.55562762743659      0.16584184297184     -0.50932439182220
  H   1.42621915313305     -0.06075250978149      1.24184810859465
  N   -0.97411198591014     -0.37064051748260     -1.10221765164480
  H   -1.98662875736671     -0.33612523494271     -1.10162236500962
  H   -0.65418783062036      0.28619205518052     -1.80740422155213
  C   -0.63215616855264      1.52631147376997      0.50795377543025
  H   -0.07151445545971      2.13144952622139     -0.21242448552795
  H   -0.27605772379072      1.77861004731983      1.51099583609467
  H   -1.68506688798612      1.81310209457663      0.44042858183913
  N   1.09423068304719     -1.83012988396526      0.17723229972790
  H   2.05775723082926     -2.11799777778581      0.06006185265437
  H   0.58055384237356     -2.09790575670410     -0.65460625973688
