15
Coordinates from ORCA-job run
  C   -0.61769726173380      0.03675037341633      0.26447077262486
  C   0.58193680751867     -0.84353776375989      0.60399996886738
  H   -1.39029175064936     -0.15279919403233      1.02791435505948
  H   0.91065990888631     -0.61766244607910      1.62408101821332
  H   0.24461878710467     -1.89519767536423      0.60056083204912
  N   -1.07120574609223     -0.32624699774498     -1.08524753398501
  H   -1.74855289176838      0.35105372273990     -1.41563700487565
  H   -1.53775522615499     -1.22641654591433     -1.05835348067612
  C   -0.26370380804001      1.51531711521162      0.29247866184450
  H   0.12225477919990      1.79767344700551      1.27472317746973
  H   -1.14706652697630      2.12887084146745      0.08887155399218
  H   0.50191192921090      1.73199710080642     -0.45123558432719
  N   1.67340189850193     -0.57024536403499     -0.32384441978620
  H   1.31308133179257     -0.70223147670042     -1.26180710923334
  H   2.42940776920012     -1.22732513701697     -0.17897520723704
