11
Coordinates from ORCA-job run
  C   -0.26203366765699     -0.14676208333742      0.59429552144922
  C   0.61530156545795      0.13866297592881     -0.61238145806730
  F   -0.04808627926700      0.76173408630588      1.56744094241526
  H   0.40780487042430      1.15546678643330     -0.95937014631520
  H   -0.13672176767213     -1.15475934782630      0.99154895630602
  H   0.37015044212905     -0.56063611909612     -1.41412409997062
  N   -1.70465677680423     -0.05563624974976      0.14030887285951
  O   -2.04122541929611     -0.94107358704914     -0.63914239376379
  O   -2.38547569183569      0.86801916708370      0.55828740042619
  C   2.02696039394005      0.02155722916230     -0.25909552871300
  N   3.15798233058078     -0.08557285785526      0.03223193337371
