15

C	-0.498085	-0.05436	-1.449989
C	0.0	0.0	0.0
Br	-0.063928	1.642745	-2.310551
H	1.09165	0.0	0.0
H	-1.588306	-0.111646	-1.459914
C	0.15674	-1.202811	-2.196547
H	-0.178381	-2.158446	-1.783386
H	1.241881	-1.137772	-2.090025
H	-0.114474	-1.172494	-3.252933
N	-0.484492	-1.280778	0.643581
O	-1.697445	-1.365571	0.84408
O	0.340668	-2.157718	0.864324
C	-0.554077	1.113003	0.758461
N	-1.002638	2.008383	1.372159
Br	3.41869	0.0	0.0
