15

C	-0.506055	-0.072233	-1.445411
C	0.0	0.0	0.0
Br	-0.025171	1.590111	-2.346723
H	1.091657	0.0	0.0
H	-1.597313	-0.099047	-1.44971
C	0.107487	-1.25583	-2.170794
H	1.194452	-1.225519	-2.070966
H	-0.25957	-2.190965	-1.737844
H	-0.167529	-1.236269	-3.225907
N	-0.488213	-1.267795	0.664449
O	0.331476	-2.148585	0.889829
O	-1.700219	-1.340262	0.875287
C	-0.547865	1.127469	0.741594
N	-0.983011	2.040566	1.33795
Br	3.422373	0.0	0.0
