16

C	-0.254795	0.114257	-1.502485
C	0.0	0.0	0.0
Br	-2.151182	0.346745	-1.953113
H	1.103902	0.0	0.0
N	0.501522	1.202786	-1.975933
H	0.478656	1.241965	-2.985954
H	1.467894	1.082788	-1.657076
N	0.117831	-1.207888	-2.245301
O	0.585441	-1.064254	-3.370401
O	-0.111627	-2.274071	-1.68996
C	-0.567029	-1.155246	0.684962
N	-1.005054	-2.001658	1.371558
N	-0.519483	1.214578	0.652038
H	-0.114641	1.998531	0.149052
H	-0.115549	1.22916	1.583725
Cl	3.256956	0.0	0.0
