15

C	-0.499088	0.094836	-1.447081
C	0.0	0.0	0.0
Br	-0.302156	-1.626704	-2.367114
H	1.095117	0.0	0.0
H	-1.575692	0.288056	-1.447765
C	0.268234	1.163909	-2.200522
H	1.334795	0.931294	-2.179388
H	0.109726	2.11826	-1.695251
H	-0.075283	1.239182	-3.234263
C	-0.512166	-1.181218	0.702974
N	-0.987325	-2.048481	1.338404
N	-0.401482	1.239089	0.686549
H	0.361668	1.52123	1.290732
H	-1.222481	1.084457	1.258495
Cl	3.341699	0.0	0.0
