15

C	-0.45186	0.086839	-1.468331
C	0.0	0.0	0.0
Br	-0.093224	-1.59397	-2.4089
H	1.096049	0.0	0.0
H	-1.541791	0.195525	-1.513239
C	0.259649	1.218953	-2.190288
H	-0.010813	1.239328	-3.247269
H	-0.023978	2.176873	-1.745846
H	1.339726	1.089671	-2.088198
C	-0.543456	-1.193238	0.65952
N	-1.042132	-2.11352	1.192139
N	-0.402787	1.178166	0.768528
H	0.301331	1.896445	0.660479
H	-1.303538	1.532206	0.466792
Cl	3.343357	0.0	0.0
