15

C	-0.532198	0.011552	-1.438599
C	0.0	0.0	0.0
Br	0.222882	1.524374	-2.413001
H	1.093652	0.0	0.0
H	-0.148563	-0.870833	-1.95392
C	-2.046983	0.083898	-1.512648
H	-2.386631	0.065522	-2.549538
H	-2.490809	-0.766773	-0.986067
H	-2.39343	1.011534	-1.05463
C	-0.443955	-1.265046	0.61464
N	-0.866559	-2.238378	1.1215
N	-0.449185	1.16285	0.759463
H	-1.293562	0.961099	1.283561
H	0.284139	1.420756	1.4113
Cl	3.362594	0.0	0.0
