15

C	-0.291345	-0.001707	-1.501297
C	0.0	0.0	0.0
Br	-2.234191	0.150516	-1.858921
H	1.098823	0.0	0.0
H	0.12518	0.922324	-1.908117
C	0.281477	-1.212539	-2.206177
H	1.349802	-1.254493	-1.968646
H	0.151467	-1.136526	-3.28753
H	-0.197859	-2.128931	-1.85696
C	-0.504926	-1.225268	0.627997
N	-0.908366	-2.216462	1.111985
N	-0.435026	1.169177	0.74592
H	0.265929	1.891741	0.639795
H	-1.324236	1.503417	0.394326
Cl	3.308248	0.0	0.0
