15

C	-0.336815	0.025737	-1.483987
C	0.0	0.0	0.0
Br	-2.276695	0.069184	-1.80843
H	1.104485	0.0	0.0
H	0.02698	0.976476	-1.881882
C	0.300984	-1.133745	-2.223835
H	0.143014	-1.040773	-3.299399
H	1.373456	-1.125402	-2.00716
H	-0.122397	-2.083188	-1.890546
C	-0.488638	-1.224376	0.632439
N	-0.871681	-2.210468	1.142623
N	-0.535268	1.171138	0.710434
H	-0.030616	1.975052	0.343729
H	-0.23684	1.092919	1.67858
Cl	3.344226	0.0	0.0
