15

C	-0.498616	0.113734	-1.446354
C	0.0	0.0	0.0
Br	-0.339536	-1.601833	-2.383077
H	1.095127	0.0	0.0
H	-1.570794	0.327317	-1.442301
C	0.285588	1.175059	-2.192535
H	1.346736	0.91802	-2.185673
H	-0.067462	1.272901	-3.221401
H	0.155947	2.12557	-1.671291
C	-0.511832	-1.189084	0.690539
N	-0.97757	-2.065994	1.319711
N	-0.399847	1.232642	0.6992
H	0.355317	1.495971	1.321903
H	-1.233295	1.077883	1.253965
Cl	3.34305	0.0	0.0
