15

C	-0.291888	-0.008703	-1.500915
C	0.0	0.0	0.0
Br	-2.234648	0.144831	-1.858193
H	1.098876	0.0	0.0
H	0.126058	0.912576	-1.912982
C	0.277674	-1.224394	-2.199804
H	-0.203265	-2.138065	-1.845449
H	0.146965	-1.153537	-3.28112
H	1.345837	-1.267344	-1.963178
C	-0.50512	-1.221834	0.634663
N	-0.907546	-2.203641	1.138088
N	-0.4356	1.172548	0.740301
H	-1.325339	1.504172	0.38722
H	0.264536	1.894583	0.629574
Cl	3.308872	0.0	0.0
