13
Coordinates from ORCA-job run
  C   0.54984439895354     -0.65708225689745      0.27265777128754
  C   -0.51192046902286      0.26029734053886     -0.31756590511343
  H   0.42631731131486     -1.66877989942800     -0.11520619154631
  H   -0.42159708124596      0.28025897896480     -1.40520030204013
  H   0.53589284726402     -0.65982253867972      1.36169960289366
  N   1.91309043920749     -0.19760215346257     -0.14523985225070
  O   2.00843139354766      0.34230741843651     -1.24417595287664
  O   2.82932494164939     -0.44455047416120      0.62868385730745
  C   -0.43602735122953      1.61063735090233      0.22252187623931
  N   -0.32435321315223      2.70102849369985      0.64355479024849
  N   -1.86877165043717     -0.36341894504761     -0.02753928505103
  O   -2.68164793813610      0.28322802583324      0.61749727596977
  O   -2.01858362871311     -1.48750134069903     -0.49268768506797
