13
Coordinates from ORCA-job run
  C   0.68931570806875     -0.55483870653724     -0.58450684585200
  C   -0.57698919609542      0.27380570218262     -0.52611118245534
  H   0.45105191298999     -1.61076560790621     -0.70771822565466
  H   -1.10263832273639      0.16177151593353     -1.48145560810347
  H   1.33939713390342     -0.22417228191394     -1.39442427814389
  N   1.48062115329306     -0.44161199100120      0.68178586468786
  O   2.63867174428812     -0.83404767839707      0.62499692419734
  O   0.89999642845169     -0.00230132377673      1.67060095461851
  C   -0.32590027492195      1.68830700670165     -0.28091430894417
  N   -0.09239382084056      2.83334481862859     -0.16861973001658
  N   -1.55450684009927     -0.28870109456765      0.49932293012840
  O   -1.60490084121455     -1.51002598722617      0.55412028832714
  O   -2.24272478508689      0.50923562787983      1.11392321721087
