13
Coordinates from ORCA-job run
  C   0.93533031618506      0.23448377359350     -0.09534770323351
  C   -0.51249651876278      0.07178797157907     -0.49839328017501
  H   1.07431367229893      1.03801156289492      0.62414198365375
  H   -0.66961459940023     -0.84631971988939     -1.06655062546837
  H   1.56141838525927      0.41192862421223     -0.97214163953493
  N   1.45199359745778     -1.01592208724935      0.55074965967324
  O   2.51246487187013     -0.90230534733083      1.15001741238602
  O   0.80155121402473     -2.04657095168212      0.40311783975451
  C   -0.97487375252544      1.22826995620212     -1.25763394199715
  N   -1.30859555362872      2.17069192752465     -1.87383373191007
  N   -1.40703822669146     -0.07900732162405      0.72674553346518
  O   -0.90417480385888      0.13827556400122      1.82139209397391
  O   -2.56127860222838     -0.40232395223197      0.48973639941243
