14

C	0.0	0.0	0.0
C	-0.538786	-0.088748	-1.437008
Cl	1.776788	0.0	0.0
H	-1.639045	-0.062104	-1.338317
H	-0.302648	-0.938818	0.478639
N	-0.492438	1.19715	0.611665
H	-0.248819	1.181798	1.595726
H	-1.514939	1.148981	0.545921
C	-0.105647	-1.306296	-2.108433
N	0.185601	-2.305889	-2.650704
N	-0.125619	1.105601	-2.248249
O	0.910251	1.018991	-2.907217
O	-0.853776	2.088927	-2.178453
Cl	-3.481254	0.0	0.0
