14

C	0.0	0.0	0.0
C	-0.498375	-0.19343	-1.45617
Cl	1.787889	0.0	0.0
H	-1.594662	-0.058545	-1.384908
H	-0.324325	-0.899688	0.524708
N	-0.489067	1.133501	0.708587
H	-1.497933	0.989296	0.805592
H	-0.349696	1.966957	0.149797
C	-0.178787	-1.515382	-1.973481
N	0.020424	-2.608042	-2.354822
N	0.050394	0.856061	-2.372583
O	0.72024	0.508419	-3.341211
O	-0.211211	2.019958	-2.074793
Cl	-3.432212	0.0	0.0
