12

C	-0.476097	0.036186	-1.440214
C	0.0	0.0	0.0
Br	0.110198	1.722596	-2.273158
H	1.09191	0.0	0.0
H	0.077809	-0.718044	-2.00962
H	-0.372222	0.877299	0.53709
N	-1.917085	-0.02991	-1.570077
H	-2.250782	-0.810411	-1.013163
H	-2.173712	-0.190189	-2.537313
C	-0.511626	-1.204204	0.630389
N	-0.951258	-2.18883	1.103113
F	2.566219	0.0	0.0
