12

C	-0.214932	0.195951	-1.497303
C	0.0	0.0	0.0
Br	-0.709153	-1.677408	-2.377358
H	1.093856	0.0	0.0
H	-1.12126	0.724466	-1.783908
H	-0.278782	0.957052	0.459991
N	0.92977	0.744482	-2.010971
H	1.788745	0.594913	-1.443373
H	0.831119	1.571727	-2.571559
C	-0.694718	-1.051664	0.714545
N	-1.26264	-1.791779	1.431928
F	2.655863	0.0	0.0
