12

C	-0.403391	-0.018299	-1.4622
C	0.0	0.0	0.0
Br	0.088755	1.814747	-2.217612
H	1.091429	0.0	0.0
H	0.267374	-0.668275	-2.022717
H	-0.367993	0.900927	0.499756
N	-1.755804	-0.343331	-1.717959
H	-1.977945	-0.282963	-2.703203
H	-2.376956	0.262432	-1.197024
C	-0.501062	-1.177053	0.689042
N	-0.883026	-2.123202	1.27386
F	2.562186	0.0	0.0
