12

C	-0.485121	0.042683	-1.437077
C	0.0	0.0	0.0
Br	0.088603	1.737981	-2.263764
H	1.091928	0.0	0.0
H	0.067901	-0.704927	-2.015642
H	-0.371318	0.873551	0.544189
N	-1.925217	-0.029467	-1.556569
H	-2.190594	-0.193034	-2.520814
H	-2.255645	-0.805468	-0.992647
C	-0.508244	-1.206813	0.62809
N	-0.946202	-2.193485	1.097444
F	2.565541	0.0	0.0
