12

C	-0.073061	0.322268	-1.513657
C	0.0	0.0	0.0
Br	-0.468283	-1.559495	-2.586969
H	1.09221	0.0	0.0
H	-0.947513	0.806563	-1.91505
H	-0.332167	0.890278	0.556668
N	1.112008	0.878449	-1.8484
H	1.247696	1.196366	-2.790276
H	1.948076	0.54806	-1.299553
C	-0.678978	-1.155422	0.546361
N	-1.237445	-2.019061	1.119608
F	2.734173	0.0	0.0
