12

C	-0.159273	0.158228	-1.519045
C	0.0	0.0	0.0
Br	-0.292122	-1.768333	-2.40137
H	1.093981	0.0	0.0
H	-1.110838	0.542302	-1.884511
H	-0.317895	0.943876	0.457121
N	0.941667	0.879366	-1.946527
H	1.809058	0.595053	-1.437608
H	1.033598	0.967002	-2.946259
C	-0.670595	-1.104033	0.647474
N	-1.241452	-1.980194	1.182984
F	2.665732	0.0	0.0
