12

C	-0.074396	-0.033027	-1.522382
C	0.0	0.0	0.0
Br	-1.877427	-0.519843	-2.210448
H	1.095788	0.0	0.0
H	0.095911	0.971372	-1.912372
H	-0.357449	-0.938946	0.43043
N	0.916047	-0.924166	-2.08871
H	1.775304	-0.677762	-1.558424
H	0.681858	-1.869005	-1.800316
C	-0.627354	1.141181	0.623084
N	-1.129524	2.075652	1.129869
F	2.624489	0.0	0.0
