12

C	-0.504606	-0.019639	-1.434579
C	0.0	0.0	0.0
Br	0.073092	1.605932	-2.365492
H	1.092639	0.0	0.0
H	0.006588	-0.830677	-1.956873
H	-0.295602	-0.960452	0.448764
N	-1.939819	-0.147	-1.651533
H	-2.396516	0.621714	-1.16866
H	-2.23518	-1.001491	-1.187725
C	-0.611246	1.061555	0.773683
N	-1.137718	1.917455	1.385685
F	2.561378	0.0	0.0
