15

C	0.0	0.0	0.0
C	-0.495451	-0.321752	-1.403166
F	1.380838	0.0	0.0
H	-1.573873	-0.102279	-1.402539
H	-0.355522	0.984762	0.300503
C	-0.416272	-1.012026	0.982322
N	-0.57847	-1.802688	1.835052
C	-0.212013	-1.737146	-1.846879
H	-0.511102	-1.87678	-2.884415
H	0.847458	-1.982862	-1.75114
H	-0.80237	-2.410743	-1.223172
N	0.145612	0.688895	-2.312367
O	0.635567	0.301863	-3.372665
O	0.110752	1.863255	-1.949959
Br	-3.516937	0.0	0.0
