15

C	0.0	0.0	0.0
C	-0.493109	-0.142038	-1.434245
F	1.380673	0.0	0.0
H	-1.57706	0.049438	-1.401851
H	-0.355825	0.937997	0.424849
C	-0.410922	-1.133497	0.843649
N	-0.572212	-2.03665	1.576317
C	-0.173077	-1.477936	-2.062332
H	-0.47571	-1.489189	-3.107766
H	-0.73848	-2.244941	-1.531031
H	0.893398	-1.702073	-2.003323
N	0.120156	0.996786	-2.199207
O	0.623174	0.766319	-3.298451
O	0.052449	2.111481	-1.684409
Br	-3.528349	0.0	0.0
