15
Coordinates from ORCA-job run
  C   -0.81233471349388     -0.37217257255205      0.15032143160515
  C   0.65228564290665     -0.34701372080197     -0.31433694086445
  F   -0.87525138363452     -1.33674076455491      1.16918609167588
  H   0.93353244321386     -1.33660143086461     -0.67519860214165
  N   -1.26086045306161      0.90005331332490      0.55494822018459
  H   -2.25193517076526      0.90523923804240      0.75508543945791
  H   -0.72577403148096      1.24732984568836      1.34123260494005
  C   -1.64996738760672     -0.86592927697891     -0.95728672811356
  N   -2.33094836059304     -1.28394780963055     -1.81683381479363
  N   1.51282126432004     -0.17439559188809      0.94671821909402
  O   1.44762133414724      0.91787564624327      1.51255112841115
  O   2.22119712445337     -1.11725353607419      1.27931635821015
  N   0.83260333018919      0.64501024667081     -1.29450577529823
  H   0.54086026049528      1.55655405064379     -0.96984178642638
  H   1.76515010091035      0.66199236273176     -1.68135584594099
