15
Coordinates from ORCA-job run
  C   -0.84448667500532     -0.24878023764361      0.21400343531710
  C   0.56613704896454     -0.43923259944101     -0.36539904620796
  F   -0.97234260218919     -1.20595416590028      1.23390973800768
  H   0.66487295859642     -1.45534376892488     -0.74800267823454
  N   -1.06207086868668      1.07116293436723      0.65387778820734
  H   -2.02218685059535      1.22363976967824      0.93166899856482
  H   -0.42024555151471      1.32462972133638      1.39477865486098
  C   -1.83231695724822     -0.59464226054562     -0.82366436505662
  N   -2.64037184316416     -0.87559312945439     -1.62702931227985
  N   1.53871796606438     -0.41398101340292      0.82356929669338
  O   1.68430513112288      0.66872640840717      1.39281444187705
  O   2.11965885853206     -1.45699483094494      1.09911826243012
  N   0.81745198750861      0.52626414871154     -1.35636001091603
  H   0.69432274940642      1.46741333959158     -1.00925522900925
  H   1.70855464820833      0.40668568416552     -1.81602997425422
