15
Coordinates from ORCA-job run
  C   -0.92749439851313     -0.13264600522937     -0.01843622346225
  C   0.54620537596190     -0.54300272509330     -0.20993194500429
  F   -1.66382163221230     -1.12213857382931     -0.68238104377733
  H   0.63822897756110     -1.58548975287213      0.09939267832125
  N   -1.25403938942153     -0.00823376316333      1.34372418374571
  H   -1.01720200400866     -0.83526262519750      1.87640485952614
  H   -2.22229862508331      0.24696717952711      1.48286311936645
  C   -1.21107691075244      1.13860318969759     -0.71120127760924
  N   -1.42660743717921      2.14524449137157     -1.27498836567931
  N   1.36988243223553      0.24089294421410      0.81023170167511
  O   1.60743230926529     -0.31630415883825      1.87777503180524
  O   1.72270976395978      1.36807079615212      0.47720601823322
  N   0.95941589338331     -0.36855525885247     -1.54775030959371
  H   1.83129221604934     -0.84272510520901     -1.73746517989984
  H   1.04637342875432      0.61257936732219     -1.78444324764716
