15
Coordinates from ORCA-job run
  C   -0.83660598283998     -0.16223398680423      0.33991429150537
  C   0.51161883212712     -0.49881573106846     -0.32366636384770
  F   -1.03002545513079     -0.95941706452358      1.44026452209330
  H   0.45236755005321     -1.48236451381962     -0.79030286945661
  N   -0.83847412502897      1.19698516549650      0.79013205060182
  H   -0.88266950406156      1.82561917056116     -0.00285071720944
  H   -1.65167891756767      1.35282115953388      1.37488805686197
  C   -1.91308410041078     -0.48424403777244     -0.63248913713960
  N   -2.77059179646408     -0.69472132459116     -1.40732335744497
  N   1.54411207099823     -0.66303448247901      0.79109435767082
  O   2.20994956101652      0.32549401781752      1.08256797002821
  O   1.62061121897191     -1.77458209169950      1.30272783548744
  N   0.83717841932591      0.52258242569016     -1.25465294388118
  H   1.48995796468631      0.19339468501376     -1.95248987662045
  H   1.25633426432462      1.30151660864503     -0.75781381864897
