15
Coordinates from ORCA-job run
  C   -0.89022374385355     -0.15108827398136     -0.07621829004076
  C   0.61077643745445     -0.47317392657019     -0.09065684298039
  F   -1.44711451947209     -1.01545018817384     -1.01305894738441
  H   0.72637313390569     -1.45199943281838      0.39802400097706
  N   -1.49339798353598     -0.46715403657568      1.17622102107321
  H   -1.10722109289902      0.12609317181925      1.89976269380700
  H   -2.49406022266356     -0.31511868311866      1.11873879129011
  C   -1.13953216969331      1.22128247534675     -0.57886672000949
  N   -1.39541644452622      2.31734037494320     -0.91452315339881
  N   1.40063490277894      0.47916065707508      0.77760289617773
  O   0.80547144208138      1.12286155592826      1.63887974051977
  O   2.60880898481468      0.49463965055335      0.58157269156225
  N   1.11639198046077     -0.34446771869110     -1.42492876088741
  H   0.60179795885625     -0.95888399463184     -2.04169491412003
  H   2.09871133629157     -0.58404163110485     -1.45085420658584
