15
Coordinates from ORCA-job run
  C   -0.74699215620656      0.13354190550584     -0.09423682233445
  C   0.73415467193090     -0.25164313112908      0.14403097486232
  F   -0.88739522848771      0.54445410910930     -1.40073160029530
  H   0.82303165537433     -0.69847475317821      1.13593026688387
  N   -1.52832761799739     -1.06412346867995      0.05167092981192
  H   -1.56790213771065     -1.34818378709493      1.02420986295208
  H   -2.47526718978654     -0.88888348658033     -0.26740928521669
  C   -1.19267724370646      1.25147447815561      0.76829268004225
  N   -1.59340487860078      2.08516569272434      1.49338765701385
  N   1.54202668749764      1.01261379121388      0.19651745850667
  O   1.88057023240845      1.48989849720726     -0.88175239089851
  O   1.76365055161924      1.48214783454784      1.30967999847808
  N   1.28632765877217     -1.10617872719657     -0.85529840688913
  H   0.76944227592864     -1.97698754241791     -0.86275616985030
  H   1.19076271896471     -0.66482141218710     -1.76253515306667
