15
Coordinates from ORCA-job run
  C   -0.84179075289755     -0.14626057151688     -0.00555146924381
  C   0.66219636031831     -0.48416304163304     -0.12375765961453
  F   -1.45739621774274     -1.14307268086012     -0.80147765177337
  H   0.78642946611308     -1.50399811707183      0.24534471471699
  N   -1.26986917480066     -0.13970774629491      1.32728218810250
  H   -2.25639862833790      0.05484694559859      1.42858145178809
  H   -1.00447903952254     -0.97513331223412      1.83198294979197
  C   -1.16028058972360      1.13655868624750     -0.65431265911971
  N   -1.40841120189292      2.14374441861184     -1.20388302103398
  N   1.40251154095716      0.39969733514113      0.83426800783447
  O   1.69474850345967     -0.07852261441570      1.92560713722490
  O   1.63242543042981      1.54106107272522      0.44674868593249
  N   1.24820946367019     -0.35466694893227     -1.41606587097898
  H   1.12550054922946      0.58206437068692     -1.78213887092717
  H   0.84760429074022     -1.03044779605234     -2.05262793269986
