15
Coordinates from ORCA-job run
  C   -0.99418984794830     -0.24895209963794      0.04159327712946
  C   0.50225892048842     -0.38022044865016     -0.33115629782225
  F   -1.48384288931103     -1.51794875204787      0.24134163485281
  H   0.61203520662837     -1.18976497680860     -1.06766867502907
  N   -1.32958593931065      0.55891353834773      1.16565124007239
  H   -0.89854689326106      0.17034066707658      1.99535532686642
  H   -1.00158822699793      1.50598561595812      1.01898197421471
  C   -1.65217348288162      0.30890522944991     -1.16566156714533
  N   -2.11482197757451      0.74687268551498     -2.15168934512961
  N   1.33488852050894     -0.84057967645380      0.84440525605574
  O   2.54910201323838     -0.74084520502232      0.69751087650742
  O   0.76993798339927     -1.31108877629231      1.82589914716139
  N   1.00901753934647      0.91283901997200     -0.71909929275210
  H   0.67543892055329      1.15051655346677     -1.64596914956203
  H   2.02107015312194      0.87602662512692     -0.75049440541993
