15
Coordinates from ORCA-job run
  C   -0.86250535846718     -0.27632248323755      0.14781613618461
  C   0.53960250893822     -0.28873270744916     -0.48917798127944
  F   -1.14609053890774     -1.50892236596634      0.68111389180791
  H   0.52434052722525     -0.90100230477278     -1.39107510135293
  N   -0.90968269830690      0.67426444667142      1.21702070844717
  H   -1.77771473842151      0.55782196937203      1.72803540835510
  H   -0.87497066582158      1.61610501779304      0.84541572490634
  C   -1.85014896499680     -0.02795445886008     -0.93424251621835
  N   -2.63838539358741      0.20990691145914     -1.77218006367578
  N   1.47084898729972     -1.03364276600322      0.46620684408431
  O   1.50815800790883     -2.25346666894476      0.34917046236887
  O   2.10173124474645     -0.35453208811584      1.27001665437821
  N   0.94301941607265      1.04756726359873     -0.75038607275829
  H   1.31857836969100      1.45216288722563      0.10071342260843
  H   1.65321929662704      1.08574734722976     -1.46844751785614
