15
Coordinates from ORCA-job run
  C   -0.87906308907069     -0.25780781638484     -0.05473691277632
  C   0.56498542569680     -0.03855359946284     -0.54258793763661
  F   -1.24034451652116     -1.56991403309113     -0.23325586854032
  H   0.59754668145350     -0.11510136776457     -1.62963731649814
  N   -0.97441750863194      0.02583389785695      1.34553150327260
  H   -1.87650678077910     -0.28586139108234      1.68721613887213
  H   -0.89341060472393      1.02294979369564      1.50409785989385
  C   -1.77522527415912      0.56571093522044     -0.90705374086327
  N   -2.48958387204160      1.24461644812832     -1.54644060183175
  N   1.40140759296827     -1.21744092285622     -0.04717691809962
  O   1.99605008559926     -1.06962667623085      1.01589387801691
  O   1.40828021987056     -2.21667367649279     -0.75758681151237
  N   1.02515244017880      1.22133242641816     -0.07607433747835
  H   1.78861512635238      1.56834009501787     -0.64027641430880
  H   1.34651407380797      1.12219588702820      0.88108747949005
