15
Coordinates from ORCA-job run
  C   -0.85343410925933     -0.14954001776502     -0.00469111414109
  C   0.60634688104778     -0.21919166700104     -0.49474875745219
  F   -1.32825255783629     -1.46941676724691      0.01177475255712
  H   0.62066800913440     -0.64097789397544     -1.49934137007103
  N   -0.97054693044325      0.51511735590495      1.23079852467651
  H   -1.93552591757971      0.64571606883825      1.50321839263454
  H   -0.44084352935861      0.03915088683017      1.95103699984346
  C   -1.63277285929243      0.57590395941757     -1.02710503034471
  N   -2.23133106737188      1.15460556293997     -1.85457949928960
  N   1.32040312579775     -1.26886766704558      0.34568338148406
  O   1.84570584267668     -2.19982266804880     -0.25189244847788
  O   1.34935591262351     -1.08038074633444      1.56016265665976
  N   1.30362027877198      1.00899988529551     -0.41258989195929
  H   0.88566417924897      1.64634165459172      0.25028078994003
  H   1.45894274184043      1.44036205359908     -1.30900738605968
