15
Coordinates from ORCA-job run
  C   -0.77001731435621      0.15106383781241      0.09892649212958
  C   0.74861591340886     -0.13371126540594      0.13452493360043
  F   -1.06339044627869      0.57346927223446     -1.20958828756209
  H   1.03427632578461     -0.35198030310063      1.16281396497913
  N   -1.45924242075594     -1.02782706235680      0.45802011538097
  H   -1.26516915208729     -1.76641521079634     -0.20583410373626
  H   -2.45760141210458     -0.87338556707863      0.51873465430087
  C   -1.17100454760632      1.24155137897883      1.00267395673540
  N   -1.53915221461196      2.09291270927738      1.72235936890656
  N   1.45181955859890      1.15793324476484     -0.22512676031269
  O   1.72773760888053      1.33431977726814     -1.40462345772719
  O   1.65399973007655      1.93688414703891      0.70381284628653
  N   1.18603314740957     -1.15808827949280     -0.74249775900883
  H   0.78993387545941     -1.09594059436208     -1.66860012004632
  H   1.13216134818253     -2.08178608478175     -0.34459584392609
