15
Coordinates from ORCA-job run
  C   -0.85232838945818     -0.10818846374768      0.10390524941369
  C   0.54634076046323     -0.32397852126599     -0.50678723338337
  F   -1.35867622064756     -1.38459268097280      0.39137864111112
  H   0.44552892307053     -0.90338934992986     -1.42413519375009
  N   -0.82246574964191      0.75785225915328      1.21335579680601
  H   -0.23802719792439      0.38292038631915      1.95059457700229
  H   -1.75007232269815      0.98029414051662      1.54888429102190
  C   -1.71460436504659      0.46889696484246     -0.94567234966310
  N   -2.38380336830310      0.92371057814276     -1.79623881199567
  N   1.31213264668064     -1.25494943711633      0.42348939386928
  O   1.45697988423976     -0.88192584823374      1.58556164247605
  O   1.75832108283850     -2.28625232040390     -0.06348284454189
  N   1.28374902571748      0.86811974970035     -0.69760818670791
  H   0.95113894745673      1.62523660932766     -0.11777262015589
  H   1.36678634325299      1.13624593366803     -1.66447235150243
