15
Coordinates from ORCA-job run
  C   -0.85145221762741     -0.29093010718839      0.18995343425310
  C   0.57232699169407     -0.36359282248526     -0.39172361789994
  F   -1.08959660033990     -1.38307383067924      0.98634389538055
  H   0.62635213720829     -1.17560361707737     -1.11715150233949
  N   -0.99063493246173      0.87531567685638      1.00811112153752
  H   -1.87292930270316      0.82993197139612      1.50574272088394
  H   -0.98684371801008      1.70649424112366      0.42901276318939
  C   -1.80722495785628     -0.35779667911018     -0.94613996673753
  N   -2.57219186563523     -0.36623421314615     -1.83772503312501
  N   1.50930747624337     -0.79067377786169      0.73686990959088
  O   2.07453293341625      0.10335190102098      1.35895478917403
  O   1.61764157769515     -1.99692409769617      0.92743260491483
  N   0.90568066590549      0.89428737367308     -0.96133019862187
  H   1.62989281338316      0.80361264484129     -1.66057791917597
  H   1.23713899908803      1.51183533633292     -0.22777300102443
