15
Coordinates from ORCA-job run
  C   -0.64207934267582      0.36312793534864     -0.02707477337012
  C   0.81468979641474      0.09179875688278     -0.44315425242269
  Br  -1.18461227630910      2.16274786179346     -0.50414644955691
  H   0.96212168065286      0.38053333152084     -1.48250588298506
  N   -0.85764684456202      0.13555221871130      1.32837148731547
  H   -1.82831932830624      0.24974033961101      1.58839877135554
  H   -0.50108554726369     -0.75993418747021      1.64202044518753
  N   -1.50514207291337     -0.55342755016168     -0.97617445699851
  O   -1.12450421262747     -0.67255475037042     -2.13312034523505
  O   -2.49698881969632     -1.05262083544138     -0.46597540788516
  C   1.12713087791013     -1.31775652409228     -0.23947946809118
  N   1.33081937338039     -2.46210144374370     -0.06714771904478
  N   1.74885296233195      0.93855314171755      0.39573793583471
  O   2.06856674233633      0.49360731561201      1.49049811393629
  O   2.08919701132764      2.00273439008209     -0.10624799804009
