15
Coordinates from ORCA-job run
  C   -0.59023529893722      0.27622614475649     -0.13319212357661
  C   0.80312404777275     -0.21877220001815      0.26826955427490
  Br  -0.54653416633071      0.91129088813311     -1.99746723630686
  H   0.69571306786791     -0.78067456540539      1.20103758298510
  N   -1.04135061406742      1.22899496947734      0.80596222607191
  H   -0.43975321132926      2.04409600968145      0.83960828656186
  H   -1.98905220951887      1.52121041757698      0.59238035255030
  N   -1.60802317729693     -0.87677549845593     -0.01174812997382
  O   -1.31706924882743     -1.77132226208610      0.76876504841613
  O   -2.66062733244379     -0.73346590597529     -0.61209234626113
  C   1.70391140218344      0.90860379145236      0.45036108832122
  N   2.36166055986474      1.86435032676233      0.63481439422462
  N   1.39906249956286     -1.20685945822186     -0.71947411006874
  O   2.62031056075245     -1.23000801428663     -0.78593638689613
  O   0.60986312074748     -1.93689464339070     -1.30028820032274
