15
Coordinates from ORCA-job run
  C   -0.59102726264474      0.23664775671586     -0.27336343252379
  C   0.84417493149427      0.01193474269715      0.24108685166175
  Br  -0.63859828889285      0.18237554721522     -2.18898743899572
  H   0.78790503157856     -0.14914106520393      1.32312429480761
  N   -1.04692055571319      1.49245183247722      0.19264133320985
  H   -1.91239068268757      1.77094142101989     -0.25214266642858
  H   -1.15204637905698      1.48412981734921      1.20177278651207
  N   -1.47027406194026     -0.92063759195802      0.32200605813243
  O   -1.45249305001028     -0.92336477814780      1.54955515114674
  O   -2.12480986521767     -1.64119973702006     -0.40685121976196
  C   1.69770188807066      1.14580877364076     -0.07091323079095
  N   2.40193043244627      2.06205505727011     -0.28024728607225
  N   1.42307200816639     -1.27143436953619     -0.32436863039809
  O   0.78105802826618     -2.27973119811200     -0.05443485178901
  O   2.45271782614120     -1.20183620840740     -0.97887771871011
