15
Coordinates from ORCA-job run
  C   -0.65209796427456      0.30273916611573     -0.25219744749120
  C   0.88041206762996      0.30683487256620     -0.24703784706985
  Br  -1.19621598802786      1.10241248213540     -2.00085178312725
  H   1.20389776591140      1.35041608760481     -0.27796454290874
  N   -1.12357919486645      0.94361333999886      0.89101703557959
  H   -0.90108977255461      1.92988469542261      0.91394238663030
  H   -2.10912937931423      0.77594746435682      1.04780160881079
  N   -1.24112367620250     -1.11537244946080     -0.28976146299054
  O   -2.25539510749863     -1.28944748614051      0.37200951367342
  O   -0.67989723828665     -1.92283857747934     -1.00871836132200
  C   1.55352257133147     -0.43372062803520     -1.30348595695621
  N   2.19840861635525     -0.95952743598737     -2.13245062800379
  N   1.33717664937802     -0.21025418086519      1.10664837908351
  O   1.96492971333158      0.57986534196123      1.79948284165940
  O   1.02018093708781     -1.35855269219323      1.38156626443257
