13
Coordinates from ORCA-job run
  C   -0.84429045243741     -1.04009245343728      0.37578423054758
  C   0.13275548566519      0.12143857865934      0.39199286511308
  Cl  -1.50256678473363     -1.33300991131291     -1.25184855155767
  H   0.42782151363323      0.26984168664236      1.43617091935710
  H   -0.33086749103310     -1.94682025593019      0.69670009173362
  H   -1.68195972181678     -0.83281884641205      1.03839995506623
  N   -0.63744293067799      1.37789781877218      0.05763218577216
  O   -1.57505204361281      1.64370719031739      0.80561695285724
  O   -0.28959543353074      2.03710678934711     -0.91656639914811
  C   1.34467182093911     -0.04049827073732     -0.49664872333871
  H   1.88750993522359     -0.93962422760594     -0.19487901502649
  H   1.05812059252698     -0.13432041030848     -1.54209256735073
  H   2.01089550985436      0.81619231200580     -0.39926194402530
