13
Coordinates from ORCA-job run
  C   -0.80584040654445     -1.10837151059183      0.02664184864973
  C   0.07494575159885      0.06272946403934      0.39590474669668
  Cl  -2.30109179875353     -1.11666323321531      0.99173139874658
  H   0.22463707630175      0.10768911292170      1.47484880607687
  H   -0.27512413182327     -2.03916953691760      0.22741417937375
  H   -1.08390971029624     -1.05425692864398     -1.02460831548290
  N   -0.63613601595129      1.34152997183200      0.05567782688258
  O   -0.68199842530784      2.20800282947830      0.92410601657286
  O   -1.08495920546465      1.43711234680718     -1.08388256013371
  C   1.39443673194490      0.04384044993862     -0.35900468697253
  H   1.96883968892790     -0.84286030994330     -0.08391342848500
  H   1.21741966045996      0.03354809277241     -1.43564174620628
  H   1.98678078490790      0.92586925152248     -0.10827408571863
