13
Coordinates from ORCA-job run
  C   -0.97327955265286     -0.97966401210672      0.05154034480753
  C   0.06698450839186      0.07346025279676      0.39979825062136
  Cl  -0.38939821231483     -2.58837220135552      0.54347829302052
  H   0.30373029396735      0.03339812066707      1.46346715748784
  H   -1.90489397615767     -0.79173322861344      0.58529536687112
  H   -1.16247538903572     -0.99746936227037     -1.01974333068456
  N   -0.56925251548874      1.41684314220230      0.19317984474858
  O   -1.13557102928475      1.59885723347803     -0.88381897603858
  O   -0.45927272662067      2.24274430949884      1.09547808389164
  C   1.32219530061575      0.01031580635236     -0.45107463787962
  H   2.00495778384703      0.81715409723351     -0.17798116363411
  H   1.83098342156545     -0.94068026493029     -0.29311797654061
  H   1.06429209316782      0.10514610704748     -1.50750125667111
