13
Coordinates from ORCA-job run
  C   -0.80168997195017     -1.06866291193673      0.30522289600752
  C   0.16591913289574      0.09082000663429      0.36085809835730
  Cl  -2.03212139475858     -0.94002498403045      1.58469838810476
  H   0.56210586269665      0.21386697716716      1.36905843894632
  H   -0.25900894189186     -2.00161115822665      0.45832551256894
  H   -1.31518698006945     -1.08613044954684     -0.65464361508651
  N   -0.57654045622609      1.36669989816785      0.08388566163159
  O   -0.40229433881689      2.29948743313514      0.86278131993343
  O   -1.27437051540119      1.39123661304225     -0.92688219672132
  C   1.27461508266121     -0.04174724960505     -0.67088420731224
  H   1.92890711295610      0.83145287201027     -0.63730576036630
  H   1.87630563511775     -0.92797811099728     -0.46031106547234
  H   0.85335977278679     -0.12740893581398     -1.67380347059117
