13
Coordinates from ORCA-job run
  C   -0.80609280321795     -1.10761976351128      0.03574406637386
  C   0.08190750699513      0.06125493724206      0.39449627730561
  Cl  -2.28276147973583     -1.12090553621889      1.02904525703304
  H   0.25032758848105      0.10162702390427      1.47085090443546
  H   -1.10415810173491     -1.04759663285040     -1.00968072101021
  H   -0.27193768542248     -2.03958856256042      0.22136221122595
  N   -0.63375992300148      1.34207438875309      0.07202245568760
  O   -1.10329846162789      1.44250424632617     -1.05876836342644
  O   -0.66296144109888      2.20505788074808      0.94463158970707
  C   1.38814704609020      0.04433602587306     -0.38318119431505
  H   1.96809435746163     -0.84210904142010     -0.11920865121210
  H   1.98396171709695      0.92661401239000     -0.14168555132160
  H   1.19253167971446      0.03535102132435     -1.45662828048319
