13
Coordinates from ORCA-job run
  C   -0.88100164127419     -1.06886888775415      0.29534339984892
  C   0.08700572805930      0.09922558225895      0.40877508364276
  Cl  -1.14499167059589     -1.67491992157363     -1.35546297085578
  H   0.37875121562009      0.18088260870392      1.45832786993324
  H   -1.85345916242049     -0.80012782227595      0.70868484408161
  H   -0.47000957199824     -1.89908369133989      0.87108333814737
  N   -0.60629212287572      1.40065932832948      0.12830223803566
  O   -0.40549661806094      2.31692761742320      0.92370161027846
  O   -1.28947649953171      1.46695598618858     -0.88947134794886
  C   1.31718337100407      0.01336006447698     -0.47637057996794
  H   1.03550338415794      0.06692247803514     -1.52710070248303
  H   2.00022708060453      0.83183020501007     -0.24242301677119
  H   1.83205650731125     -0.93376354748269     -0.30338976594121
