13
Coordinates from ORCA-job run
  C   -0.83775429849454     -1.03257045699810      0.40890149846366
  C   0.14128571782088      0.12727801526347      0.38688097809050
  Cl  -1.53356526865948     -1.34688735617811     -1.19898428039061
  H   0.45974321533629      0.28931842056076      1.42209994344193
  H   -0.31855720424612     -1.93574211291928      0.73048268007349
  H   -1.65977127704886     -0.81428620824319      1.08741385167289
  N   -0.63419516396237      1.38006775912656      0.05092139455612
  O   -0.30803301718384      2.02209834466672     -0.94201910002307
  O   -1.55301041390923      1.66002108421323      0.81669933702911
  C   1.33375657063242     -0.05040322437168     -0.52484055586328
  H   1.02514927616449     -0.16542740760522     -1.56186892955301
  H   2.00028301376081      0.80902591653852     -0.45881325461222
  H   1.88466884978954     -0.94249277405368     -0.21687356288552
