13
Coordinates from ORCA-job run
  C   0.50191070362444     -0.06779474598374     -0.83363010680249
  C   -0.67757720393312     -0.05098004797573      0.12770406031122
  F   1.03965755716231      1.16941055859388     -0.93308040816063
  H   -1.04229371761373     -1.07846268524475      0.20414432265309
  H   0.24922356295465     -0.44579988761708     -1.82569702617672
  N   1.53341070615212     -1.01261407293843     -0.26187494342386
  O   1.15163949324922     -2.17511334379685     -0.18764987154305
  O   2.61852077513985     -0.56061575012539      0.06041056311546
  C   -1.74729182424492      0.78732431993236     -0.45058719175895
  N   -2.59965401704246      1.47766695635561     -0.87087136099092
  N   -0.19459607485979      0.36895472629817      1.42762329940021
  H   0.07443199698123      1.34497478628688      1.40946267077407
  H   -0.90738195756982      0.24304918621508      2.13404599260258
