13
Coordinates from ORCA-job run
  C   0.51884413925544     -0.78160346072212     -0.27392497785869
  C   -0.62054258487407      0.20914487996110     -0.05083909433465
  F   0.16912425109425     -1.65401450627464     -1.24414055931980
  H   -0.87636804884827      0.58881168223057     -1.04464334451662
  H   0.81318861967420     -1.31686020846677      0.62942128250110
  N   1.72957893176783     -0.02058741684209     -0.74607018520518
  O   2.68013853107652      0.04040191775329      0.02830503039995
  O   1.63781829640818      0.49704338702045     -1.85434787403859
  C   -0.15886952798814      1.34009920404578      0.77646829818667
  N   0.15653777873420      2.22045404970900      1.48775594657124
  N   -1.75817847997687     -0.50617882084030      0.49492726263315
  H   -1.67450324698388     -0.60400038047784      1.49934675277998
  H   -2.61776865933939     -0.01171032709643      0.29674146220146
