13
Coordinates from ORCA-job run
  C   0.63888221040564      0.09510760082106     -0.73080955338659
  C   -0.68755541347951     -0.07175788896501     -0.00380535394355
  F   1.14882664593491      1.32522008138589     -0.49315154250438
  H   -1.02921737543662     -1.09264827303845     -0.19230430434547
  H   0.57058410271913     -0.07941281895013     -1.80591516766449
  N   1.58502337458541     -0.94837981562943     -0.18395965958612
  O   2.58527257339504     -0.57413943149266      0.40350034624991
  O   1.23142028334849     -2.10106728199793     -0.40571198452736
  C   -1.66749195395111      0.86814145802513     -0.58514328451288
  N   -2.45712414040988      1.63012818099828     -1.00394352249155
  N   -0.44643999391557      0.08363872098180      1.41627923926699
  H   -0.20911592897505      1.04338995206048      1.63474240106904
  H   -1.26406438422088     -0.17722048419904      1.95122238637645
