13
Coordinates from ORCA-job run
  C   0.59618784971289      0.08970465533268     -0.76741037698428
  C   -0.67672045411491     -0.13604883644224      0.03543343977045
  F   0.99211728217370      1.37869797484004     -0.65988522230085
  H   -0.92514851661401     -1.19691831867656     -0.05074320110962
  H   0.50186782243371     -0.18553884868469     -1.81919902627048
  N   1.66142037013929     -0.80716886047837     -0.18095617338413
  O   1.41349623864982     -2.00308485284113     -0.28655096200218
  O   2.64273742503203     -0.28976323786269      0.32382770187317
  C   -1.76669709110081      0.65326544915584     -0.57397961340469
  N   -2.64267998542413      1.29910591713423     -1.01566893364850
  N   -0.39425420227125      0.16463957918343      1.42386970797113
  H   -0.24348218870023      1.15778339092650      1.55061195653446
  H   -1.15884454991612     -0.12567401158705      2.01865070295548
