13
Coordinates from ORCA-job run
  C   0.65639105384694      0.14161050684903     -0.70762677686173
  C   -0.69056264917598     -0.01220015506987     -0.01602419407357
  F   1.25988242085197      1.28259337857156     -0.30285692623037
  H   -1.11229919370197     -0.96535875308028     -0.34491209753292
  H   0.59160151919381      0.11993780004861     -1.79677615441489
  N   1.50586614908523     -1.04001198297719     -0.30237202581599
  O   2.52342951526328     -0.83224952630627      0.33566921913604
  O   1.06348385366706     -2.11933588017266     -0.67958048553020
  C   -1.58147105408054      1.07564526860673     -0.46810580316708
  N   -2.30586601438083      1.93930505607039     -0.79799222908502
  N   -0.45951061014712     -0.07425788587289      1.41289375334616
  H   -1.30387294124081     -0.33745389871393      1.90326685079608
  H   -0.14707204918103      0.82277607204680      1.76341686943348
