13
Coordinates from ORCA-job run
  C   0.59879239290953     -0.61661434818330      0.01893043524125
  C   -0.68792619625942      0.21216510577461     -0.04214577115793
  F   0.30233521507664     -1.88633056042896     -0.36841199713606
  H   -1.01097839525648      0.18815392531639     -1.08885155983093
  H   1.07194471642267     -0.62667041017079      1.00120908902363
  N   1.60088378129920     -0.05325613864297     -0.94819481310935
  O   2.57433896977238      0.51473566188848     -0.46081550271811
  O   1.33021957275045     -0.17906888702959     -2.13792177789000
  C   -0.38676540778090      1.60011315912758      0.32342578020877
  N   -0.13147405452248      2.69605600580651      0.65683431230831
  N   -1.76162627152397     -0.30303516838979      0.78184801291227
  H   -1.50856343334998     -0.29870936356999      1.76241645906062
  H   -1.98918088953763     -1.24853898149822      0.50167733308753
