13
Coordinates from ORCA-job run
  C   0.74983316236083      0.26270303197730     -0.56608145088256
  C   -0.68022761587623     -0.00579910624937     -0.12129958910305
  F   1.26417251805987      1.30595915349130      0.12460504771796
  H   -1.02810513861855     -0.88227019984350     -0.67387318443813
  H   0.84655257931285      0.44150310540995     -1.63829262058131
  N   1.55530437967107     -0.97910006838835     -0.26175301249819
  O   1.19418289390381     -1.96870756634284     -0.88861876403801
  O   2.46503826550981     -0.89741278401022      0.54530249501069
  C   -1.51847433890126      1.15092776117054     -0.49646134885595
  N   -2.20218453547428      2.07147392438507     -0.75075940440103
  N   -0.66025613012080     -0.32524416165394      1.29193823048947
  H   -0.42273661846964      0.49304137778751      1.83897619002556
  H   -1.56209942135746     -0.66707446773343      1.59631741155453
