13
Coordinates from ORCA-job run
  C   0.63418823319269     -0.72946880256628     -0.12901353536772
  C   -0.64979264873146      0.08780151027561     -0.01532812553301
  F   0.37277330032368     -1.88552166858306     -0.77749655609502
  H   -1.05477068597289      0.13746941720577     -1.03055980303984
  H   1.10876418433988     -0.93283817814013      0.83129150409428
  N   1.62622321367936      0.04946610406943     -0.95189320707520
  O   1.33420665683482      0.20825645442293     -2.13266426606862
  O   2.61698011110409      0.47699352275501     -0.36677307033882
  C   -0.33934115792665      1.45774494343200      0.43505391785605
  N   -0.12984374636754      2.53333690924757      0.85914715912149
  N   -1.58243248396309     -0.62492596089525      0.83713275675659
  H   -2.53356381996669     -0.35387677276560      0.62748429226354
  H   -1.40439115654618     -0.42543747845801      1.81361893342627
