13
Coordinates from ORCA-job run
  C   0.71102790481058     -0.67677327434037      0.02979729230157
  C   -0.65526390777832      0.00196033023977     -0.04742767166651
  F   0.59501205902242     -1.95335398817356     -0.39507128966332
  H   -1.03490566940371     -0.22533010516135     -1.04858350860457
  H   1.15468479107778     -0.64857471126573      1.02528662754020
  N   1.65782792638047      0.04243761712347     -0.89366334364007
  O   1.48222965430085     -0.13749485187855     -2.09363988571243
  O   2.48661828210441      0.77611682289573     -0.36299500260213
  C   -0.51911345000684      1.46493907726048      0.08085314249881
  N   -0.46165947663476      2.62766345876974      0.23907440176100
  N   -1.52803533169271     -0.60585629720369      0.94001485150779
  H   -2.49739079231701     -0.48507748465272      0.67830903409835
  H   -1.39203198986318     -0.18065659361321      1.84904535218130
