13
Coordinates from ORCA-job run
  C   0.60715982446481      0.05016643099232     -0.76233794260409
  C   -0.68820758823898     -0.06175422459320      0.02835300791309
  F   1.14369315107360      1.28198473219349     -0.60559009080446
  H   -1.05184969542319     -1.08481841374680     -0.09674478220264
  H   0.48979691065205     -0.17326538814319     -1.82405112612123
  N   1.56198235225598     -0.98113522848835     -0.20751597944791
  O   2.59209063817260     -0.59536645779640      0.31749180737009
  O   1.18372172315851     -2.13728554150540     -0.35929303048171
  C   -1.67951565424223      0.86614449839694     -0.55290401570908
  N   -2.47154878675010      1.62843116804256     -0.96662786082111
  N   -0.38280045079451      0.15533213770821      1.42790867112229
  H   -0.12423415838251      1.12060550978865      1.59101001091567
  H   -1.17928826594601     -0.06903922284879      2.00930133087105
