13
Coordinates from ORCA-job run
  C   0.65165925915566      0.13166745976751     -0.71328357430355
  C   -0.69073125775146     -0.00376012123703     -0.00944552635119
  F   1.27342984686168      1.26557260685903     -0.31630581182516
  H   -1.12669513905932     -0.95270004007308     -0.33202681876683
  H   0.57670461729077      0.10859216195677     -1.80174301950987
  N   1.49007606637584     -1.06010836427732     -0.31343700391640
  O   2.51505562002183     -0.86373122007641      0.31616473395886
  O   1.03064003384116     -2.13436527343034     -0.68443489923389
  C   -1.57231514392606      1.09349685721876     -0.45678668835732
  N   -2.28826906744703      1.96492509158974     -0.78466422904269
  N   -0.44774694537807     -0.06451341305159      1.41768635729046
  H   -0.12035228460448      0.82971132832791      1.76180136496455
  H   -1.29145560538049     -0.31378707357392      1.91647511509310
