13
Coordinates from ORCA-job run
  C   0.60537663005306      0.12702085946922     -0.69674144225334
  C   -0.77346329874819      0.07078736551961     -0.02642004202606
  F   1.26249025420111      1.24419473066595     -0.31467714663843
  H   -1.25574766419875     -0.85614939143380     -0.35014853432747
  H   0.57067210684345      0.06328674679960     -1.78582737455039
  N   1.37356736460329     -1.07978597276019     -0.21786610258692
  O   0.91739263941285     -2.15021805137407     -0.60858422878271
  O   2.32594475139813     -0.90698834045530      0.52819647247809
  C   -1.55912615124107      1.20286303865993     -0.53860987864146
  N   -2.16145070706019      2.11559812230618     -0.96392855638509
  N   -0.74008511786514      0.09826318106151      1.41903876267180
  H   -0.15273781033768      0.85083427008938      1.75576852444933
  H   -0.41183299706089     -0.78070655854805      1.79679954659265
