13
Coordinates from ORCA-job run
  C   0.37186464907225     -0.61346835894214     -0.77551147697475
  C   -0.79140456515935      0.08552238001318     -0.07581882841899
  F   0.42858096462075     -0.23219124930812     -2.07348503025351
  H   -1.70150210900717     -0.27953607301507     -0.57826076438392
  H   0.29358607372040     -1.69965993999134     -0.71072589343790
  N   1.66547153596871     -0.25440551813632     -0.09837425244517
  O   2.12341398700490      0.85424946737323     -0.34260115603579
  O   2.12940398980625     -1.10816015714758      0.64999704633508
  C   -0.74097682656187      1.53554196277827     -0.29559931245236
  N   -0.76622076151514      2.69915485075797     -0.44379102683763
  N   -0.71460304395653     -0.19471314094280      1.34973447187821
  H   -0.92246704803703     -1.16903298988395      1.53341970995347
  H   -1.37614684595619      0.37569876644468      1.86001651307327
