13
Coordinates from ORCA-job run
  C   0.33700192069535     -0.60821792057103     -0.73265032649806
  C   -0.86801220329489      0.06276176161572     -0.04438027326898
  F   0.29067108794035     -0.38608721473532     -2.06409242298676
  H   -1.73539468669034     -0.25989163840562     -0.63147342702725
  H   0.36902394771886     -1.68007959098359     -0.52799010665497
  N   1.62162009943320     -0.03647565500581     -0.18829593542136
  O   2.29819034660053      0.67382176876897     -0.91414568076187
  O   1.84620749934012     -0.33394373883989      0.98384229599070
  C   -0.75240926039050      1.51986973415536     -0.20668318085591
  N   -0.64123525928413      2.68040091264108     -0.34086611805310
  N   -1.10624910923637     -0.27085217570659      1.34147328743374
  H   -1.38841618651730     -1.23862620331925      1.43023657530454
  H   -0.27099819631489     -0.12368003961405      1.89402531279936
