13
Coordinates from ORCA-job run
  C   0.73192238919953      0.22662294322577     -0.60400019840880
  C   -0.68377572338697     -0.01254579336405     -0.09997712233215
  F   1.26578347664487      1.31088283642872      0.00363954288091
  H   -1.04746729892502     -0.92095206461593     -0.58689877998647
  H   0.79539653089976      0.33727011715782     -1.68781339691778
  N   1.54774797254569     -0.99421486567196     -0.24684875994006
  O   2.47961134991175     -0.86324306876024      0.52776038143383
  O   1.16842437415053     -2.02099868780731     -0.79869231611364
  C   -1.53390611935267      1.11962099586686     -0.52062491649377
  N   -2.22630393494472      2.02160112331063     -0.81480028268832
  N   -0.62074699930075     -0.24433997276779      1.32892259090116
  H   -1.51309893387774     -0.56410244021060      1.68144182221134
  H   -0.36558708356422      0.60539887720810      1.81689143545370
