13
Coordinates from ORCA-job run
  C   0.41267813340095     -0.62344831007874     -0.77841943188053
  C   -0.81888842509493     -0.04762987256079     -0.08257193185526
  F   0.35799614561233     -0.38035597385716     -2.10541437771674
  H   -1.65581584513868     -0.33919854471704     -0.72575924033929
  H   0.49395492137650     -1.69394794141597     -0.58232029516273
  N   1.67203727498465      0.01345944292960     -0.23019366751173
  O   2.44646490952401      0.53828107866904     -1.01234246857097
  O   1.79219778378064     -0.07229429347128      0.98940997428972
  C   -0.75430139411724      1.42928517075894     -0.08673576016380
  N   -0.72182881280494      2.60280724407343     -0.04609010227555
  N   -1.01574174021975     -0.66436699201196      1.21431499963203
  H   -0.29061295854800     -0.36782929429530      1.85490404452061
  H   -1.91613999275555     -0.39676171402271      1.59121825703426
