13
Coordinates from ORCA-job run
  C   0.35899753663762     -0.60676194523713     -0.72263589544495
  C   -0.86608592481446      0.05981386313783     -0.06641259392812
  F   0.34738728593301     -0.38428919901344     -2.05475846561428
  H   -1.71666068711628     -0.26584241681802     -0.67600878034652
  H   0.38936832549233     -1.67856095102915     -0.51743632621041
  N   1.62683194170231     -0.03074734030669     -0.14420142836918
  O   1.82143150183847     -0.32805717214606      1.03333686961800
  O   2.31889245593076      0.68373145859208     -0.85110472396667
  C   -0.75214518191438      1.51732187843146     -0.22646938142860
  N   -0.64754454918829      2.67761707640136     -0.36783567408680
  N   -1.13948895714541     -0.27492141112469      1.31268586082356
  H   -0.31941522497444     -0.12593729783301      1.88701353251222
  H   -1.42156852238123     -1.24336654305453      1.39382700644179
