13
Coordinates from ORCA-job run
  C   0.72891970371441     -0.65015500034988      0.01185876894710
  C   -0.65553493740138     -0.00911067817562     -0.03930594979627
  F   0.64702438231493     -1.92725599889424     -0.42027290306264
  H   -1.02992429864644     -0.20310030369592     -1.04897535638358
  H   1.18991517811151     -0.61258980215427      0.99926033045215
  N   1.63748731307180      0.10099786145723     -0.92460323296440
  O   2.53335473445976      0.76543953651571     -0.41166445769077
  O   1.37509602197438      0.00224950400977     -2.11862763587577
  C   -0.54561406576992      1.45028486812301      0.14801578788214
  N   -0.49879201056572      2.60447557982033      0.36201375113463
  N   -1.51332161662158     -0.67407831945563      0.92299284254311
  H   -1.38197421663920     -0.28805409132756      1.84997674395963
  H   -2.48563618800252     -0.56010315587290      0.66933131085468
