13
Coordinates from ORCA-job run
  C   0.61211954883063     -0.04826733455936     -0.75858073193925
  C   -0.68803643569957     -0.05144739161032      0.03205804396964
  F   1.15715596415857      1.18988429781686     -0.75332660999862
  H   -1.05981259188752     -1.07924378030171      0.03279657393269
  H   0.49858736811827     -0.40153259951401     -1.78484377286508
  N   1.55621967970460     -1.00888641779554     -0.07379921040570
  O   1.16924209820826     -2.17206477570958     -0.08169586089966
  O   2.58609873108341     -0.56776500396908      0.40607055934562
  C   -1.66946545775883      0.80285041656870     -0.66690650449164
  N   -2.46215278807399      1.49850057746109     -1.18385564556233
  N   -0.38795705248957      0.33547404430068      1.39566070461170
  H   -0.12135235070485      1.31130948336588      1.43914315780599
  H   -1.18964671348941      0.19218848394638      1.99527929649666
