13
Coordinates from ORCA-job run
  C   0.56128416366758     -0.71349857954515     -0.19689193046217
  C   -0.58992342253211      0.24538727629069      0.07550925029845
  F   0.11509607754835     -1.68136375595917     -1.04125400794091
  H   -0.87128245449744      0.68225155514836     -0.89429095128572
  H   0.96735372517182     -1.15871852147891      0.70985003816079
  N   1.67302626243470      0.02925613050049     -0.88233678288907
  O   2.67532068874446      0.25263232601686     -0.20916176187469
  O   1.46164413425566      0.37581228298598     -2.03962336958058
  C   -0.13252707240943      1.32826421541976      0.95010201869018
  N   0.19956652500008      2.21404958391210      1.64465161738560
  N   -1.63926399039809     -0.52187438099793      0.73393920541759
  H   -2.35789478424355      0.09700372546354      1.08763046233494
  H   -2.06239985274201     -1.14920185775662      0.06087621174559
