13
Coordinates from ORCA-job run
  C   0.35436896273166     -0.59810269541890     -0.73384374792136
  C   -0.86631732182594      0.07113196340860     -0.07190408013690
  F   0.35245232512670     -0.35069869736893     -2.06165048144075
  H   -1.71707607077279     -0.23360357906369     -0.69198189708565
  H   0.37045017040099     -1.67385488102754     -0.54865265560246
  N   1.62591554884849     -0.04861161082152     -0.13824692858017
  O   2.33107695663765      0.66929319788455     -0.82853406672010
  O   1.80935287372808     -0.36835975118586      1.03516554862092
  C   -0.73251792474058      1.52976505378429     -0.20296839396100
  N   -0.59906556722032      2.69165474460549     -0.30003569556722
  N   -1.15153338527864     -0.28475529834062      1.29944037240384
  H   -0.33368547536651     -0.15286724623592      1.88111548982091
  H   -1.44242109226882     -1.25199120021994      1.36209653616990
