13
Coordinates from ORCA-job run
  C   0.60816368167276     -0.05439598699950     -0.76080090621360
  C   -0.68934209892555     -0.04164894281164      0.03414179973401
  F   1.17220266025209      1.17513808546296     -0.75073967219233
  H   -1.07651433814076     -1.06367572344070      0.03193290380141
  H   0.48638360960723     -0.40035029267255     -1.78863246730485
  N   1.53957499362570     -1.03297349502639     -0.08389738788603
  O   1.13311977739140     -2.18947285681907     -0.09323956894034
  O   2.57959862841000     -0.61090394446778      0.39116713578513
  C   -1.65924008196344      0.83141279191774     -0.65767149285342
  N   -2.43590293779574      1.54841938547561     -1.16973293155026
  N   -0.37849355306052      0.33456642198325      1.39841231830657
  H   -1.17883988323438      0.19681211078342      2.00109611474371
  H   -0.10071045783880      1.30707244661467      1.44596415456999
