13
Coordinates from ORCA-job run
  C   0.42692995617316     -0.21291237166574     -0.85057181532427
  C   -0.66446705445842     -0.00053113488651      0.18844147037197
  F   0.99034888025049      0.97131659286579     -1.18245145376815
  H   -1.05186646739621     -0.98789118273743      0.45241670988773
  H   0.07900700675683     -0.72549362919614     -1.74895464036820
  N   1.47538462143614     -1.10299909184456     -0.22439198548104
  O   2.59669896634124     -0.65370480254112     -0.06263076371903
  O   1.06728658319701     -2.22395660917456      0.05788086783247
  C   -1.75596715832169      0.78296487411568     -0.42501423957476
  N   -2.62927027573089      1.42095511922858     -0.88305873315202
  N   -0.05893755934681      0.59051166910188      1.36455513745301
  H   0.23498217560468      1.54080861781525      1.17554917891334
  H   -0.71012967450556      0.60093194891897      2.13823026692890
