13
Coordinates from ORCA-job run
  C   0.38552554592714     -0.78575131349876     -0.63178274813481
  C   -0.81902538682741     -0.01108365606730     -0.10067967290818
  F   0.37812436567562     -0.79638821111408     -1.98170516827530
  H   -1.66006246310496     -0.36682766438412     -0.70500999264854
  H   0.38844932162536     -1.80193399912618     -0.23406113202483
  N   1.67123548331710     -0.13510316422153     -0.16796795521444
  O   2.48413770614070      0.21165990783791     -1.00828026119631
  O   1.76811466604575     -0.02072471397218      1.05134904797483
  C   -0.65294505512388      1.43045591959770     -0.38328517620879
  N   -0.53971043042729      2.58414298460919     -0.57318136670261
  N   -1.08448003808150     -0.35477107985165      1.28217858988692
  H   -0.35114694259456      0.00622688496652      1.87890791487500
  H   -1.96921677257208      0.04109810522451      1.57351792057703
