13
Coordinates from ORCA-job run
  C   0.69100589619024     -0.50825650315874      0.05256219747383
  C   -0.71383710886604      0.10124546756640      0.02065899703482
  F   0.56744511034023     -1.86082494385579     -0.02328530185481
  H   -1.14891752330044     -0.19652942478608     -0.93977387721536
  H   1.27114670475460     -0.23521364411390      0.93446668505193
  N   1.46489753875354     -0.04105965751088     -1.14746119496208
  O   1.07628499632791     -0.45788401953808     -2.23374287132541
  O   2.38626152476495      0.74263604224965     -0.93587117453458
  C   -0.60621724337950      1.56363904896458      0.05232488874793
  N   -0.50597053367835      2.73149874584518      0.11151590314272
  N   -1.58260311042943     -0.36233652436050      1.08246753603326
  H   -1.22022755823772     -0.10750951084640      1.99314449438603
  H   -1.68126869324001     -1.36840507645546      1.03399371802168
