13
Coordinates from ORCA-job run
  C   0.36376515692593     -0.60750871486364     -0.78512157936867
  C   -0.79299074175576      0.07511170687752     -0.05931066705103
  F   0.38922973007710     -0.22278284678675     -2.08309800566343
  H   -1.70951366315488     -0.30126843013150     -0.54132801490377
  H   0.30102700514211     -1.69476808199507     -0.72149210698650
  N   1.66625314970164     -0.23294596205166     -0.13379652403454
  O   2.15923792904705     -1.08361168935097      0.59941971394637
  O   2.09882737532420      0.88613258468740     -0.37647996002042
  C   -0.76803318226350      1.52601056535030     -0.27869283084113
  N   -0.82361458969137      2.68877846049706     -0.42525947643378
  N   -0.67968946585590     -0.20509980756777      1.36357970124052
  H   -1.33749127547266      0.35468143482331      1.89008719914125
  H   -0.86700742802394     -1.18272921948824      1.55149255097511
