13
Coordinates from ORCA-job run
  C   0.51544671726038     -0.72034153687087     -0.41074405205047
  C   -0.62666502180414      0.19535660784666      0.02168038833345
  F   0.11897486135725     -1.45920509618201     -1.46997896566825
  H   -0.95145519530253      0.70613697610615     -0.88988805121972
  H   0.88204358112992     -1.36725619608404      0.38673425765481
  N   1.67511182189117      0.13461880745229     -0.84817012594214
  O   2.67482904591792      0.11688671228756     -0.13600850173681
  O   1.49908126583335      0.79519654419370     -1.86660543650290
  C   -0.13345784500038      1.20894877495422      0.97331649292907
  N   0.21734532380888      2.00032456359235      1.76760321047442
  N   -1.71451063329506     -0.62216294601967      0.52425127949139
  H   -1.56572499176173     -0.86271809748518      1.49647736492932
  H   -2.59301893003503     -0.12678511379118      0.45233213930782
