13
Coordinates from ORCA-job run
  C   0.37537020069163     -0.61690971676883     -0.80270865837828
  C   -0.82267848680260     -0.04339556788190     -0.04853433199230
  F   0.26576410423400     -0.35819072413999     -2.12313791278897
  H   -1.68828095624515     -0.32449449598855     -0.65749490023450
  H   0.45953579971692     -1.68963678664055     -0.62113229817822
  N   1.65802593882380      0.00954126225048     -0.29944947337253
  O   1.84402911990828     -0.12243840767195      0.90773157839150
  O   2.38479412774368      0.57236194160534     -1.10075911030029
  C   -0.75131222968622      1.43324072480702     -0.04022714392438
  N   -0.71188148358603      2.60634617819830      0.00619484436095
  N   -0.96497072274045     -0.67298445673059      1.24914709876920
  H   -0.20639526608149     -0.39428977444152      1.85826265877655
  H   -1.84300014597638     -0.40015017659723      1.67210764887126
