13
Coordinates from ORCA-job run
  C   0.32694501620580     -0.59277343297026     -0.75052166483293
  C   -0.87003915468530      0.05540499087687     -0.02737740451059
  F   0.25283996073713     -0.34706411194669     -2.07663887545276
  H   -1.74607733389482     -0.26747160870517     -0.60131694860923
  H   0.37149951405480     -1.66782115951606     -0.56578153177496
  N   1.61737752534509     -0.02009840571826     -0.22103345404839
  O   2.27219671358802      0.71127158542574     -0.94594089622787
  O   1.86802902508235     -0.33760806941120      0.94052999142412
  C   -0.77099215104756      1.51600204077618     -0.16853759896150
  N   -0.66564691055259      2.68006248480536     -0.27396072741806
  N   -1.07632242086399     -0.30141027958772      1.35779835451838
  H   -0.23103247610196     -0.15575400430231      1.89527197643091
  H   -1.34877730786697     -1.27274002972650      1.43750877946287
