13
Coordinates from ORCA-job run
  C   0.35698449814577     -0.60162317808778     -0.73014927459409
  C   -0.86847612657953      0.05280400998534     -0.06253041540426
  F   0.33397976516596     -0.37333407555794     -2.06121587477303
  H   -1.72074927656702     -0.27827692867317     -0.66681495610584
  H   0.39678290342767     -1.67405421582634     -0.53000154619923
  N   1.62451621880878     -0.01861687882499     -0.15826989013886
  O   2.30558892276951      0.70483250119835     -0.86666151695278
  O   1.83004437759776     -0.32021897615040      1.01627401109595
  C   -0.76621620342280      1.51180943535633     -0.21634072294558
  N   -0.65819342278706      2.67516513642344     -0.32653774686394
  N   -1.12892913762402     -0.28811968550496      1.31754526299238
  H   -0.30656907119785     -0.13152783260909      1.88658792496378
  H   -1.39976344773714     -1.25983931172879      1.39811474492546
