17
Coordinates from ORCA-job run
  C   0.64052070981021      0.25522804511026      0.45491552302684
  C   -0.42151301107477     -0.18522504139981     -0.53003632083772
  F   0.36809340376525      1.45017896332288      0.97821776317631
  H   -0.10300564682177     -1.15789824102832     -0.90549607947817
  N   0.83536808797180     -0.72550352597520      1.60204904009638
  O   1.10966475436463     -0.24218404207998      2.69286095529800
  O   0.72023984668456     -1.91230824571608      1.31775020330424
  N   1.99821468628952      0.33366734536577     -0.23579626185263
  O   2.59841979016616      1.39197351988343     -0.15431156965305
  O   2.34476468699731     -0.69160190321868     -0.80591141410431
  N   -0.34274011742405      0.77773966860591     -1.61908609822144
  H   -0.89212621635137      1.60255232489681     -1.41163299305449
  H   -0.68458499298265      0.37159898695767     -2.47881596954094
  C   -1.78086264904191     -0.29647423540935      0.15431874283916
  H   -2.07320262667364      0.66251492385716      0.58879506888782
  H   -2.53033468803746     -0.57763137019755     -0.58791657257479
  H   -1.78591601764182     -1.05462717297492      0.94009598268878
