17
Coordinates from ORCA-job run
  C   0.96721815425180      0.12637623362206      0.14850180585168
  C   -0.25996295712555      0.22859700541211     -0.74956414181961
  F   2.02016228159863      0.72614811922730     -0.40836682062649
  H   0.16113075426660      0.02205130028823     -1.73988444443927
  N   0.77559542366761      0.72655873582811      1.52800227591391
  O   1.79335189696876      1.10029054258424      2.09184828691616
  O   -0.36931480972275      0.76039138707419      1.96243259402098
  N   1.33653929151807     -1.33133418457700      0.37211745384156
  O   1.88387145614432     -1.86814823156217     -0.58179467512755
  O   0.99895216898241     -1.84647097275556      1.43060025532489
  N   -0.66590051546902      1.62511826810838     -0.71790683248526
  H   -0.99615126577414      1.92164357856584     -1.62517157470447
  H   -1.40209458924410      1.76424832461257     -0.03777423002400
  C   -1.34904373031524     -0.80010853587287     -0.46062510267741
  H   -1.74753329187380     -0.68142944341001      0.54614919042917
  H   -0.98963352928274     -1.82478754363723     -0.57900532868349
  H   -2.15818673859087     -0.65014458350819     -1.17855871171080
