17
Coordinates from ORCA-job run
  C   0.60606915753773      0.29627189072732      0.35360822650411
  C   -0.49563023454544     -0.24480175035255     -0.54880592354031
  F   0.35327606104861      1.54402363792100      0.76200764244109
  H   -0.16266245825847     -1.22590163635754     -0.89130160647123
  N   0.78904894552934     -0.58492494453009      1.57354960873749
  O   0.46835659420820     -0.12532130228694      2.65809010502297
  O   1.20244876153409     -1.71144630995933      1.31976865065013
  N   1.98157192086547      0.31388485073918     -0.30241425527416
  O   2.12334980395125     -0.32420409332741     -1.33910173273835
  O   2.83095022638849      0.96558424040435      0.29195285013495
  N   -0.72018216197097      0.59302391340709     -1.70777980167501
  H   0.08120536391030      0.59328955542716     -2.32445480633113
  H   -0.93893945559885      1.54355133785942     -1.43662061302674
  C   -1.78204256003344     -0.38302523921843      0.25746633456585
  H   -1.69080686855849     -1.11844691171620      1.05856731742546
  H   -2.56977012896044     -0.70565481448136     -0.42263240135887
  H   -2.07424296704740      0.57309757574432      0.69810040493376
