17
Coordinates from ORCA-job run
  C   0.61976983246932      0.25802892035360      0.35964812773390
  C   -0.50425136058180     -0.21550134593598     -0.55315609913424
  F   0.44601904352087      1.52300214924474      0.75583380409955
  H   -0.23371629144447     -1.21972795225977     -0.88345558751961
  N   0.72821028275252     -0.62366021207077      1.58825157638753
  O   0.42460311537425     -0.13487688196915      2.66496225389489
  O   1.06896023552399     -1.77722929563109      1.34852551516604
  N   2.00121906844660      0.17812761730320     -0.27873571002476
  O   2.11314632803093     -0.47805187985250     -1.30780277723273
  O   2.88487062201806      0.77799375027169      0.32031562645229
  N   -0.65672275917701      0.62546741943446     -1.72158531613173
  H   0.15083197335932      0.56628846989614     -2.32731140312363
  H   -0.81428728121143      1.59089028361187     -1.46075588980831
  C   -1.80755102328655     -0.25996149956402      0.23637169895759
  H   -2.60578752544674     -0.53723028738325     -0.45141516166893
  H   -2.04169354021145      0.71820608281176      0.66312643032934
  H   -1.77562072013641     -0.99076533826093      1.04618291162280
