17
Coordinates from ORCA-job run
  C   0.66545379377995      0.18054980593516      0.46403031580322
  C   -0.47138441260510     -0.07750751886878     -0.51090804990987
  F   0.49202302249654      1.27908268663797      1.18675172888713
  H   -0.26710104454616     -1.04325175552385     -0.98131015002736
  N   0.83309869957082     -0.99709155271404      1.41444257097502
  O   1.13128024335224     -2.05580756399378      0.87186016572186
  O   0.61941213423586     -0.79689824780542      2.60076081203270
  N   2.00811806485619      0.29439636615094     -0.24577407839837
  O   2.10421975268061     -0.24844207182151     -1.33958207225093
  O   2.87976240726232      0.89664849747183      0.36618705951990
  N   -0.45556386149048      1.03105378033569     -1.45191818110057
  H   -0.00919062031610      0.76687582557205     -2.31864315427442
  H   -1.39008557705957      1.36170892407042     -1.64430201579953
  C   -1.78347711226546     -0.13767377331383      0.25914954299024
  H   -2.59525535193521     -0.36860813455745     -0.43344734030637
  H   -1.98715278768152      0.82408584298556      0.73365306190438
  H   -1.77515735033494     -0.90912111056096      1.03104978423296
