17
Coordinates from ORCA-job run
  C   0.96551731449310      0.14894987300179      0.13675341014715
  C   -0.27087653111859      0.20494895783214     -0.75260099966300
  F   2.00204966968342      0.75450634574039     -0.44438969089310
  H   0.14596189164502     -0.01868742862314     -1.74101999073475
  N   0.77435832521459      0.77971108732014      1.50239304914925
  O   1.78971958481335      1.18497787875928      2.04854595660276
  O   -0.36764921995216      0.80413805320276      1.94523996562069
  N   1.36519260590340     -1.29558206200635      0.39325921005672
  O   1.04569793749089     -1.79073187076567      1.46679284562012
  O   1.91516348093269     -1.84525688752357     -0.55179637612102
  N   -0.70378939272384      1.59334355627691     -0.75235322301867
  H   -1.04464093883069      1.86186278649643     -1.66432373932755
  H   -1.43784330290239      1.73586358837887     -0.07070073879935
  C   -1.33693895469027     -0.83741399316781     -0.42807515601050
  H   -1.72711935360778     -0.70365665333078      0.57999049783600
  H   -2.15627438708400     -0.71968216671033     -1.14041822382541
  H   -0.95852872926674     -1.85729106488106     -0.52729679663934
