17
Coordinates from ORCA-job run
  C   0.64949784398436      0.25287051665414      0.44307460934180
  C   -0.43425821104258     -0.17732010071713     -0.52238527679230
  F   0.37382621744419      1.42769711868692      1.00846838109544
  H   -0.11194868711721     -1.13346415047532     -0.93521884140126
  N   0.89458967049524     -0.75667047625381      1.55505408492448
  O   1.19306785566118     -0.30017112736967      2.65100932852449
  O   0.79080836764706     -1.93660820432705      1.23949129510101
  N   1.98447117951473      0.37405457605872     -0.28507762711025
  O   2.33068242070064     -0.62840816504807     -0.89453941110564
  O   2.56996473059247      1.43948208700777     -0.19015312797754
  N   -0.40361381528304      0.81720547172695     -1.58519752029612
  H   -0.95924931259396      1.62670854665289     -1.33789612614113
  H   -0.76530583282137      0.42968231537696     -2.44540059010470
  C   -1.77050804176270     -0.33105150910850      0.19847122578945
  H   -2.53768334489418     -0.60202999520818     -0.52933809972120
  H   -2.06436508264218      0.60963302662504      0.67027311801628
  H   -1.73997595788266     -1.11260993028165      0.96036457785720
