17
Coordinates from ORCA-job run
  C   0.71132445032427     -0.42403171638412      0.25889747399092
  C   -0.49956291663854     -0.24235018471399     -0.66208528833091
  F   0.88867646700772     -1.71708225192488      0.57469293234350
  H   -0.32441767578217     -0.97372638239688     -1.45782489402888
  N   2.03177699272355      0.02942634973481     -0.34031641273148
  O   2.93800416923980      0.24562563423255      0.45451062186628
  O   2.09853301301681      0.04792649082095     -1.56496894855328
  N   0.54539274835257      0.36266224815059      1.53613560709309
  O   0.54481241118838      1.58050883466103      1.38462194157539
  O   0.36532979659638     -0.26193982448426      2.56967150306028
  N   -0.66494187984607      1.05161771365469     -1.27592451455813
  H   0.10679450706992      1.26662787146498     -1.89194435181357
  H   -0.74553373982008      1.78235056994585     -0.58106042005803
  C   -1.75684951615525     -0.62453271806893      0.11199477730906
  H   -2.58736965705504     -0.67662027808373     -0.59128754714252
  H   -1.65298476027298     -1.58498228309246      0.61839129921444
  H   -1.99798440994926      0.13751992648382      0.85849622076383
