17
Coordinates from ORCA-job run
  C   0.95852266872213      0.22911327458887     -0.04526481827890
  C   -0.40481303475494      0.09702308917574     -0.71290637048639
  F   1.83135035843732      0.83352509543152     -0.85225640869653
  H   -0.13513954870491     -0.21130117284206     -1.72925984430631
  N   0.93547891411866      0.99857430507613      1.26125765064507
  O   -0.11747482417400      0.99485888265094      1.88744547818783
  O   1.98635671723666      1.53297725428615      1.58300823979406
  N   1.51802195474644     -1.14508435607676      0.28686988696050
  O   1.95464846740913     -1.76094939349886     -0.67633031409780
  O   1.42111175742236     -1.53317575860148      1.44426249171495
  N   -0.95066221073717      1.44340994782632     -0.78318149899080
  H   -1.57474654376251      1.61415388193579     -0.00525237579112
  H   -1.45673730147666      1.57883001471314     -1.64668213752115
  C   -1.31131002856079     -0.96988455841864     -0.10611149610827
  H   -2.23933102479256     -0.99566271378115     -0.68116360880145
  H   -1.54863340233411     -0.74244170564898      0.93232237884326
  H   -0.86564291879504     -1.96596608681667     -0.15575725306696
