17
Coordinates from ORCA-job run
  C   0.72228524403247     -0.46555707636907      0.33332589280298
  C   -0.42055386393062     -0.19885661244414     -0.62889672614386
  F   0.82358778317344     -1.77222719686253      0.61440854743678
  H   -0.21699111616731     -0.91786151101738     -1.43029936422127
  N   2.03475812406119     -0.02816003883638     -0.30260960626798
  O   2.61284768744279      0.93532489167266      0.17649942629822
  O   2.36778698984618     -0.70855675862607     -1.26113933523153
  N   0.62209271068390      0.27822624439249      1.65108123134672
  O   0.04007697901098      1.35720336062544      1.62389300922166
  O   1.14557692748430     -0.25627014919079      2.61782731057863
  N   -0.26054216081487      1.12593159072476     -1.19646268480026
  H   -0.72682148739130      1.18412071065980     -2.09111598130273
  H   -0.63650167289333      1.83071778029894     -0.57649246784277
  C   -1.76900438720783     -0.53089830801118      0.00739650038979
  H   -1.76498271671499     -1.52069753376328      0.47055077914228
  H   -2.03610990205306      0.21241777576641      0.76019640245701
  H   -2.53950513856193     -0.52385716901967     -0.76616293386366
