17
Coordinates from ORCA-job run
  C   0.66355127428703      0.20149649076592      0.45286113283996
  C   -0.43199413314621     -0.14334988330148     -0.53411412916556
  F   0.50121368988800      1.41763162712266      0.97076618561887
  H   -0.19685566934535     -1.13797819143441     -0.91312576310192
  N   0.75142207128599     -0.79187219535766      1.60274497886765
  O   0.96156135061088     -0.32984810065130      2.71628891886041
  O   0.61082148594338     -1.97028028020227      1.29554979223162
  N   2.02704230041963      0.15185181857872     -0.22956810010659
  O   2.74357742421297      1.13043029876918     -0.09757921576653
  O   2.26314146550164     -0.88018451670563     -0.84196191364675
  N   -0.27552739498623      0.81608540882634     -1.61710714570361
  H   -0.61708568702754      0.43293911619685     -2.48716267086050
  H   -0.77969029709018      1.67131838364675     -1.41955444172810
  C   -1.79371431682317     -0.14307573297109      0.15444486887537
  H   -1.86043921583562     -0.90343575475757      0.93563405439679
  H   -2.56739312725810     -0.35446182168071     -0.58597764880507
  H   -2.00163122063713      0.83373333315572      0.59786109719395
