17
Coordinates from ORCA-job run
  C   0.68391012115814      0.12386610111957      0.45562383802512
  C   -0.48260799551488     -0.03854158985646     -0.50475602832911
  F   0.61254160817831      1.23398172382647      1.17817393897259
  H   -0.36781656664454     -1.01995373259810     -0.97333680766909
  N   0.76209867377229     -1.06285333483282      1.40653367583788
  O   0.96605725495884     -2.14331870870786      0.86323461830076
  O   0.57939105333569     -0.84384605490597      2.59473274672013
  N   2.02288597591296      0.12322274804085     -0.26982755154031
  O   2.05925747923806     -0.42724046061838     -1.36352519202891
  O   2.94927647296618      0.65146173662245      0.32991283934635
  N   -0.38498401016176      1.06182967599437     -1.45034395834163
  H   0.03367294020999      0.75987617967686     -2.31861952552612
  H   -1.29197022935931      1.46382494066337     -1.63873814072353
  C   -1.78546317471550      0.01716032538443      0.28128854927386
  H   -2.62213427556247     -0.15071941809512     -0.39974569341245
  H   -1.83230503618653     -0.74541297071851      1.06053928138815
  H   -1.90181029158549      0.99666283900487      0.74885340970630
