17
Coordinates from ORCA-job run
  C   0.65324625194869      0.24212405172478      0.44362308398920
  C   -0.43696738629407     -0.16931247963472     -0.52272089325052
  F   0.39620700819824      1.42011682433316      1.01112319115678
  H   -0.12939143806715     -1.12951125865670     -0.93736797362467
  N   0.88241913474170     -0.77313787300524      1.55383359849552
  O   0.75961989818507     -1.95074029753202      1.23636591994787
  O   1.18921876259186     -0.32332566751164      2.65026386090091
  N   1.99006530141810      0.34348930276235     -0.28440959255972
  O   2.59203606474463      1.39952543161964     -0.18790000307660
  O   2.32047792444877     -0.66335303943485     -0.89539913690515
  N   -0.39060841959021      0.82657935619641     -1.58378496606090
  H   -0.75833825858103      0.44623076257101     -2.44463662775256
  H   -0.93344433706200      1.64426455365988     -1.33496376759444
  C   -1.77557505971211     -0.30356517778593      0.19747523252470
  H   -2.05501088275177      0.64065060787135      0.67105351739500
  H   -1.75715201055075     -1.08661462885720      0.95823952420558
  H   -2.54680255366796     -0.56142046832026     -0.53079496779101
