17
Coordinates from ORCA-job run
  C   0.70979918264863     -0.53739448081243      0.23887982942542
  C   -0.44714377785469     -0.09089830115060     -0.63592637700938
  F   0.75932420760959     -1.87375043564449      0.33038588828284
  H   -0.30055588422197     -0.69809321612983     -1.53616398424442
  N   2.02194554634131     -0.06848404519589     -0.37482280507503
  O   2.29661360596615     -0.62075053437941     -1.42937837293016
  O   2.65510286853625      0.79525764955690      0.21263726486474
  N   0.68130720329502      0.01606560096132      1.65057060292059
  O   1.20616206212474     -0.67140653207260      2.51441005772342
  O   0.14948145554295      1.11147106878168      1.79476907458222
  N   -0.24394095292024      1.29259004826522     -1.01883244166684
  H   -0.56713350097461      1.91842481615017     -0.29340332098556
  H   -0.73352345987489      1.49570530535711     -1.87917585333611
  C   -1.79015345996025     -0.45337856509916     -0.00408858047266
  H   -1.81753074911287     -1.49738112760406      0.31767555815676
  H   -2.58187254999103     -0.30706711317064     -0.74156574701301
  H   -2.00088179715410      0.18808986218671      0.85302920677716
