17
Coordinates from ORCA-job run
  C   0.80819374486166     -0.35204534118567      0.21124840161172
  C   -0.53848916710388     -0.47315102084711     -0.50425582857762
  F   1.65662755565428     -1.28450018033662     -0.25435156741835
  H   -0.75866095719488     -1.54215471768721     -0.39227393356195
  N   1.52203281996012      0.98056927057152      0.07939449202513
  O   0.86518345991306      1.94222893616735     -0.30397122565159
  O   2.70820472105829      0.96770361869124      0.37851804527860
  N   0.63972633307582     -0.57846980469774      1.70039989919464
  O   0.55532202626473      0.41949361170692      2.40612195478534
  O   0.52329128275547     -1.74928145797830      2.03576551903930
  N   -0.44826737878577     -0.19458927137996     -1.92117278972253
  H   -0.25872513328168      0.78559567829550     -2.08481434878030
  H   0.26314288159486     -0.75716615969372     -2.36991838065139
  C   -1.66451007856756      0.31812028154830      0.14405072273248
  H   -1.83292744940281      0.01421758827113      1.17828386151783
  H   -2.57341627642760      0.11676700654996     -0.42356287429306
  H   -1.46672838437410      1.38866196200443      0.12253805247176
