17
Coordinates from ORCA-job run
  C   0.88306925945618      0.15445162227948     -0.02267587187665
  C   -0.45384176809551      0.00146353946650     -0.75823646020817
  F   1.67880081546133      1.03386174201121     -0.65442556541615
  H   -0.20429103570390     -0.56308317409365     -1.66252430446113
  N   0.66116349093380      0.65059503893731      1.38783911624624
  O   0.48361016513956     -0.20992936142739      2.24167636449936
  O   0.59423898966897      1.86586125074559      1.52350284613791
  N   1.70262562040636     -1.11763033053520      0.11484023431689
  O   2.78850690072255     -0.97291740606926      0.66078975687988
  O   1.23824203684295     -2.14839633666941     -0.35885715514088
  N   -1.00135330520616      1.27996865606783     -1.16142928272066
  H   -0.33862070437018      1.80868132030873     -1.71352891589951
  H   -1.25758049729380      1.83800263918928     -0.35567268402368
  C   -1.48866455930767     -0.76923170382458      0.04669239902880
  H   -1.11218777410506     -1.73107694735186      0.38910131290190
  H   -1.81519496985369     -0.19314306412716      0.91643931537823
  H   -2.35652266469573     -0.93047748490742     -0.59253110564237
