17
Coordinates from ORCA-job run
  C   0.71857810594354     -0.41872759825266      0.24616086306404
  C   -0.51055062813633     -0.24627354998925     -0.65242559760175
  F   0.90813258286832     -1.70994734905569      0.56262383602568
  H   -0.34515310664623     -0.97769237270452     -1.45027778247767
  N   2.02572353666076      0.03922363435252     -0.37811161405450
  O   2.06827794417277      0.06451638057966     -1.60369480143056
  O   2.94716034955049      0.25181154835811      0.40002443710150
  N   0.57261925400057      0.37126281703118      1.52386999650316
  O   0.41114016650381     -0.25053517943159      2.56204236595669
  O   0.56726498815768      1.58858088765794      1.36806056430537
  N   -0.69715063033464      1.04568497766157     -1.26407006042218
  H   0.06287998998349      1.26731067619482     -1.89212457489030
  H   -0.77296858046967      1.77601894562981     -0.56820472957584
  C   -1.75035834391360     -0.63681368568235      0.14544368690350
  H   -1.63087122027423     -1.59697736374866      0.64881735540585
  H   -2.59363314922375     -0.69362967814337     -0.54214161355132
  H   -1.98209125884297      0.12318690954249      0.89700766873831
