17
Coordinates from ORCA-job run
  C   0.66222982374247      0.22349543554082      0.45125178319127
  C   -0.46293570295729     -0.13369196849122     -0.50607522851856
  F   0.50082511378324      1.40988679530470      1.02255617768746
  H   -0.27234697362524     -1.15568661556472     -0.84432137946136
  N   0.78514907326899     -0.82418449976802      1.54927751169834
  O   0.55993076849958     -0.46537243878912      2.69546365639465
  O   1.06379849801097     -1.95145221649327      1.15483089947574
  N   2.01800257373993      0.21779828673971     -0.24176177438975
  O   2.88870763397659      0.89160276286442      0.29160636041394
  O   2.12256106381637     -0.47892170236299     -1.24366851033417
  N   -0.40004490445339      0.84132515672086     -1.58295585171752
  H   -1.31792209372531      1.18984560365694     -1.81850918259127
  H   0.03147842662938      0.44851728840241     -2.40718991259465
  C   -1.79009340231144     -0.06653495184540      0.23681918931251
  H   -2.59415404015670     -0.36645267278617     -0.43803565471074
  H   -1.81462816807865     -0.73235226447263      1.10122652134905
  H   -1.97955769015952      0.95217800134365      0.58048539479507
