17
Coordinates from ORCA-job run
  C   0.94266629957301      0.26500900774040      0.11993988028064
  C   -0.32953963253028      0.23817155547465     -0.71882186370074
  F   1.86188015324366      1.06044547508207     -0.42871473439640
  H   0.06778619298392      0.16686349172040     -1.73759344351400
  N   0.73306333468901      0.72673597101712      1.54915556116834
  O   -0.38253718708466      0.56043814792618      2.02717752107857
  O   1.71281160117448      1.20302456444998      2.10298197602022
  N   1.54060311403594     -1.12948638322930      0.21366301863975
  O   1.33315036477457     -1.76703237019635      1.23851867124003
  O   2.11893627010348     -1.50362265323038     -0.79783211966404
  N   -0.94030922720111      1.54898338199369     -0.56624553441023
  H   -1.35752153771584      1.85246393036275     -1.43452094848436
  H   -1.65306553711270      1.52598588397844      0.15160391867662
  C   -1.23385722595416     -0.96477983562086     -0.46620561475891
  H   -2.09191182350036     -0.89208382124268     -1.13785474684808
  H   -0.72937607512809     -1.91020459291263     -0.67796496846919
  H   -1.59377908435086     -0.98091175331347      0.56171342714181
