17
Coordinates from ORCA-job run
  C   0.81281420359601     -0.42067350954403      0.17677525159971
  C   -0.54641560667110     -0.34501992852972     -0.49618186266333
  F   1.61110259398788     -1.26415441006140     -0.50506404929260
  H   -0.90508974243634     -1.38412782296053     -0.49127838289976
  N   1.49208160041139      0.92844753395468      0.23709426890989
  O   2.46111867497407      1.10754794675912     -0.47906756528988
  O   0.96684486907726      1.71814943335293      1.01305106518693
  N   0.80036068188664     -0.94472307413020      1.60064320943728
  O   1.82328365742403     -0.75254180953548      2.24612432027171
  O   -0.18631993019185     -1.58577291915820      1.94646438343458
  N   -0.26781740929546      0.18339009113959     -1.82655747403061
  H   -1.12882544884269      0.48291554330963     -2.26461523941556
  H   0.16467130151269     -0.51569905595376     -2.41667619265704
  C   -1.57305106752413      0.53692905895768      0.19700756960433
  H   -1.69997498014618      0.27363024588068      1.24502920299806
  H   -1.29090802122270      1.58596288350746      0.12120199413588
  H   -2.53487537653951      0.39573979301155     -0.30295049932961
