17
Coordinates from ORCA-job run
  C   0.62881547161656      0.22820369181388      0.48495430760051
  C   -0.40102304130403     -0.17322433525662     -0.54945336812462
  F   0.40405271909910      1.45217833509673      0.96158405844779
  H   -0.12332242377404     -1.17341505262148     -0.88262687839528
  N   0.69364960228139     -0.73011986217823      1.66537123472746
  O   0.92531302475248     -0.23385772122642      2.76016247775994
  O   0.52844842407635     -1.91566374461701      1.40121383037334
  N   2.02599708272595      0.20294190836219     -0.12734000800928
  O   2.33912402355251     -0.85723096053663     -0.65096376484561
  O   2.68683127123351      1.22371575385972     -0.03603410320973
  N   -0.20052059554044      0.75287578849015     -1.65475607728673
  H   -0.52019653125348      0.34541248319740     -2.52238538502569
  H   -0.70668527552111      1.61578674509781     -1.49851116853216
  C   -1.80111547300834     -0.18308169101704      0.05757198292966
  H   -2.52390947184890     -0.43655708482090     -0.72024867731326
  H   -2.05689055123983      0.80265271758718      0.45354147906377
  H   -1.89756825584769     -0.91961697123073      0.85792005983988
