17
Coordinates from ORCA-job run
  C   0.86975157359281      0.25041382911742      0.05182648003131
  C   -0.42947982006397      0.15125125599068     -0.74956410785785
  F   1.71399131982869      1.10340913243703     -0.55235742577068
  H   -0.05634353172645     -0.04607412611431     -1.76231313763340
  N   0.73899470480072      0.72260753844909      1.48858024454617
  O   1.78190566729020      1.09016868402967      2.01195903721994
  O   -0.37558785608902      0.69378308531346      1.99838173614684
  N   1.54974171854208     -1.10195930694891      0.12874282079770
  O   1.36178834878883     -1.75861315387795      1.14588183710664
  O   2.15599849357127     -1.43466204960771     -0.88051695528056
  N   -1.15943264183593      1.39975172407737     -0.79232456835592
  H   -1.54103932819266      1.62645550194610      0.11673647870071
  H   -0.57941146828508      2.16292051454001     -1.11656925671684
  C   -1.33076522592458     -1.00286851175739     -0.33718287261610
  H   -0.83224016892492     -1.96724801860570     -0.44584672412762
  H   -1.67000467102546     -0.89943764633737      0.69234002960174
  H   -2.19886711434651     -0.99089845265148     -0.99677361579208
