17
Coordinates from ORCA-job run
  C   0.84692271425701     -0.48730597179392      0.13422661222188
  C   -0.51667765969632     -0.35999069756640     -0.53420429694040
  F   1.55290840062192     -1.48313898859852     -0.40298734413228
  H   -0.82999492571266     -1.40655183246104     -0.61968381391485
  N   1.69540434166141      0.76742411265121      0.05710261592725
  O   2.90264026987052      0.59799863203063      0.14333875146726
  O   1.10095249968073      1.83243077521300     -0.05724019337919
  N   0.68062803974497     -0.79005805067910      1.61486079791830
  O   0.36162139280577     -1.94482215735954      1.86451981109032
  O   0.80520752770904      0.14089425904026      2.40069492543311
  N   -0.26203713495190      0.14328702272492     -1.87470847482105
  H   -0.89051743228463     -0.28097760419598     -2.54179619309759
  H   -0.37891584812759      1.14787514388429     -1.90414681069788
  C   -1.56056464200651      0.39303478667265      0.28538977362162
  H   -1.25509303421080      1.42300050253732      0.46496868307799
  H   -1.75591294562949     -0.08924114655119      1.24581910630844
  H   -2.49657156373148      0.39714121445139     -0.27715395008294
