17
Coordinates from ORCA-job run
  C   0.79874787941121     -0.41895558858732      0.09081711838174
  C   -0.60300702548925     -0.36774693737171     -0.51940285373678
  F   1.55139586608963     -1.31392056726927     -0.57099102083833
  H   -0.87856512299972     -1.42955726530887     -0.54187565091287
  N   1.58036592126599      0.88214900548739      0.09025815950385
  O   0.95655195839386      1.92068611949908     -0.09779540456927
  O   2.78238872643633      0.76714762302054      0.28636013761153
  N   0.73012896339908     -0.85114544299947      1.54221269058710
  O   0.75809258765094      0.03676785414307      2.38589908720072
  O   0.57046180415040     -2.05129678886464      1.71786511703796
  N   -0.60331509515836      0.10928627835074     -1.88552355752646
  H   0.03607407398714     -0.41731084797337     -2.46682783513657
  H   -0.36581901120658      1.09190531732640     -1.92455935131414
  C   -1.62660712238364      0.37564324381956      0.32533379008301
  H   -1.36654744006452      1.42718996488220      0.43648683129228
  H   -2.58671898328646      0.30260012821353     -0.18616258804058
  H   -1.73362798019604     -0.06444209636786      1.31790533037678
