17
Coordinates from ORCA-job run
  C   0.94870219102197      0.22837324065261      0.14600546281630
  C   -0.30712498160808      0.27288777227478     -0.71618594246476
  F   1.90538334780487      1.00807364934684     -0.35930326323161
  H   0.10718150924225      0.22494301467035     -1.72950558364039
  N   0.72626860329939      0.65144168390167      1.58510307386925
  O   1.70758292354995      1.08476538670074      2.17048445016308
  O   -0.40140717229822      0.49809233294076      2.03855526744991
  N   1.49727926085863     -1.18860605589042      0.20497952903492
  O   1.25468256564271     -1.85008442344808      1.20656873551218
  O   2.07780984934094     -1.55026566695152     -0.80985619159915
  N   -0.87763205147942      1.59744603942302     -0.52765117958970
  H   -1.26668956539610      1.94544461542889     -1.39227647360939
  H   -1.60531850741830      1.57305692523366      0.17499768596283
  C   -1.25519959934789     -0.90693546283707     -0.52308668998174
  H   -1.63517845813897     -0.94618617393580      0.49695344824375
  H   -2.09718350034846     -0.78244418781716     -1.20730735874654
  H   -0.77815641472526     -1.86100268969326     -0.75847497018895
