17
Coordinates from ORCA-job run
  C   0.72229854430262     -0.47198817415829      0.32513048500476
  C   -0.42624191989836     -0.19285850640057     -0.62694584321006
  F   0.81817803447319     -1.78087216664189      0.59723779798085
  H   -0.23370345573625     -0.90890380799821     -1.43365791661096
  N   2.03217840197021     -0.03761611260112     -0.31747015671193
  O   2.35391794425504     -0.71328650612407     -1.28330677605634
  O   2.61959649615670      0.91913723584881      0.16382644867606
  N   0.63584044228808      0.26424432190678      1.64826928271877
  O   1.16185688559821     -0.27976068583672      2.60828554770206
  O   0.06005979697744      1.34676691064616      1.63139109813035
  N   -0.26245499339510      1.13396818380332     -1.18815557214764
  H   -0.63211782734767      1.83778311877746     -0.56342329708423
  H   -0.73034600465121      1.19940797805120     -2.08139183818652
  C   -1.77190347812154     -0.51987489425023      0.01784129102395
  H   -2.02843816559153      0.22063270267078      0.77703682317957
  H   -1.77058790789077     -1.51242203642213      0.47513629123486
  H   -2.54813279338906     -0.50335756127130     -0.74980366564358
