17
Coordinates from ORCA-job run
  C   0.87676160589226     -0.41084543852996      0.18933048768631
  C   -0.46028967401005     -0.42033636496700     -0.54168980295407
  F   1.68480274381117     -1.36432562366237     -0.27571677051864
  H   -0.68226720133141     -1.49172586955236     -0.60219031513718
  N   1.62338555920224      0.90586714136653      0.09804451702402
  O   0.94939970798721      1.91346323296832     -0.07884087921542
  O   2.83573927417004      0.84057103826500      0.23748042193712
  N   0.66723955662150     -0.67164589680344      1.67265600162384
  O   0.68366924855213      0.29400952552503      2.42557319474031
  O   0.42915453191593     -1.83841373932166      1.95454244044684
  N   -0.18618907769548      0.05598565400464     -1.88852098117765
  H   -0.37867422023583      1.04691521805559     -1.95896026572456
  H   -0.75281518402931     -0.43752513570868     -2.56347440844870
  C   -1.59900705010002      0.26995513193800      0.20337715074456
  H   -1.38722410050586      1.32723734247399      0.35739963646353
  H   -2.50534871523544      0.17732573041521     -0.39873850889297
  H   -1.79833700500906     -0.19451194646682      1.17172808140264
