17
Coordinates from ORCA-job run
  C   0.73202515587927     -0.46368623091541      0.22120214408669
  C   -0.50163594314103     -0.07216830492631     -0.58078024137045
  F   0.76034903600947     -1.77539026841584      0.49121151151608
  H   -0.33568911638747     -0.50714281957017     -1.57821232630116
  N   2.04043871362202     -0.14639292822486     -0.49281880157322
  O   1.98542353501776      0.57744590883369     -1.48123863631130
  O   3.03727645156474     -0.66112271445678     -0.00720056466649
  N   0.80039620385954      0.29711144642396      1.53297973476090
  O   0.12455618122238     -0.17377516712725      2.43741018723627
  O   1.48463175418443      1.30908266435965      1.55199240565109
  N   -0.61798753339004      1.37376476595340     -0.57384865259494
  H   -1.55962660986924      1.64716214869833     -0.81990624782084
  H   0.02937430889537      1.79290706425841     -1.22755755951685
  C   -1.75520383406691     -0.69054863007588      0.02666684106849
  H   -2.59532204696333     -0.50178043110139     -0.64605119997604
  H   -1.65620911661454     -1.76763538703595      0.15155324328018
  H   -1.97279713982243     -0.23883111667759      0.99459816253160
