17
Coordinates from ORCA-job run
  C   0.82482983799118     -0.36074292579727      0.11050522274829
  C   -0.55396750246965     -0.39910633495537     -0.55041994200601
  F   1.66521195352843     -1.18359722653130     -0.53894159815909
  H   -0.74641620150295     -1.47756537798095     -0.61030436675064
  N   1.50574769688076      0.99515865112044      0.16229457355651
  O   2.70925087630677      0.96629265650404      0.37989240703448
  O   0.80771472800629      1.98840455563859     -0.00850892422616
  N   0.73641780066993     -0.82816322571134      1.54988692442169
  O   0.64737336433231     -2.03997259906994      1.69364518173363
  O   0.68163349186544      0.03930572191689      2.41321732189629
  N   -0.54239711275004      0.11584905299301     -1.90258641963084
  H   0.15705925703805     -0.34191758595574     -2.47286821589962
  H   -0.38300218143489      1.11487808056090     -1.90720024400256
  C   -1.66056443285027      0.23911128758711      0.27568574400323
  H   -1.48317335969975      1.30191411283506      0.43239644620410
  H   -1.77203061878890     -0.24416498451393      1.24755444206281
  H   -2.59268759712272      0.11531614135980     -0.27624855298611
