17
Coordinates from ORCA-job run
  C   0.72003285891362     -0.40431089572135      0.26617944235570
  C   -0.50253467080558     -0.27293146863296     -0.64792539520537
  F   0.91955064063302     -1.68258143174894      0.62600625732253
  H   -0.32485128224127     -1.02996959394013     -1.41870930182192
  N   2.02759124069113      0.04623141677052     -0.36285231434935
  O   2.93826578188226      0.30466512739864      0.41402453793848
  O   2.08189492914472      0.02087209808329     -1.58797543396308
  N   0.55532353535350      0.42502535129562      1.51636003694939
  O   0.53534429896139      1.63651378174832      1.32152771767252
  O   0.39462189784254     -0.16477078665129      2.57321965130485
  N   -0.69247482722406      0.99579167324268     -1.30580724928486
  H   0.07018427273614      1.19986684448031     -1.93664848361085
  H   -0.77778181793277      1.74953410065423     -0.63658516808020
  C   -1.74643388775026     -0.64467608780981      0.15231937110979
  H   -1.62425825718613     -1.58593244000353      0.68970447304478
  H   -2.58329856054856     -0.73143735309236     -0.53994209013326
  H   -1.99017615246968      0.13910966392677      0.87510394875083
