17
Coordinates from ORCA-job run
  C   0.91472434863069      0.18000994014284      0.01617167215919
  C   -0.42394101550082      0.06926671001706     -0.69236239373918
  F   1.73392324901089      0.98719718946544     -0.68442930219223
  H   -0.16839446337800     -0.32602964360299     -1.68571194003980
  N   0.77392291799002      0.74490167258043      1.41109663088459
  O   1.18956223665856      1.87248095428318      1.61055947224305
  O   0.22810533234322     -0.01286031905365      2.20448920788594
  N   1.67402558298100     -1.12470447741428      0.16976007345832
  O   2.60105266924623     -1.10912101990439      0.96995478135796
  O   1.35346830136359     -2.04302474766568     -0.57727544515681
  N   -0.94376555277186      1.43142739898682     -0.70860130472649
  H   -0.45718986806130      2.00341038441457     -1.38675366708366
  H   -1.92718220693776      1.42219305591057     -0.94433813904999
  C   -1.43787824608937     -0.85537547584094     -0.03700957644077
  H   -1.78403195756502     -0.43717694473496      0.90699008848295
  H   -1.03370849337377     -1.85030999279961      0.13760507786112
  H   -2.29269283454630     -0.95428468478440     -0.71114523590418
