17
Coordinates from ORCA-job run
  C   0.71583637163564     -0.41559633019071      0.25997424174743
  C   -0.50415439172802     -0.25653537700705     -0.65336876014188
  F   0.90299108797253     -1.70200620894766      0.59666493611096
  H   -0.33161431818054     -1.00063995792661     -1.43774966815247
  N   2.02861303089969      0.03390388855519     -0.35907393413437
  O   2.08388384678298      0.03143139283032     -1.58440789896139
  O   2.94089468839758      0.26869822075831      0.42331661457723
  N   0.55688798593624      0.39235971905827      1.52455705261277
  O   0.54881327461450      1.60733310568432      1.35188490707878
  O   0.38910829056637     -0.21505666342611      2.57028054293505
  N   -0.68205257570291      1.02576342994757     -1.28805137222123
  H   0.08309151864904      1.23415447216334     -1.91448672414659
  H   -0.76018010457373      1.76788324268182     -0.60505555567767
  C   -1.75239337913261     -0.63152054300102      0.13850261403189
  H   -1.63908297986134     -1.58238037527843      0.66071424628873
  H   -2.58885410165948     -0.70021382740623     -0.55626663293789
  H   -1.99078824461593      0.14242181150467      0.87356539099065
