18

C	-0.343705	-0.012356	-1.481607
C	0.0	0.0	0.0
F	-0.005121	-1.233933	-1.998652
H	1.096213	0.0	0.0
N	-1.861054	0.08028	-1.669668
O	-2.341847	1.206735	-1.786992
O	-2.504574	-0.966831	-1.632665
C	0.361882	1.067221	-2.25361
H	0.147625	0.964747	-3.320394
H	1.429898	0.929865	-2.053017
H	0.052488	2.052818	-1.912785
C	-0.473221	-1.22667	0.772456
H	-0.038613	-1.189051	1.774265
H	-1.56159	-1.289102	0.853294
H	-0.098356	-2.122839	0.277631
C	-0.444742	1.236757	0.615856
N	-0.783084	2.237994	1.13255
H	2.693327	0.0	0.0
