18

C	-0.490817	-0.026878	-1.444112
C	0.0	0.0	0.0
F	-0.214625	1.176455	-2.028525
H	1.095897	0.0	0.0
N	0.30403	-1.066205	-2.237834
O	0.088259	-2.23928	-1.938229
O	1.042303	-0.677341	-3.128686
C	-1.956477	-0.330403	-1.655458
H	-2.197134	-1.332761	-1.308746
H	-2.546558	0.403699	-1.104021
H	-2.191645	-0.248679	-2.720182
C	-0.39408	-1.202508	0.860159
H	0.070471	-1.070012	1.839563
H	-1.474751	-1.305811	0.993176
H	0.011271	-2.113835	0.423423
C	-0.495871	1.223553	0.606108
N	-0.91543	2.193139	1.124233
H	2.679647	0.0	0.0
