18

C	-0.49111	-0.037594	-1.443848
C	0.0	0.0	0.0
F	-0.117489	1.120245	-2.06422
H	1.095882	0.0	0.0
N	0.21289	-1.16413	-2.201405
O	-0.107234	-2.305318	-1.870884
O	0.99046	-0.8679	-3.094816
C	-1.978276	-0.221923	-1.650956
H	-2.501136	0.586933	-1.138103
H	-2.309308	-1.181838	-1.261035
H	-2.202184	-0.168321	-2.719484
C	-0.39655	-1.186863	0.880182
H	0.051546	-2.098937	0.489123
H	0.022581	-1.012383	1.873546
H	-1.478542	-1.319036	0.972343
C	-0.490559	1.236417	0.58537
N	-0.906585	2.220335	1.078779
H	2.684276	0.0	0.0
