18

C	-0.334768	0.061441	-1.48133
C	0.0	0.0	0.0
F	0.041311	-1.119911	-2.062229
H	1.097044	0.0	0.0
N	-1.853439	0.122396	-1.673779
O	-2.368722	1.239729	-1.675467
O	-2.463786	-0.941771	-1.753619
C	0.343064	1.201977	-2.187861
H	0.146952	1.144982	-3.261275
H	1.412465	1.089469	-1.980613
H	-0.004516	2.158279	-1.803002
C	-0.474332	-1.2684	0.701404
H	-0.09467	-2.135005	0.159959
H	-1.562915	-1.337333	0.772254
H	-0.046767	-1.285367	1.706402
C	-0.450731	1.198733	0.682846
N	-0.782477	2.159025	1.276222
H	2.689697	0.0	0.0
