18

C	-0.494029	0.004222	-1.44343
C	0.0	0.0	0.0
F	-0.06439	1.15056	-2.048481
H	1.095938	0.0	0.0
N	0.149621	-1.14625	-2.217864
O	-0.222635	-2.273714	-1.896563
O	0.930734	-0.879212	-3.11709
C	-1.988799	-0.102608	-1.651256
H	-2.466164	0.742254	-1.150723
H	-2.374163	-1.037246	-1.248134
H	-2.208631	-0.051448	-2.721036
C	-0.39643	-1.204602	0.854994
H	0.074266	-2.104039	0.461215
H	-1.477624	-1.356532	0.923422
H	-0.000364	-1.03756	1.859033
C	-0.48372	1.225614	0.614923
N	-0.900258	2.196142	1.133657
H	2.686808	0.0	0.0
