14

C	-0.532994	-0.123551	-1.414154
C	0.0	0.0	0.0
F	-0.139365	-1.319557	-2.000288
H	1.094446	0.0	0.0
H	-1.631847	-0.133184	-1.389134
C	-0.095992	0.990867	-2.276824
N	0.169581	1.902106	-2.967288
N	-0.577781	-1.126138	0.75758
H	-0.648048	-0.780793	1.708712
H	0.136938	-1.847657	0.769059
N	-0.425372	1.260372	0.593797
H	0.338621	1.916194	0.49239
H	-1.256525	1.652034	0.163326
F	2.660696	0.0	0.0
