14

C	-0.639043	-0.000436	-1.371064
C	0.0	0.0	0.0
F	-0.42476	-1.200775	-2.058223
H	1.101361	0.0	0.0
H	-1.728276	0.106473	-1.264933
C	-0.157851	1.101292	-2.21687
N	0.166303	1.946191	-2.96377
N	-0.476667	-1.175459	0.752344
H	-0.844279	-1.86778	0.107319
H	0.362959	-1.592912	1.14399
N	-0.441598	1.255367	0.615394
H	-1.153848	1.025061	1.299051
H	0.358403	1.630051	1.109184
F	2.655247	0.0	0.0
