13

C	-0.532817	0.084617	-1.408313
C	0.0	0.0	0.0
F	-0.351546	-1.10984	-2.099406
H	1.089408	0.0	0.0
H	-1.608796	0.301022	-1.416866
H	0.025941	0.868276	-1.927112
N	-0.627334	-1.209261	0.635862
O	0.089543	-2.103539	1.072199
O	-1.862939	-1.222479	0.687601
N	-0.390034	1.14733	0.782182
H	0.418385	1.748891	0.860626
H	-1.187268	1.648247	0.411419
F	2.608364	0.0	0.0
