13

C	-0.478592	-0.103602	-1.440838
C	0.0	0.0	0.0
F	-0.229216	1.100268	-2.095668
H	1.089792	0.0	0.0
H	0.060363	-0.894717	-1.95903
H	-1.563484	-0.273926	-1.497357
N	-0.514134	-1.26496	0.62938
O	-1.386069	-1.215573	1.498518
O	-0.058443	-2.319841	0.173287
N	-0.46935	1.148959	0.705627
H	-1.244473	1.607769	0.245245
H	0.309922	1.790412	0.772115
F	2.588541	0.0	0.0
