13

C	-0.608557	-0.020136	-1.38336
C	0.0	0.0	0.0
F	-0.092292	-0.992654	-2.224891
H	1.097454	0.0	0.0
H	-0.387427	0.953637	-1.821623
H	-1.697613	-0.163245	-1.34421
N	-0.453386	-1.181487	0.787326
O	-0.509898	-2.267775	0.210512
O	-0.726804	-1.032531	1.985194
N	-0.366867	1.240827	0.651203
H	0.45773	1.545502	1.155164
H	-1.09344	1.079744	1.336951
F	2.554798	0.0	0.0
