13

C	-0.616	0.015454	-1.379685
C	0.0	0.0	0.0
F	-0.098093	-0.927811	-2.254829
H	1.097479	0.0	0.0
H	-1.703479	-0.1371	-1.335941
H	-0.407084	1.003305	-1.790808
N	-0.456802	-1.193875	0.760854
O	-0.517647	-2.265913	0.157378
O	-0.731759	-1.074294	1.960912
N	-0.359847	1.232919	0.682273
H	-1.017277	1.03429	1.427684
H	0.500996	1.556659	1.11387
F	2.55186	0.0	0.0
