13

C	-0.538189	0.071431	-1.407354
C	0.0	0.0	0.0
F	-0.226408	-1.071025	-2.140591
H	1.089413	0.0	0.0
H	-0.071183	0.932912	-1.892992
H	-1.633031	0.16652	-1.40707
N	-0.5675	-1.27438	0.574899
O	0.193731	-2.13454	1.006251
O	-1.803057	-1.364465	0.595549
N	-0.464462	1.092214	0.812474
H	-1.365534	1.448321	0.511051
H	0.235261	1.824146	0.79344
F	2.610872	0.0	0.0
