13

C	-0.434111	0.039651	-1.426642
C	0.0	0.0	0.0
F	-1.835678	0.11848	-1.548371
H	1.09289	0.0	0.0
H	-0.104642	-0.848299	-1.962015
H	-0.013648	0.940616	-1.872446
N	-0.420721	-1.315104	0.606296
O	-0.871715	-1.314847	1.757897
O	-0.249353	-2.339742	-0.056899
N	-0.463063	1.127193	0.746459
H	-1.423951	1.004463	1.044621
H	0.116384	1.222206	1.572165
F	2.56047	0.0	0.0
