13

C	-0.376829	0.044799	-1.449042
C	0.0	0.0	0.0
F	-1.747723	0.351581	-1.632056
H	1.091631	0.0	0.0
H	0.197358	0.849179	-1.916461
H	-0.178992	-0.903577	-1.945047
N	-0.487726	-1.292458	0.602561
O	-0.264439	-2.315578	-0.052177
O	-1.030363	-1.296558	1.704632
N	-0.442104	1.124419	0.763709
H	0.350926	1.725892	0.930291
H	-1.197609	1.625307	0.319831
F	2.571241	0.0	0.0
