13

C	-0.545539	0.023738	-1.410816
C	0.0	0.0	0.0
F	-0.317024	1.296397	-1.952576
H	1.099402	0.0	0.0
H	-1.626895	-0.145434	-1.432267
H	-0.026872	-0.7014	-2.034202
N	-0.414005	-1.263229	0.636761
O	-0.452299	-1.303994	1.865561
O	-0.625763	-2.242591	-0.09307
N	-0.547525	1.108944	0.77904
H	0.064727	1.210012	1.582359
H	-0.380972	1.928506	0.20636
F	2.577921	0.0	0.0
