13

C	0.0	0.0	0.0
C	-0.349379	-0.08586	-1.495535
F	1.392513	0.0	0.0
H	0.079047	0.831784	-1.929148
H	-0.361333	0.918055	0.465148
H	-0.353004	-0.873463	0.551919
N	-1.745618	-0.228358	-1.792932
H	-2.411987	-0.17707	-0.98148
H	-2.047574	0.482509	-2.442684
N	0.369759	-1.214818	-2.12829
H	1.218179	-1.42307	-1.615172
H	-0.266868	-1.998897	-2.059849
H	-3.651064	0.0	0.0
