13

C	0.0	0.0	0.0
C	-0.536286	0.013561	-1.433827
F	1.381142	0.0	0.0
H	0.346598	0.019689	-2.08521
H	-0.33463	0.887683	0.536281
H	-0.334719	-0.897678	0.519595
N	-1.278575	1.261063	-1.652225
H	-1.592677	1.262468	-2.619778
H	-2.131051	1.140563	-1.08593
N	-1.27724	-1.229498	-1.677277
H	-1.591512	-1.211819	-2.644384
H	-2.129386	-1.123719	-1.107934
H	-3.339577	0.0	0.0
