13

C	0.0	0.0	0.0
C	-0.548891	-0.02738	-1.412124
F	1.385918	0.0	0.0
H	-1.613843	-0.270464	-1.285504
H	-0.339567	-0.890249	0.53734
H	-0.353006	0.879382	0.54154
N	0.096746	-1.019574	-2.264444
H	1.094962	-0.982777	-2.08274
H	-0.229758	-1.939565	-1.989976
N	-0.350307	1.288262	-2.035938
H	-0.65449	1.175545	-2.998962
H	-1.025879	1.911301	-1.59881
H	-3.272023	0.0	0.0
