13

C	0.0	0.0	0.0
C	-0.499405	0.032904	-1.459775
F	1.381745	0.0	0.0
H	0.41084	-0.072251	-2.062258
H	-0.3451	0.871928	0.554811
H	-0.334862	-0.906144	0.50816
N	-1.085504	1.341571	-1.722475
H	-1.405696	1.313736	-2.686693
H	-1.941949	1.34591	-1.161701
N	-1.435121	-1.022461	-1.847188
H	-1.047673	-1.927976	-1.594159
H	-2.262304	-0.864364	-1.245811
H	-3.278266	0.0	0.0
