13

C	0.0	0.0	0.0
C	-0.432448	-0.051648	-1.475258
F	1.381744	0.0	0.0
H	0.358819	0.513154	-1.993094
H	-0.346912	0.920007	0.480999
H	-0.360196	-0.861303	0.567431
N	-1.710064	0.528363	-1.839258
H	-1.642935	1.544697	-1.79592
H	-2.456919	0.273259	-1.149967
N	-0.309023	-1.451336	-1.915801
H	-0.617853	-1.44686	-2.881272
H	-1.014729	-1.985813	-1.412446
H	-3.576173	0.0	0.0
