13

C	0.0	0.0	0.0
C	-0.511315	0.072288	-1.450251
F	1.392122	0.0	0.0
H	0.392409	0.030881	-2.075556
H	-0.332325	-0.920586	0.479169
H	-0.336776	0.856686	0.585455
N	-1.252338	1.296452	-1.784997
H	-0.76103	2.109773	-1.425281
H	-2.120709	1.205467	-1.245974
N	-1.332482	-1.098319	-1.72484
H	-2.162331	-0.974203	-1.117578
H	-1.679758	-0.979839	-2.672678
H	-3.294448	0.0	0.0
