13

C	0.0	0.0	0.0
C	-0.520058	-0.137001	-1.411326
F	1.398812	0.0	0.0
H	-1.594792	-0.32101	-1.276254
H	-0.333229	-0.845116	0.602804
H	-0.349796	0.926984	0.453596
N	0.12549	-1.281497	-2.03757
H	-0.21243	-1.318121	-2.993133
H	1.122168	-1.094887	-2.087809
N	-0.380403	1.091962	-2.208806
H	-1.140078	1.709182	-1.929903
H	0.489986	1.553275	-1.96007
H	-3.226346	0.0	0.0
