13

C	0.0	0.0	0.0
C	-0.492173	0.029998	-1.437272
F	1.396565	0.0	0.0
H	-1.586254	0.027853	-1.348975
H	-0.344933	0.875496	0.552876
H	-0.344817	-0.898049	0.5154
N	-0.061111	-1.152879	-2.186261
H	-0.618197	-1.935742	-1.853491
H	0.902686	-1.353078	-1.934834
N	-0.064089	1.243633	-2.137814
H	0.899076	1.444273	-1.876186
H	-0.629135	2.009262	-1.77689
H	-3.174349	0.0	0.0
