15

C	-0.216923	0.083124	-1.525157
C	0.0	0.0	0.0
F	-1.448322	0.684841	-1.822677
H	1.092611	0.0	0.0
N	0.844209	0.899887	-1.995889
H	1.70696	0.675245	-1.466606
H	0.974886	0.807407	-2.993707
C	-0.298807	-1.227095	-2.223794
N	-0.371832	-2.140978	-2.960009
N	-0.497094	-1.231452	0.653894
O	-0.11171	-2.29462	0.172656
O	-1.199647	-1.123828	1.658708
C	-0.521367	1.186671	0.644183
N	-0.909896	2.156829	1.180256
F	2.530401	0.0	0.0
