15

C	-0.197818	0.069856	-1.530133
C	0.0	0.0	0.0
F	-1.422751	0.661964	-1.859693
H	1.090921	0.0	0.0
N	0.869644	0.882401	-1.991385
H	1.733536	0.65284	-1.459391
H	0.998127	0.80175	-2.990357
C	-0.263481	-1.260411	-2.193286
N	-0.316092	-2.218687	-2.871731
N	-0.533034	-1.226955	0.632759
O	-1.427334	-1.123117	1.471848
O	-0.00477	-2.281685	0.288582
C	-0.532629	1.191908	0.623133
N	-0.903399	2.181065	1.13541
F	2.539697	0.0	0.0
