15

C	-0.448116	-0.081286	-1.450835
C	0.0	0.0	0.0
F	-1.791744	-0.545497	-1.503323
H	1.09169	0.0	0.0
N	-0.321051	1.185211	-2.066482
H	-0.588321	1.13763	-3.040358
H	-0.869517	1.882447	-1.57909
C	0.339165	-1.051626	-2.238859
N	0.896097	-1.755437	-2.994706
N	-0.378158	-1.216801	0.746819
O	-0.660172	-1.098338	1.938627
O	-0.30469	-2.284374	0.141896
C	-0.538071	1.173901	0.646383
N	-0.94115	2.186306	1.089521
F	2.418259	0.0	0.0
