15

C	-0.48038	0.021386	-1.449755
C	0.0	0.0	0.0
F	-0.072632	-1.212638	-2.000263
H	1.09099	0.0	0.0
N	-1.873447	0.232704	-1.599594
H	-2.148958	0.149354	-2.570601
H	-2.381568	-0.417785	-1.013775
C	0.243901	1.07142	-2.197606
N	0.769657	1.912407	-2.825364
N	-0.477353	-1.290145	0.622074
O	0.363759	-2.054209	1.073729
O	-1.696709	-1.509779	0.642412
C	-0.549919	1.09858	0.762934
N	-0.954362	1.994324	1.408225
F	2.457615	0.0	0.0
