15

C	-0.16682	-0.035822	-1.534053
C	0.0	0.0	0.0
F	-0.13056	1.338345	-1.918896
H	1.095847	0.0	0.0
N	0.898615	-0.770816	-2.059642
H	1.759583	-0.545902	-1.52881
H	0.990792	-0.65021	-3.057248
C	-1.483092	-0.497586	-2.03009
N	-2.542948	-0.81301	-2.425403
N	-0.424698	-1.24912	0.684569
O	-0.684076	-2.234954	-0.001646
O	-0.432456	-1.21608	1.913742
C	-0.600062	1.147014	0.638702
N	-1.077961	2.081212	1.167896
F	2.531059	0.0	0.0
