17

C	-0.530883	0.020892	-1.441738
C	0.0	0.0	0.0
F	0.106612	-0.978826	-2.160138
H	1.100263	0.0	0.0
C	-2.025237	-0.230419	-1.518545
H	-2.211517	-1.210473	-1.079364
H	-2.563632	0.535003	-0.958057
H	-2.350754	-0.22746	-2.560851
C	-0.215475	1.308997	-2.09525
N	-0.034946	2.344165	-2.619415
N	-0.440039	-1.226026	0.642415
H	0.337306	-1.627276	1.148962
H	-1.195559	-1.016622	1.283429
N	-0.541906	1.171693	0.7126
H	-0.199824	2.013348	0.254737
H	-0.085157	1.170078	1.620249
Cl	3.444148	0.0	0.0
