17

C	-0.416269	0.082066	-1.470065
C	0.0	0.0	0.0
F	-1.799111	0.390453	-1.529224
H	1.095895	0.0	0.0
C	0.343813	1.157005	-2.21895
H	1.415063	0.950062	-2.145299
H	0.029972	1.186874	-3.264417
H	0.142618	2.125124	-1.756598
C	-0.266411	-1.215604	-2.151429
N	-0.171428	-2.193197	-2.795191
N	-0.505532	-1.231728	0.578648
H	0.087815	-1.458508	1.368366
H	-1.432719	-1.048333	0.946177
N	-0.41321	1.201523	0.729496
H	-1.193732	1.656676	0.274514
H	0.363568	1.84685	0.792399
Cl	3.411404	0.0	0.0
