17

C	-0.447015	-0.02991	-1.46165
C	0.0	0.0	0.0
F	-0.213891	1.231818	-2.030456
H	1.101323	0.0	0.0
C	0.334892	-1.056064	-2.251456
H	0.133895	-2.048583	-1.850879
H	1.397422	-0.832721	-2.13213
H	0.051833	-1.012236	-3.305493
C	-1.90407	-0.261136	-1.548178
N	-3.056641	-0.471402	-1.621117
N	-0.439488	-1.234296	0.623589
H	0.241531	-1.521535	1.314849
H	-1.330515	-1.065021	1.078021
N	-0.580947	1.175659	0.653503
H	-0.082655	1.294199	1.530592
H	-0.347637	1.988683	0.092797
Cl	3.471707	0.0	0.0
