17

C	-0.566499	-0.031392	-1.424554
C	0.0	0.0	0.0
F	-0.108997	-1.191902	-2.049936
H	1.094132	0.0	0.0
C	-2.085982	-0.067605	-1.45876
H	-2.489281	0.863702	-1.059882
H	-2.40614	-0.911494	-0.848471
H	-2.431892	-0.189816	-2.48552
C	-0.092024	1.120314	-2.216
N	0.131611	2.037927	-2.916745
N	-0.472016	-1.213762	0.693799
H	-0.713928	-0.955815	1.643287
H	0.313264	-1.855722	0.764982
N	-0.437693	1.23523	0.619031
H	0.262956	1.546396	1.282159
H	-1.318762	1.115488	1.108446
Cl	3.410928	0.0	0.0
