16

C	-0.631087	0.006861	-1.395569
C	0.0	0.0	0.0
Br	0.088554	-1.412586	-2.489004
H	1.091006	0.0	0.0
N	-2.043395	-0.121557	-1.315356
H	-2.437404	-0.149655	-2.247536
H	-2.419211	0.69256	-0.836279
N	-0.23001	1.31556	-2.133177
O	0.834922	1.833127	-1.834128
O	-1.031954	1.721738	-2.973823
N	-0.386014	-1.222895	0.679367
H	0.264136	-1.387625	1.437821
H	-1.334476	-1.180856	1.025353
C	-0.490542	1.216793	0.682357
N	-0.994154	2.122571	1.239922
Br	3.450307	0.0	0.0
