16

C	-0.572268	-0.015034	-1.421082
C	0.0	0.0	0.0
Br	0.369355	-1.487878	-2.422586
H	1.093897	0.0	0.0
N	-1.960773	-0.12754	-1.405059
H	-2.349338	-0.245334	-2.330066
H	-2.211974	-0.877022	-0.769949
N	-0.211358	1.232904	-2.205564
O	0.650997	1.965325	-1.740936
O	-0.831467	1.400585	-3.251881
N	-0.508693	-1.21973	0.670141
H	0.199385	-1.933544	0.522211
H	-0.527932	-1.04342	1.66837
C	-0.504892	1.177078	0.708722
N	-0.891642	2.097411	1.327092
Br	3.451726	0.0	0.0
