16

C	-0.384684	0.054846	-1.481902
C	0.0	0.0	0.0
Br	-2.29755	0.403451	-1.742468
H	1.09609	0.0	0.0
N	0.380278	1.043249	-2.11165
H	1.36731	0.924967	-1.875992
H	0.238136	1.072118	-3.113084
N	-0.119212	-1.38848	-2.040366
O	-1.031938	-2.188473	-2.165821
O	1.066733	-1.588524	-2.283091
N	-0.446634	-1.219838	0.636192
H	0.185271	-1.441757	1.394882
H	-1.389851	-1.129394	0.993441
C	-0.426878	1.234468	0.673234
N	-0.802485	2.157847	1.295817
Br	3.42036	0.0	0.0
