16

C	-0.345334	0.079046	-1.497038
C	0.0	0.0	0.0
Br	-2.21174	0.601709	-1.825217
H	1.096022	0.0	0.0
N	0.5258	0.984424	-2.102922
H	0.451414	0.994621	-3.111071
H	1.488169	0.81379	-1.802225
N	-0.224178	-1.384237	-2.058104
O	-1.191169	-2.130708	-2.028871
O	0.90139	-1.664134	-2.461973
N	-0.447482	-1.215803	0.638751
H	0.201554	-1.446096	1.380682
H	-1.380561	-1.11895	1.019661
C	-0.428696	1.234153	0.670924
N	-0.805106	2.156849	1.294381
Br	3.40615	0.0	0.0
