16

C	-0.587297	-0.005079	-1.414717
C	0.0	0.0	0.0
Br	0.370332	-1.443394	-2.449091
H	1.093975	0.0	0.0
N	-1.97478	-0.149596	-1.38072
H	-2.197794	-0.913599	-0.750898
H	-2.372101	-0.269059	-2.302338
N	-0.266554	1.260956	-2.186213
O	0.581528	2.008835	-1.718615
O	-0.904973	1.426884	-3.222265
N	-0.488411	-1.232476	0.660654
H	-0.524515	-1.062851	1.658623
H	0.235133	-1.930129	0.518255
C	-0.508346	1.162691	0.728945
N	-0.898963	2.06586	1.37026
Br	3.437605	0.0	0.0
