16

C	-0.499832	0.002591	-1.465591
C	0.0	0.0	0.0
Br	0.391179	-1.49438	-2.384454
H	1.092925	0.0	0.0
N	-1.89725	-0.112083	-1.67965
H	-2.341963	0.779471	-1.491094
H	-2.225805	-0.823554	-1.033981
N	-0.013881	1.294518	-2.124478
O	1.183813	1.526709	-2.056488
O	-0.860175	2.013763	-2.655255
N	-0.578025	-1.172624	0.657087
H	0.17086	-1.833497	0.841546
H	-0.996098	-0.917494	1.541897
C	-0.468054	1.233001	0.611751
N	-0.85618	2.242288	1.077987
Br	2.913539	0.0	0.0
