17
Coordinates from ORCA-job run
  C   0.93664137232826     -0.31961123502000      0.16624118755733
  C   -0.49719645590712      0.07107764588828     -0.23275504319124
  Cl  1.40726406046039      0.46045768725070      1.71747096831631
  H   -0.65647159641934     -0.43757004381120     -1.19568052549964
  C   1.01206055137470     -1.77579621027789      0.39850905548000
  N   1.08876251976678     -2.94501744032051      0.49726046595922
  N   1.87609802309896      0.12971139185781     -0.83699827388535
  H   1.64827582817526     -0.30676934419185     -1.72495354253970
  H   2.81956784572029     -0.13958858372223     -0.58029358080708
  C   -0.63265230232207      1.57493630523379     -0.45223318505783
  H   -0.56639129218594      2.11015315344229      0.49695959870741
  H   -1.60990131298367      1.78875303324302     -0.89208362565841
  H   0.14321793107665      1.95531724417450     -1.11551371819100
  C   -1.53790549864387     -0.44890692353271      0.75335758562803
  H   -1.40944414066883      0.01655353538859      1.73280860619011
  H   -1.48574805226478     -1.53279574109909      0.87603592222539
  H   -2.53817748060567     -0.19990447450350      0.39186810476644
