17
Coordinates from ORCA-job run
  C   0.93662351036792     -0.30152643764460      0.20040534123139
  C   -0.48982064122954      0.06032514417053     -0.24993387401878
  Cl  1.33771336570297      0.49268013525304      1.76356175166879
  H   -0.60607618880235     -0.45650578788947     -1.21463186539816
  C   1.03056290379345     -1.75559322520730      0.44123835687988
  N   1.12630800318929     -2.92276578885621      0.54731206659731
  N   1.90135689754544      0.16142741847960     -0.77149773992049
  H   2.84042873484566     -0.09022195975919     -0.48313179800155
  H   1.71076769431813     -0.27869869003662     -1.66625007834381
  C   -0.64565677569835      1.56017718453104     -0.48204315065576
  H   -0.62239727088888      2.10071530091486      0.46615997696786
  H   0.14541178106730      1.95252833103505     -1.11989947045305
  H   -1.61086368284170      1.75359789276663     -0.95655611804812
  C   -1.55402475471568     -0.47404281103842      0.70283124860393
  H   -2.54565183753591     -0.24989093235191      0.30319922038472
  H   -1.47114184503080      0.00229011025374      1.68194019019326
  H   -1.48353989408695     -1.55549588462076      0.83729594231258
