17
Coordinates from ORCA-job run
  C   0.91553053412348     -0.42924856567988      0.10208124709811
  C   -0.51911488113340      0.00214654119993     -0.25236536751105
  Cl  1.37558135959239      0.29403123325812      1.74638266622711
  H   -0.73145379452208     -0.55897936013404     -1.17116645873994
  C   0.96989287129426     -1.88241076920324      0.29969425814112
  N   1.00706626014950     -3.04929676384197      0.42814322026045
  N   1.83666485251825     -0.07552007931321     -0.91956815199648
  H   1.88725576257836      0.92947358969866     -1.02584980091406
  H   2.76387972389394     -0.43153578513829     -0.72102289572422
  C   -0.60958798557688      1.49263182859790     -0.56839790903729
  H   -0.27008082126946      2.09660385081426      0.27608608891054
  H   -0.03651101893330      1.76397236361645     -1.45756646919633
  H   -1.65044688181989      1.75542649606277     -0.76947700375717
  C   -1.53445541610682     -0.40293591363661      0.81129448587152
  H   -1.41769565298385      0.19397786851527      1.71711559282114
  H   -1.44573060558697     -1.45791213889383      1.08001134926536
  H   -2.54379430621752     -0.24142439592231      0.42560514828120
