17
Coordinates from ORCA-job run
  C   0.96458216057980     -0.36418700499864      0.18801293978419
  C   -0.29914664619912      0.50922093178920      0.27103842291827
  Cl  1.61478447310021     -0.60599645231458      1.90547157790911
  H   0.03101433086119      1.45167597654440      0.72907765919049
  C   0.63797735788869     -1.70854516349603     -0.30013654197923
  N   0.34920689605614     -2.77113427883377     -0.70916814071014
  N   1.94036451372465      0.21965498274581     -0.66346909601852
  H   2.77989033509159     -0.34514221096533     -0.71139261523217
  H   2.18209266768654      1.14764106221596     -0.33498484168384
  C   -1.38731426697907     -0.10862119944028      1.14351944727498
  H   -1.72071206074309     -1.06294318997664      0.72631144185644
  H   -2.25010558509656      0.56061831074399      1.17244346976085
  H   -1.05447597423917     -0.27605666887422      2.16712486388372
  C   -0.83598660944265      0.78837161408459     -1.13351059815856
  H   -1.70915413818423      1.44172573292690     -1.06410258858131
  H   -1.15140925264011     -0.14084469203961     -1.61649800306066
  H   -0.09160820146482      1.26456224988825     -1.76973739715361
