17
Coordinates from ORCA-job run
  C   0.94612332759864     -0.26139329562234      0.42797164381180
  C   -0.39455952149889      0.48099106470759      0.32281242061300
  Cl  1.35452570400738     -0.53311226276529      2.15696826471698
  H   -0.25339737104397      1.38495321446700      0.92568877532336
  C   0.83919494923870     -1.59451323420709     -0.19867556874376
  N   0.76071816819192     -2.61589713368733     -0.77602519383088
  N   2.02073849630687      0.53772376385171     -0.12541948172630
  H   2.91136853038245      0.09218982947063      0.06820312357427
  H   1.91516480316702      0.59362210936222     -1.13261951374341
  C   -1.55514080043660     -0.33722073394142      0.88078509012922
  H   -1.38170979098702     -0.64587110975333      1.91199269640508
  H   -2.46700489347286      0.26393912879725      0.85970059514027
  H   -1.73083355294698     -1.23164464025135      0.27673344453183
  C   -0.67328807448332      0.88566265023991     -1.12533288591407
  H   0.05491620672223      1.60770985679817     -1.49856542903047
  H   -1.65550067331912      1.35954508120014     -1.18670291249200
  H   -0.68931550742646      0.01331571133354     -1.78651506876490
