17
Coordinates from ORCA-job run
  C   1.04055919078617     -0.28981919518968      0.36829592096206
  C   -0.40559205474637      0.25311163704983      0.47545907463516
  Cl  2.10497320612931      0.73769210493100      1.40773892644099
  H   -0.63395879821579      0.30384799684584      1.54604463716458
  C   1.09296071765167     -1.64773224081405      0.92929193218517
  N   1.08190947068616     -2.73983012478097      1.36134395062107
  N   1.63449334897922     -0.32951907577837     -0.94536960515376
  H   1.17781518971675     -1.02400179777932     -1.52435946587126
  H   1.58059145443991      0.57965311293690     -1.38739078376824
  C   -1.39292200415421     -0.70438842092526     -0.19121774570264
  H   -2.40768884979477     -0.31373543506800     -0.08680352262962
  H   -1.37176804964191     -1.70007903983359      0.25551353179622
  H   -1.19155396991310     -0.79832364341414     -1.26231140658864
  C   -0.53728471739573      1.65139579588865     -0.12174983549007
  H   -0.42758901806921      1.62988498446809     -1.20968276765707
  H   -1.53446683046696      2.04293197416650      0.09095504908419
  H   0.19052171400885      2.34991136729657      0.29224210997187
