17
Coordinates from ORCA-job run
  C   1.01105687944215     -0.36677150375533      0.33110482997564
  C   -0.27739876264106      0.48545701793011      0.30168430734455
  Cl  1.56918824318424     -0.48614985053159      2.04695909029243
  H   0.00524207229943      1.44216594441231      0.76118519494413
  C   0.71533145236157     -1.72622006749570     -0.14073487750191
  N   0.43129306014720     -2.78437095428505     -0.56422353876759
  N   2.12850686544088      0.13854081563998     -0.42977060378362
  H   2.27673977264454      1.11871662921019     -0.21649235765883
  H   1.96535959983948      0.02703751073203     -1.42293266250655
  C   -1.42072940299166     -0.13259081357686      1.10164915300416
  H   -2.28580283859691      0.53442240736055      1.08026410676390
  H   -1.72560665606441     -1.08817769795423      0.66602827475581
  H   -1.14960401047710     -0.29953761615270      2.14362084484828
  C   -0.71531177320734      0.73443179973208     -1.14168589406510
  H   -0.94348271809718     -0.20682545988117     -1.65096589357977
  H   -1.62354633309605      1.34108019353187     -1.14869686891519
  H   0.03876454981223      1.27079164508351     -1.71999310515033
