17
Coordinates from ORCA-job run
  C   0.97274415313036     -0.38637444868066      0.24982448628397
  C   -0.44840539312738     -0.00403493317070     -0.22767729858228
  Cl  1.32853565954150      0.43892665909254      1.81141082757229
  H   -0.57616687750523     -0.58659765159510     -1.15202233413613
  C   1.01782042607145     -1.83591403107917      0.49791896863301
  N   1.01472542757336     -3.00180687529264      0.64003979117864
  N   2.06196085946248     -0.06677729493858     -0.64761129026840
  H   2.11273065576050      0.93447385944219     -0.78950785567894
  H   1.91608488502690     -0.52564495587293     -1.54077194697880
  C   -0.56349442322497      1.47619026390568     -0.57817325863543
  H   -1.56965983017903      1.68275332653445     -0.94962149787939
  H   -0.39597786676720      2.10271589725471      0.30025303587191
  H   0.13664030459240      1.77610533454223     -1.36052111589420
  C   -1.53817633986585     -0.42521194697262      0.75399273725641
  H   -1.46283974999955     -1.48134097962974      1.02055559595621
  H   -1.48644531020949      0.16572167608123      1.67019505835434
  H   -2.52007658028026     -0.26418389962090      0.30271609694678
