18

C	0.0	0.0	0.0
C	-0.444217	0.063103	-1.473504
F	1.401054	0.0	0.0
H	-1.525672	-0.121912	-1.422923
C	-0.429054	1.216941	0.723161
N	-0.582623	2.236695	1.28781
C	-0.456879	-1.275434	0.676565
H	-0.069401	-1.312943	1.699162
H	-1.552689	-1.244076	0.646257
H	-0.053368	-2.108711	0.097363
N	0.233707	-1.024807	-2.195103
H	1.165897	-0.722713	-2.461907
H	-0.285578	-1.20507	-3.045505
C	-0.171082	1.435463	-2.085885
H	-0.394588	1.408352	-3.157348
H	0.882593	1.715912	-1.962764
H	-0.794869	2.204348	-1.625804
F	-2.777272	0.0	0.0
