18

C	0.0	0.0	0.0
C	-0.44115	-0.018584	-1.512479
F	1.396031	0.0	0.0
H	0.491812	0.235186	-2.034026
C	-0.357475	1.316354	0.579992
N	-0.492064	2.381278	1.055519
C	-0.532801	-1.092368	0.895684
H	-1.627093	-0.977736	0.858026
H	-0.1478	-0.952587	1.909934
H	-0.215325	-2.069455	0.527451
N	-1.466902	0.934032	-1.90009
H	-1.139346	1.872896	-1.697205
H	-2.25913	0.725282	-1.248271
C	-0.914971	-1.399981	-1.943049
H	-0.189913	-2.189417	-1.721671
H	-1.85951	-1.586847	-1.428161
H	-1.096495	-1.37791	-3.01961
F	-2.974281	0.0	0.0
