18

C	0.0	0.0	0.0
C	-0.441924	-0.108269	-1.509328
F	1.396002	0.0	0.0
H	0.490352	0.11302	-2.045846
C	-0.357411	1.348967	0.499754
N	-0.503456	2.449401	0.882662
C	-0.533822	-1.036795	0.958311
H	-0.220636	-2.034998	0.647945
H	-1.627924	-0.920722	0.91429
H	-0.147497	-0.838991	1.96242
N	-1.466602	0.819647	-1.953434
H	-2.259043	0.65023	-1.29124
H	-1.139788	1.768784	-1.80514
C	-0.919304	-1.511141	-1.854878
H	-1.107105	-1.550788	-2.929752
H	-1.860191	-1.665596	-1.325408
H	-0.193838	-2.287368	-1.591401
F	-2.973981	0.0	0.0
