15

C	-0.39809	-0.021624	-1.499889
C	0.0	0.0	0.0
Br	0.226564	1.646569	-2.317488
H	1.097257	0.0	0.0
C	0.28015	-1.200488	-2.191611
H	1.355414	-1.132766	-2.007434
H	-0.10252	-2.135882	-1.776055
H	0.076352	-1.173903	-3.263212
C	-1.850491	-0.05493	-1.664703
N	-3.017244	-0.114093	-1.796793
C	-0.467402	-1.229685	0.641523
N	-0.832886	-2.23272	1.132872
C	-0.521363	1.163679	0.711265
N	-0.942466	2.094554	1.291769
Cl	3.174768	0.0	0.0
