15

C	-0.358633	0.04298	-1.50371
C	0.0	0.0	0.0
Br	-2.314143	0.222593	-1.746517
H	1.099345	0.0	0.0
C	0.351214	1.212232	-2.174992
H	-0.001768	2.152701	-1.747957
H	1.423419	1.105609	-1.983751
H	0.15306	1.208378	-3.247358
C	0.012108	-1.224074	-2.129126
N	0.308	-2.245714	-2.630481
C	-0.514309	-1.188091	0.669756
N	-0.925472	-2.146691	1.209987
C	-0.451263	1.212974	0.676142
N	-0.797993	2.199301	1.212054
Cl	3.144075	0.0	0.0
