15

C	-0.400804	-0.030843	-1.500128
C	0.0	0.0	0.0
Br	0.157481	1.664548	-2.312923
H	1.097283	0.0	0.0
C	0.328274	-1.175751	-2.197128
H	-0.01223	-2.12914	-1.784237
H	1.399285	-1.062247	-2.012233
H	0.122477	-1.15614	-3.26803
C	-1.849667	-0.127882	-1.665765
N	-3.011601	-0.246498	-1.805148
C	-0.459015	-1.231949	0.643772
N	-0.818917	-2.235935	1.137353
C	-0.529008	1.159558	0.710676
N	-0.965341	2.080518	1.295285
Cl	3.165479	0.0	0.0
