15

C	-0.40228	-0.02847	-1.499651
C	0.0	0.0	0.0
Br	0.160014	1.665674	-2.311891
H	1.0974	0.0	0.0
C	0.322327	-1.175357	-2.198064
H	0.116101	-1.154024	-3.268948
H	-0.021529	-2.12802	-1.785973
H	1.393826	-1.065713	-2.013633
C	-1.851923	-0.119511	-1.66315
N	-3.014943	-0.231953	-1.798176
C	-0.459327	-1.231817	0.644094
N	-0.817577	-2.233361	1.143814
C	-0.528198	1.159436	0.711723
N	-0.969396	2.077741	1.296772
Cl	3.165454	0.0	0.0
