15

C	-0.514591	0.011969	-1.466119
C	0.0	0.0	0.0
Br	0.237914	-1.542679	-2.391903
H	1.096496	0.0	0.0
C	-2.03621	-0.053891	-1.560863
H	-2.392938	-0.970507	-1.08763
H	-2.34748	-0.05037	-2.606538
H	-2.473829	0.810996	-1.054135
C	-0.017772	1.214228	-2.132732
N	0.297314	2.204379	-2.68282
C	-0.48428	-1.186866	0.702714
N	-0.894135	-2.136264	1.260642
C	-0.47644	1.20418	0.681238
N	-0.876407	2.176708	1.206113
Cl	3.133251	0.0	0.0
