16

C	-0.519532	0.025908	-1.447085
C	0.0	0.0	0.0
Cl	0.299637	-1.326113	-2.369141
H	1.094151	0.0	0.0
N	-1.946841	-0.073561	-1.486877
H	-2.235592	-0.936911	-1.038089
H	-2.274267	-0.078547	-2.44587
C	-0.131262	1.27162	-2.120194
N	0.10017	2.276236	-2.682718
C	-0.492585	-1.221431	0.63071
N	-0.957782	-2.172984	1.140394
C	-0.461952	1.229073	0.789949
H	-0.074329	1.154839	1.807405
H	-0.036068	2.127386	0.339455
H	-1.549475	1.312032	0.815009
Cl	3.283952	0.0	0.0
