16

C	-0.513084	0.014789	-1.450186
C	0.0	0.0	0.0
Cl	0.299851	-1.352873	-2.35404
H	1.09417	0.0	0.0
N	-1.940522	-0.073831	-1.495744
H	-2.264438	-0.091606	-2.455006
H	-2.238361	-0.927212	-1.03496
C	-0.110596	1.251012	-2.133129
N	0.142133	2.250037	-2.696317
C	-0.491367	-1.218279	0.638544
N	-0.955411	-2.155143	1.17532
C	-0.46515	1.233219	0.780712
H	-1.552971	1.312645	0.807195
H	-0.074981	1.168619	1.797815
H	-0.043718	2.12941	0.321843
Cl	3.27979	0.0	0.0
