16

C	-0.488056	0.034027	-1.453093
C	0.0	0.0	0.0
Cl	0.140957	-1.387895	-2.337592
H	1.095697	0.0	0.0
N	-1.936769	-0.022993	-1.518146
H	-2.232857	0.009448	-2.486944
H	-2.317293	0.78967	-1.04542
C	0.040574	1.232933	-2.135134
N	0.315684	2.229603	-2.695028
C	-0.492388	-1.209561	0.652985
N	-0.898777	-2.144402	1.236171
C	-0.434504	1.240242	0.790957
H	-1.51602	1.287507	0.949308
H	-0.090336	2.145633	0.286466
H	0.050447	1.206955	1.767906
Cl	3.279592	0.0	0.0
