16

C	-0.426225	0.087594	-1.447732
C	0.0	0.0	0.0
F	-1.756887	0.447944	-1.581033
H	1.093786	0.0	0.0
H	0.183105	0.803959	-1.999701
N	-0.281469	-1.221149	-2.177579
O	0.777372	-1.402237	-2.770763
O	-1.215506	-2.017193	-2.109689
C	-0.552955	-1.203417	0.738697
H	-1.646495	-1.24261	0.709052
H	-0.231658	-1.116049	1.777417
H	-0.156834	-2.138868	0.336687
N	-0.359813	1.249233	0.679442
H	0.41963	1.89184	0.577978
H	-1.192734	1.664958	0.282516
H	2.871722	0.0	0.0
