16

C	-0.627768	-0.023942	-1.36895
C	0.0	0.0	0.0
F	-0.196877	-1.0846	-2.123283
H	1.093882	0.0	0.0
H	-1.720044	-0.05337	-1.326389
N	-0.330152	1.227987	-2.152695
O	-1.270317	2.010384	-2.311319
O	0.806251	1.370526	-2.58155
C	-0.423652	-1.246271	0.764999
H	-1.508324	-1.273845	0.938525
H	-0.129733	-2.151587	0.229449
H	0.090538	-1.251149	1.728206
N	-0.40418	1.254465	0.638207
H	0.409929	1.614465	1.126208
H	-1.145035	1.102018	1.312804
H	2.885108	0.0	0.0
