16

C	-0.509637	0.024112	-1.430067
C	0.0	0.0	0.0
F	-0.045295	-1.032864	-2.156364
H	1.095416	0.0	0.0
H	-1.604593	0.029109	-1.495659
N	-0.098928	1.286805	-2.148422
O	0.90625	1.272155	-2.840693
O	-0.835895	2.259383	-1.961854
C	-0.485817	-1.279598	0.66321
H	-0.147763	-2.162049	0.115135
H	-1.580261	-1.300421	0.749771
H	-0.060436	-1.311356	1.667265
N	-0.416003	1.172133	0.764204
H	-1.263421	1.585597	0.39659
H	0.319385	1.866499	0.697488
H	2.888485	0.0	0.0
