16

C	-0.52672	0.064451	-1.407528
C	0.0	0.0	0.0
F	-1.905594	0.001473	-1.450665
H	1.098105	0.0	0.0
H	-0.203344	0.976269	-1.901979
N	-0.045964	-1.061963	-2.284149
O	-0.51459	-2.179679	-2.079138
O	0.766122	-0.778058	-3.161404
C	-0.474767	-1.205717	0.793349
H	-0.129674	-2.140625	0.35334
H	-1.566543	-1.239602	0.869139
H	-0.047476	-1.132048	1.796239
N	-0.385666	1.284947	0.605431
H	0.434091	1.634472	1.093337
H	-1.123907	1.146499	1.284457
H	2.864042	0.0	0.0
