16

C	-0.428797	0.061741	-1.44754
C	0.0	0.0	0.0
F	-1.769203	0.387284	-1.581505
H	1.093757	0.0	0.0
H	0.160447	0.788557	-2.007049
N	-0.253808	-1.248532	-2.169
O	0.797452	-1.39497	-2.786989
O	-1.155346	-2.075046	-2.074026
C	-0.548487	-1.192711	0.759403
H	-0.231451	-1.083783	1.797317
H	-0.145143	-2.133031	0.376091
H	-1.641487	-1.239513	0.726384
N	-0.365589	1.258267	0.658348
H	-1.203558	1.660667	0.257667
H	0.408385	1.906307	0.541392
H	2.874152	0.0	0.0
