14

C	0.0	0.0	0.0
C	-0.496244	-0.167081	-1.434387
F	1.379067	0.0	0.0
H	-1.604604	-0.250677	-1.225867
H	-0.380737	0.939373	0.393799
C	-0.4351	-1.103807	0.872382
N	-0.557999	-2.038805	1.571905
C	0.074821	-1.359489	-2.04265
N	0.547873	-2.298973	-2.569206
C	-0.167027	1.077916	-2.256188
H	-0.730276	1.921599	-1.849548
H	0.902007	1.309138	-2.227143
H	-0.461209	0.944923	-3.300273
F	-2.567895	0.0	0.0
