14

C	0.0	0.0	0.0
C	-0.403999	0.112578	-1.495446
F	1.377941	0.0	0.0
H	0.544336	0.308724	-2.017876
H	-0.359379	0.850275	0.569762
C	-0.449862	-1.238578	0.646908
N	-0.562177	-2.265734	1.207507
C	-1.242208	1.287597	-1.745691
N	-1.739534	2.292183	-2.098738
C	-1.033512	-1.149123	-2.08714
H	-0.3621	-2.002977	-1.954966
H	-1.214317	-1.011952	-3.157936
H	-1.966385	-1.297901	-1.545554
F	-2.362492	0.0	0.0
