14

C	0.0	0.0	0.0
C	-0.338956	0.031666	-1.502469
F	1.381766	0.0	0.0
H	0.37403	0.760064	-1.914842
H	-0.357942	0.887406	0.510376
C	-0.451365	-1.205303	0.703647
N	-0.546161	-2.223132	1.284613
C	-1.676505	0.495501	-1.904887
N	-2.445037	0.918996	-2.696602
C	-0.036577	-1.321285	-2.15198
H	-0.120618	-1.239989	-3.23777
H	0.976816	-1.642255	-1.897238
H	-0.747742	-2.070197	-1.799906
F	-2.344061	0.0	0.0
