14

C	0.0	0.0	0.0
C	-0.404196	0.117524	-1.496352
F	1.378008	0.0	0.0
H	0.548541	0.281433	-2.021441
H	-0.358782	0.847146	0.574692
C	-0.451636	-1.24549	0.63297
N	-0.549739	-2.289931	1.163514
C	-1.204997	1.319488	-1.741076
N	-1.685877	2.341156	-2.06546
C	-1.081365	-1.118816	-2.092111
H	-1.253983	-0.968601	-3.162033
H	-2.01989	-1.228528	-1.551984
H	-0.448147	-2.001342	-1.960779
F	-2.367447	0.0	0.0
