14

C	0.0	0.0	0.0
C	-0.504497	-0.056374	-1.439069
F	1.37889	0.0	0.0
H	-1.615403	-0.141029	-1.224534
H	-0.377409	0.907761	0.465876
C	-0.436393	-1.164053	0.790242
N	-0.569742	-2.137887	1.432587
C	0.041228	-1.212106	-2.133953
N	0.489402	-2.121135	-2.730855
C	-0.16151	1.239127	-2.172322
H	-0.701854	2.06209	-1.697617
H	-0.47292	1.188043	-3.218252
H	0.912182	1.448098	-2.142683
F	-2.580685	0.0	0.0
