14

C	0.0	0.0	0.0
C	-0.402516	0.166787	-1.490927
F	1.377962	0.0	0.0
H	0.548097	0.368128	-2.00655
H	-0.357743	0.831524	0.597789
C	-0.457499	-1.261212	0.59438
N	-0.516202	-2.343722	1.051188
C	-1.222617	1.362308	-1.698722
N	-1.706324	2.383846	-2.020673
C	-1.05091	-1.061625	-2.1311
H	-1.987449	-1.214322	-1.598356
H	-1.226045	-0.880521	-3.195242
H	-0.395519	-1.930939	-2.030246
F	-2.361148	0.0	0.0
