14

C	0.0	0.0	0.0
C	-0.526818	-0.173608	-1.419514
F	1.378709	0.0	0.0
H	-1.634276	-0.276525	-1.171549
H	-0.374228	0.941551	0.397094
C	-0.428567	-1.098126	0.885689
N	-0.561814	-2.022553	1.596968
C	0.048315	-1.350627	-2.04889
N	0.517799	-2.285055	-2.587799
C	-0.275039	1.087182	-2.243837
H	0.781981	1.372234	-2.243736
H	-0.870805	1.897968	-1.816545
H	-0.592827	0.944042	-3.279383
F	-2.602961	0.0	0.0
