14

C	0.0	0.0	0.0
C	-0.200207	0.029185	-1.560138
F	1.377999	0.0	0.0
H	0.504671	-0.743638	-1.896242
H	-0.391282	0.884692	0.486759
C	-0.519511	-1.2009	0.650209
N	-0.654902	-2.211687	1.236979
C	0.387261	1.302301	-2.006719
N	0.8347	2.323683	-2.376509
C	-1.520673	-0.199543	-2.288275
H	-1.300622	-0.242764	-3.364484
H	-1.975887	-1.125519	-1.949118
H	-2.225309	0.587353	-2.049631
F	-2.374319	0.0	0.0
