16

C	-0.072912	-0.066502	-1.535697
C	0.0	0.0	0.0
Br	-1.875963	-0.687898	-2.224155
H	1.099947	0.0	0.0
C	0.036005	1.286038	-2.110585
N	0.193396	2.345654	-2.596574
N	0.955685	-0.958977	-1.96379
H	1.797624	-0.742699	-1.376962
H	1.154392	-0.853715	-2.949887
C	-0.465251	-1.241894	0.587285
N	-0.842768	-2.208858	1.139128
C	-0.629275	1.217786	0.651682
H	-1.702811	1.283189	0.445748
H	-0.140018	2.126079	0.295977
H	-0.486634	1.160142	1.733007
F	2.619929	0.0	0.0
