16

C	-0.43164	0.013203	-1.467514
C	0.0	0.0	0.0
Br	0.233803	1.647354	-2.353573
H	1.095413	0.0	0.0
C	0.212478	-1.09938	-2.189222
N	0.610175	-2.037134	-2.777423
N	-1.874086	0.014877	-1.625244
H	-2.241489	-0.793962	-1.130168
H	-2.115128	-0.071551	-2.606955
C	-0.519665	-1.224539	0.578848
N	-0.97469	-2.207871	1.041561
C	-0.457693	1.224437	0.791597
H	0.166328	2.07035	0.503749
H	-0.283352	1.037103	1.853371
H	-1.510942	1.470102	0.634497
F	2.518747	0.0	0.0
