16

C	-0.075293	-0.048853	-1.534204
C	0.0	0.0	0.0
Br	-1.883223	-0.654677	-2.219161
H	1.09997	0.0	0.0
C	0.036794	1.30818	-2.096692
N	0.195545	2.378511	-2.560229
N	0.942479	-0.943437	-1.974897
H	1.138857	-0.825882	-2.961676
H	1.787028	-0.734997	-1.390906
C	-0.464474	-1.247991	0.576849
N	-0.843091	-2.219319	1.120866
C	-0.627204	1.213226	0.664004
H	-0.487157	1.143802	1.745303
H	-1.700438	1.283691	0.456358
H	-0.135349	2.124052	0.319498
F	2.619353	0.0	0.0
