16

C	-0.485912	-0.030975	-1.445599
C	0.0	0.0	0.0
Br	0.514235	1.431997	-2.467483
H	1.094363	0.0	0.0
C	-0.074916	-1.258458	-2.132764
N	0.187183	-2.246364	-2.712725
N	-1.893294	0.127977	-1.578281
H	-2.18776	0.977358	-1.113655
H	-2.169024	0.169022	-2.551525
C	-0.494281	-1.185951	0.678433
N	-0.890939	-2.122339	1.270735
C	-0.405426	1.25885	0.766162
H	-1.480394	1.340613	0.965849
H	0.119157	1.239365	1.723337
H	-0.05761	2.140062	0.225191
F	2.519629	0.0	0.0
