16

C	-0.489848	0.002419	-1.44325
C	0.0	0.0	0.0
Br	0.512068	1.493785	-2.433005
H	1.108766	0.0	0.0
C	-0.08178	-1.207629	-2.162824
N	0.177675	-2.178242	-2.772257
N	-1.898199	0.166005	-1.569903
H	-2.179195	0.228315	-2.54122
H	-2.192458	1.00299	-1.08288
C	-0.487292	-1.204629	0.647609
N	-0.867894	-2.161802	1.215786
C	-0.407344	1.236845	0.799752
H	0.12439	1.198177	1.752094
H	-1.481717	1.306848	1.009055
H	-0.070737	2.134553	0.278081
F	2.517182	0.0	0.0
