16

C	-0.091889	0.162627	-1.537299
C	0.0	0.0	0.0
Br	-0.053326	-1.756643	-2.40475
H	1.107674	0.0	0.0
C	-1.367451	0.673562	-2.04229
N	-2.383935	1.141682	-2.404611
N	0.997335	0.937182	-1.918175
H	1.852812	0.644666	-1.380573
H	1.117249	1.029171	-2.916362
C	-0.638813	-1.171021	0.553364
N	-1.184639	-2.057207	1.100635
C	-0.474622	1.272923	0.706721
H	-1.551599	1.437037	0.596864
H	-0.236995	1.196892	1.770493
H	0.068203	2.124638	0.294993
F	2.63918	0.0	0.0
