20

C	0.0	0.0	0.0
C	-0.488552	0.033031	-1.447847
F	1.416809	0.0	0.0
H	-1.573696	0.174693	-1.32613
C	-0.482514	1.238441	0.727121
H	-0.147291	2.1383	0.210103
H	-0.102995	1.238133	1.754821
H	-1.577184	1.156214	0.711399
C	-0.498832	-1.232651	0.722874
H	-0.2105	-1.181798	1.77832
H	-0.086986	-2.151825	0.298638
H	-1.59374	-1.181298	0.623971
C	-0.216506	-1.273181	-2.197556
H	0.841414	-1.553268	-2.124915
H	-0.825993	-2.093361	-1.813418
H	-0.463714	-1.148375	-3.258061
N	0.108017	1.197701	-2.121104
H	-0.285818	1.261145	-3.054382
H	1.103616	1.019959	-2.225011
F	-3.039472	0.0	0.0
