20

C	0.0	0.0	0.0
C	-0.480661	-0.025397	-1.459579
F	1.414519	0.0	0.0
H	-1.573424	0.041541	-1.356117
C	-0.492754	1.253311	0.696744
H	-0.147276	1.266947	1.734943
H	-1.58936	1.175934	0.649102
H	-0.128641	2.157742	0.20264
C	-0.494061	-1.210084	0.766452
H	-0.201214	-1.129088	1.818831
H	-0.080052	-2.136562	0.364607
H	-1.588308	-1.169743	0.670164
C	-0.089754	-1.306552	-2.187658
H	0.987675	-1.491538	-2.108299
H	-0.341674	-1.194251	-3.244123
H	-0.622871	-2.173345	-1.792826
N	0.020321	1.116488	-2.245467
H	0.987736	1.270805	-1.980175
H	-0.490494	1.944408	-1.966185
F	-3.030236	0.0	0.0
