13
Coordinates from ORCA-job run
  C   -0.37638694059118     -0.67065775426736     -0.43274277915029
  C   1.04827194916737     -0.14951236172941     -0.30145534944181
  F   -0.48341034371157     -1.13806805293277     -1.74142368925187
  H   1.76415925812404     -0.95521952500282     -0.46266264225999
  H   -0.51304671647675     -1.52807305415087      0.23007392760205
  H   1.22600761253295      0.67623796015778     -0.98778102014985
  C   -1.42729187193680      0.38514582264971     -0.19284261779877
  H   -1.26610371078629      1.24059163269846     -0.85182545356813
  H   -2.41525634958313     -0.03094148964147     -0.39481695189411
  H   -1.40629445561310      0.73021187770985      0.84270727146687
  N   1.24774049263209      0.35739065427932      1.08068490060055
  O   1.20999146609972     -0.48329645471710      1.97797338654706
  O   1.39061961014263      1.56819074494670      1.23511101729830
