13
Coordinates from ORCA-job run
  C   -0.42051487805626     -0.73002177491091     -0.26117136736937
  C   1.03032362029294     -0.26842022502022     -0.27868252843294
  F   -0.58882590888256     -1.47620193490133     -1.42612770235157
  H   1.22552756118294      0.37174237896383     -1.13692500549405
  H   -0.57694911115794     -1.40625498338642      0.58232738120043
  H   1.70185886030440     -1.12666876484617     -0.26808772907107
  C   -1.41277665159473      0.40664080165304     -0.24976357704848
  H   -2.42533736606829      0.00833788492024     -0.32759113123002
  H   -1.23396981509118      1.07586171647765     -1.09367292275844
  H   -1.34058588682073      0.98073571628616      0.67601596946134
  N   1.29583289082492      0.52481596936656      0.94916029113849
  O   1.49981047877654      1.73016010020194      0.82289491297703
  O   1.24660620628996     -0.08972688480436      2.01362340897866
