13
Coordinates from ORCA-job run
  C   -0.32783198976419     -0.19664275665150     -0.51742896408490
  C   0.60535740570027      0.19241934602105      0.60532940335371
  F   -0.02675477863620      0.61897354604283     -1.60668891832779
  H   0.42533475236779     -0.41611840546764      1.49347973258534
  H   -0.12046781052277     -1.22398402145570     -0.82376661854152
  H   0.52689770278269      1.25288453160158      0.83887197521392
  C   -1.77975526684613     -0.00408534925470     -0.14628966740653
  H   -2.06289392196865     -0.66256564774554      0.67775890484903
  H   -1.96458367760739      1.03147126011347      0.14615665661128
  H   -2.41047481975015     -0.23551714312853     -1.00540735043049
  N   2.02500432683668     -0.05263551485581      0.20756559348104
  O   2.81377948345309      0.88085862893062      0.31687047465137
  O   2.29638859395495     -1.18405847415014     -0.18545122195446
