13
Coordinates from ORCA-job run
  C   -0.48735840417836     -0.74947907376510     -0.20384276529782
  C   0.69139778981035     -0.51866919509590      0.72855372799000
  F   -0.01039296559492     -1.28530872469296     -1.39450424566581
  H   0.34759458463914     -0.30486592776695      1.73970148728605
  H   -1.11546148320358     -1.51798523654128      0.25984786754673
  H   1.35609552209606     -1.38127844934008      0.70755363342568
  C   -1.29493876159318      0.48831244907718     -0.51716774633251
  H   -0.68970407000680      1.20286010628049     -1.07628648422836
  H   -1.64536105599353      0.97206213498409      0.39625855136103
  H   -2.15553853394476      0.21437189187078     -1.12830793809132
  N   1.48345803996588      0.66020614086105      0.28515666595857
  O   2.32365177343509      0.47428656713235     -0.59098970432875
  O   1.19755756456865      1.74448731699631      0.79302695037651
