13
Coordinates from ORCA-job run
  C   0.37678702564692     -0.03914289223563     -0.61096135197630
  C   -0.85795575304193      0.29840979522312      0.23562652743166
  H   0.07551239273878     -0.73001898386679     -1.40879808970375
  H   -1.66332077602885      0.58214227363411     -0.45768823745941
  H   -0.63103914773436      1.17915160020615      0.84545238242228
  N   1.40148420944080     -0.69181102780250      0.19130344902672
  H   1.41185231140344     -0.30785683535940      1.12713703204470
  H   2.31599332886652     -0.58351760922663     -0.22726669819594
  C   0.83202489941572      1.20302013686309     -1.26914836985528
  N   1.22557006962459      2.18822830802886     -1.77328189678956
  N   -1.17208412658312     -0.80449311115519      1.13414947794800
  H   -2.05302266036351     -0.62517279131078      1.59917507540710
  H   -1.26180177338499     -1.66893886299842      0.61430069969979
