13
Coordinates from ORCA-job run
  C   0.46909997320814     -0.11011777479871     -0.47644615715914
  C   -0.98070690672802      0.09529367993050     -0.04129787271445
  H   0.53401037732189     -1.11181244274752     -0.91110146715604
  H   -1.62024532859620      0.11968824510399     -0.92768037581053
  H   -1.05333280522576      1.08156766000878      0.44715521730894
  N   1.33317630447323     -0.07534375909701      0.70228643918119
  H   1.44354921977512      0.88292261191403      1.01540939569538
  H   2.25477735727046     -0.42893099726232      0.47600094719625
  C   0.84360077975013      0.87442012795689     -1.51022761640944
  N   1.15859882762897      1.68675922961928     -2.29816666913134
  N   -1.35661843138213     -1.03446856583807      0.79463464822644
  H   -0.72624302606289     -1.06512729463537      1.58652959538309
  H   -2.29966634143294     -0.91485072015447      1.14190391538963
