17

C	-0.46169	0.011425	-1.471501
C	0.0	0.0	0.0
Br	0.324028	1.52179	-2.466247
H	1.09639	0.0	0.0
C	-0.073167	-1.207747	-2.183952
N	0.226274	-2.182697	-2.768274
C	-1.919206	0.154202	-1.562655
N	-3.089845	0.263338	-1.585994
C	-0.484451	-1.282108	0.675342
H	-1.57844	-1.348237	0.700463
H	-0.116858	-1.285714	1.704023
H	-0.082414	-2.171544	0.185916
C	-0.488931	1.232549	0.750284
H	-0.061461	1.210166	1.754892
H	-0.150074	2.153902	0.274998
H	-1.580733	1.255251	0.838029
Cl	3.380912	0.0	0.0
