17

C	-0.381559	0.001112	-1.483586
C	0.0	0.0	0.0
Br	-2.378188	0.008223	-1.731985
H	1.0992	0.0	0.0
C	0.088185	1.196616	-2.181993
N	0.456062	2.152991	-2.756989
C	0.081318	-1.19702	-2.182917
N	0.443115	-2.155729	-2.759048
C	-0.460866	-1.265342	0.709341
H	-0.034319	-1.267026	1.71531
H	-1.551138	-1.316845	0.791857
H	-0.097376	-2.163466	0.204436
C	-0.460415	1.26481	0.710599
H	-0.096222	2.163288	0.206878
H	-0.03429	1.265111	1.71674
H	-1.5507	1.316884	0.79271
Cl	3.328142	0.0	0.0
