16
Coordinates from ORCA-job run
  C   -0.67425331066884     -0.11551353845197     -0.08452750735580
  C   0.65793866469539      0.12158817975785      0.06774965351716
  N   -1.13084499506642     -1.23691833669966     -0.87766579374884
  O   -2.26359140078104     -1.67258099791667     -0.65258527808262
  O   -0.38225991830948     -1.69750413635177     -1.74632084042218
  C   -1.71847081977043      0.69824869779101      0.61529862901821
  H   -1.55861648593932      0.70130549620555      1.69845550661209
  H   -2.70578381137341      0.28602031244503      0.42377971525016
  H   -1.71127628619371      1.73763899644586      0.26659265142425
  C   1.79282582290036     -0.68477600111403     -0.49621576412150
  H   1.96378223304909     -0.42999170833799     -1.54385531215176
  H   2.70221957677280     -0.48560967701273      0.07572959780165
  H   1.58475670791266     -1.75196217905622     -0.46587551310712
  N   1.05734460213301      1.15370613098072      0.89475319179540
  H   0.38982406396783      1.88690802739126      1.07280651279767
  H   1.99540535667151      1.48944073392379      0.74988055077324
