16
Coordinates from ORCA-job run
  C   -0.66982903975387     -0.11479535447125     -0.06315334184395
  C   0.66201181568044      0.16210000933254      0.00257841435005
  N   -1.14101047211237     -1.29162489011584     -0.75794817349592
  O   -2.24188754744828     -1.73798592735433     -0.41992923889155
  O   -0.44212506188618     -1.79237723758195     -1.64544563446275
  C   -1.70845326328027      0.70829175735163      0.63439493573529
  H   -1.54546006439824      1.77217272423357      0.43762687633325
  H   -2.70100504761143      0.44399196638031      0.27684849528351
  H   -1.70338016125629      0.54977579431518      1.71893852721908
  C   1.77181793353812     -0.60205254722145     -0.66175574384003
  H   2.73470307720763     -0.31217079345910     -0.23401056513652
  H   1.64312265093114     -1.67715674367793     -0.55230263903371
  H   1.78879837247455     -0.39739100764542     -1.73284644870190
  N   1.07407335530871      1.29711337177671      0.67358506376967
  H   2.03644590710257      1.30547999014953      0.96763582936030
  H   0.44317754550378      1.68562888798781      1.35578364335518
