16
Coordinates from ORCA-job run
  C   -0.67407291059174     -0.10850564637916      0.02183259371928
  C   0.66087869275103      0.13381266275603     -0.09501576269974
  N   -1.54484688871538      0.86789012370811      0.63623427206001
  O   -1.21315802817968      2.05822166490930      0.64071237292457
  O   -2.59699858594852      0.44812674014259      1.12842999852426
  C   -1.30492304391141     -1.40455275932961     -0.38421881054917
  H   -0.97005384276295     -1.69354237757853     -1.38502131934117
  H   -2.38799849529960     -1.30714323923802     -0.40264856198679
  H   -1.06566110710079     -2.21754542963281      0.31098054313898
  C   1.38121022618104      1.39565218289488      0.28683605677278
  H   1.19110295053221      2.18069876052576     -0.44604669552145
  H   1.04283870508197      1.77799336779220      1.24786804041628
  H   2.45756671763161      1.21296506502901      0.33420702465786
  N   1.46182833051939     -0.82096903056146     -0.68967674243750
  H   1.11599877862309     -1.76635377082242     -0.71669601455819
  H   2.44528850118972     -0.75774831421587     -0.48677699512000
