16
Coordinates from ORCA-job run
  C   -0.65038297225769     -0.14054633453205     -0.15257084005778
  C   0.65193115732319      0.17966058819250      0.08474259444357
  N   -0.99646388494500     -1.41226942918424     -0.74633879559513
  O   -0.16197445298749     -2.00574730859120     -1.43791358397406
  O   -2.13339895404571     -1.84181430804573     -0.52656434532942
  C   -1.79253646406143      0.73796538655559      0.25544435962077
  H   -1.95777495175190      0.72692921539781      1.33893755969239
  H   -1.60867510576152      1.77007343450135     -0.05783465816147
  H   -2.71404681193935      0.39910126272193     -0.21234577164138
  C   1.85868130614984     -0.63467483051365     -0.28633180177984
  H   2.04665766102221     -0.57224621111637     -1.35880281877313
  H   1.72016227891438     -1.68910147333731     -0.05538188011367
  H   2.73841499741096     -0.26493675239435      0.24611508680783
  N   0.94395720880413      1.40461961136910      0.65218747279929
  H   0.20949230334975      1.86395261489690      1.16586650624504
  H   1.84695668477563      1.48003453407972      1.08979091581700
