16
Coordinates from ORCA-job run
  C   -0.68363403368330     -0.07707211898682      0.04221995322126
  C   0.66503541544588      0.08161169516971     -0.05611827609522
  N   -1.50641402484178      0.98582179086537      0.58045192356302
  O   -2.60517493501066      0.67640734027076      1.05024354943236
  O   -1.08601330063931      2.14691430507656      0.53511275456213
  C   -1.36874059826188     -1.36046476170621     -0.31219285939352
  H   -1.29332939599437     -1.56835986597092     -1.38599501143175
  H   -0.93070144875578     -2.20444637574487      0.23032562893799
  H   -2.42282164773100     -1.30574683225256     -0.05276066874720
  C   1.47108993423140      1.27558043014197      0.36903470814509
  H   2.51137174837447      0.97774823242323      0.52095891384990
  H   1.09277405901295      1.71240972135380      1.29046213541966
  H   1.42849357691833      2.05976492416609     -0.38915617635953
  N   1.42538616932551     -0.97950249802087     -0.50906754458930
  H   0.95744718286566     -1.67560229395553     -1.06703182315211
  H   2.34423129874390     -0.74406369282972     -0.84648720736279
