16
Coordinates from ORCA-job run
  C   -0.65220338815191     -0.12598908555363     -0.17158490623678
  C   0.67194587255090      0.22706499140086     -0.24226438642288
  N   -1.55560718746546      0.16281568939590     -1.25028444795452
  O   -2.75682174380411     -0.04971605699319     -1.05456328197928
  O   -1.11918144066556      0.61097615580076     -2.32668061388498
  C   -1.31245109627737     -0.73698117134398      1.02590812561172
  H   -0.57637965147521     -1.06340734416129      1.75857689995445
  H   -2.00011818500888     -0.03572654771816      1.50628098000956
  H   -1.90458503731639     -1.60459903893770      0.72886933895731
  C   1.56956953720599     -0.01428188508871      0.94582091554919
  H   2.54898186417393      0.44098693992426      0.78842322868330
  H   1.14602116616898      0.40164422004703      1.86018676632648
  H   1.72568490246262     -1.08437568495474      1.10052970984611
  N   1.30814798580763      0.70355834823623     -1.34426382625923
  H   0.72494921452094      0.98587964570504     -2.11794018893631
  H   2.18104718727390      1.18215082424133     -1.20601431326413
