16
Coordinates from ORCA-job run
  C   -0.63116505165584     -0.17602348651667     -0.08914826298441
  C   0.65952228118872      0.19805426622573     -0.18840391730839
  N   -1.45556454284669      0.03110741615062     -1.28693175607280
  O   -1.81812911872162     -0.97289145031164     -1.89827202899065
  O   -1.74035638578937      1.19195323395668     -1.59653373647222
  C   -1.40855916455155     -0.72231173953893      1.06211601704941
  H   -2.07320067513818      0.03919159244492      1.48250239486696
  H   -0.75491952491219     -1.08252225342621      1.85530722964224
  H   -2.02390708212492     -1.56242820291934      0.72898647325749
  C   1.65864360616001      0.00811849893107      0.91316439308329
  H   2.53277570635907     -0.52084006430923      0.52345471613688
  H   1.99603778994269      0.97873495743952      1.29141603817805
  H   1.26146171958883     -0.56066507575547      1.75058160064438
  N   1.20665338827366      0.70238779148472     -1.37080725886667
  H   2.03895338557153      1.25148340914624     -1.21871377387142
  H   0.55075366865586      1.19665110699800     -1.95871812829215
