16
Coordinates from ORCA-job run
  C   -0.66406848676420     -0.12747014826087      0.11432338541683
  C   0.66110694585229      0.12088833813227     -0.08066447592874
  N   -1.19904055581801     -1.45282297012553     -0.11163734717785
  O   -0.44066989506113     -2.42605389632151     -0.04395824997851
  O   -2.40650396900156     -1.54358014677291     -0.35286391557533
  C   -1.64812521413426      0.95030112407060      0.45118629609667
  H   -1.74546030987207      1.67704935558056     -0.36218464805687
  H   -2.63008619870477      0.52006887270520      0.63121371750221
  H   -1.34468020762534      1.48874306355356      1.35592550885941
  C   1.71141367404476     -0.86494490842385     -0.50809727234320
  H   1.34540405592411     -1.52863842616549     -1.28890852618957
  H   2.00802642716708     -1.50199671262909      0.32664253157780
  H   2.58573022138005     -0.32889095362248     -0.88436660718629
  N   1.11991839747742      1.41895319324929      0.02370633632207
  H   2.10489722689086      1.52218374764972      0.20473602510863
  H   0.54413788824477      2.07521046738054      0.52594724155275
