16
Coordinates from ORCA-job run
  C   -0.61946441796409     -0.22670116418949     -0.18838055700593
  C   0.62978418579298      0.32869888912235     -0.19580151008439
  N   -1.50034938518147     -0.03332303701135     -1.33365961744184
  O   -1.37178572719730      0.97649625637314     -2.03569308160959
  O   -2.42469059321318     -0.83752346278440     -1.46738997240393
  C   -1.28418803660449     -0.88333842221772      0.98650562439184
  H   -1.98266345404514     -1.64263830152501      0.64021191834608
  H   -0.56130239444223     -1.36908149592806      1.64025802873576
  H   -1.84183982110323     -0.15265489268277      1.58211880548886
  C   1.57761448405006      0.06873594183835      0.94539736626667
  H   2.32861634507188      0.85974376509471      1.00582835550642
  H   2.09916141594101     -0.88205902543851      0.80354615188522
  H   1.06497677263361      0.02954862208224      1.90436650558258
  N   1.21475724906999      0.92901022370786     -1.29152554900944
  H   0.59034909697311      1.43196684445175     -1.90113558758480
  H   2.08102428021848      1.40311925910691     -1.09564688106350
