13

C	-0.530726	0.018538	-1.428282
C	0.0	0.0	0.0
F	0.028201	1.074494	-2.11776
H	1.094479	0.0	0.0
H	-1.615183	0.179247	-1.422048
C	-0.249134	-1.229075	-2.163529
N	-0.094669	-2.215999	-2.779818
C	-0.493722	-1.179544	0.693528
N	-0.910557	-2.10969	1.282184
N	-0.388097	1.25143	0.660766
H	-0.976802	1.072122	1.463424
H	0.481161	1.663727	0.993516
H	2.661919	0.0	0.0
