13

C	-0.437337	-0.027299	-1.44236
C	0.0	0.0	0.0
F	-1.824077	-0.186511	-1.572993
H	1.102192	0.0	0.0
H	0.035118	-0.873504	-1.95191
C	-0.077993	1.21757	-2.136989
N	0.15312	2.187008	-2.755262
C	-0.448276	-1.213379	0.674442
N	-0.78863	-2.172817	1.26297
N	-0.386571	1.229661	0.673904
H	-1.218181	1.113403	1.238617
H	0.387311	1.50273	1.27166
H	2.646544	0.0	0.0
