17
Coordinates from ORCA-job run
  C   -0.49140254117498     -0.40006254780146     -0.26531460976635
  C   0.97293685486906     -0.52046631319833      0.21725655957381
  Cl  -1.01234916967525     -2.10878616142254     -0.49702431202415
  H   1.53580365982130     -1.13179378290324     -0.49006831220858
  C   -0.55144803986519      0.30657080327253     -1.61021453429153
  H   -1.56537016101389      0.23647201948952     -2.00672202015941
  H   0.13563867674723     -0.14259405586213     -2.32945313783224
  H   -0.30035818770743      1.36417313635034     -1.49807331098087
  C   -1.40569518871285      0.24233550725092      0.76220099355494
  H   -2.42706614922385      0.24727055326089      0.37771696355268
  H   -1.39393319099124     -0.30814260399435      1.70366619441468
  H   -1.09558189430715      1.27118610866005      0.95412541737041
  C   1.08765490417765     -1.06567724070648      1.56403412284461
  N   1.17568025477840     -1.51738091371132      2.64430873173013
  N   1.62907424804631      0.84162170124585      0.17881949033228
  O   2.32680562954582      1.07241880104993     -0.80402478900466
  O   1.37961029468606      1.61385498901981      1.09876655289425
