17
Coordinates from ORCA-job run
  C   -0.47504505955073     -0.31226199027989     -0.29395646088409
  C   0.82432092301614     -0.43373805347453      0.53149033068235
  Cl  -0.55097156230377     -1.77267613958435     -1.33693840795200
  H   0.81396791987005     -1.37645377019747      1.08273163873335
  C   -0.52496075191807      0.92441359190486     -1.17470523947778
  H   -1.49143185494850      0.95556851139189     -1.68085340200758
  H   -0.41994695655668      1.82547346269872     -0.56488103849972
  H   0.26112202516408      0.92123827109540     -1.92740168287298
  C   -1.65302308589516     -0.35664143975816      0.67126993092076
  H   -1.66082068513402      0.53511756211048      1.30310076950198
  H   -2.58332396032663     -0.38585270789688      0.10184093110551
  H   -1.61252388913663     -1.24495180304026      1.30546940002178
  C   0.96860593048718      0.69449747292613      1.44478414878707
  N   1.04165259936209      1.59709162750483      2.19284820507029
  N   2.05835962800629     -0.50418449595377     -0.33981846642311
  O   2.41870738378717      0.53849222780006     -0.87648943338601
  O   2.58731139607717     -1.60513232724705     -0.43949122331982
