17
Coordinates from ORCA-job run
  C   -0.62142514894227      0.15447028107742      0.24981229866829
  C   0.79170081885004     -0.18736924134246      0.77617527840673
  Cl  -1.50466362191044      0.71646691913405      1.71585817526288
  H   0.70529902816022     -0.88133565526752      1.61390549926301
  C   -1.30959091642565     -1.09529142260427     -0.27567126344072
  H   -2.35494460332160     -0.86672088683617     -0.48803733576482
  H   -0.83787249529332     -1.43002031510868     -1.20283166712880
  H   -1.27125281826814     -1.90897529560968      0.45064180437826
  C   -0.62118624173276      1.28086706226621     -0.76782965562497
  H   -0.17582666690345      2.18742573990275     -0.35643131076116
  H   -1.65043091460966      1.50193629341506     -1.05567919751232
  H   -0.06065711594021      0.98768246154079     -1.65737564928810
  C   1.55733594137493      0.98969257010412      1.16664333923846
  N   2.16797849543933      1.93883938468714      1.49046983677060
  N   1.55687469997780     -0.94107429326588     -0.28917471764549
  O   1.58252105831933     -2.16187857403885     -0.16731061825000
  O   2.04714050122585     -0.28471502805402     -1.20216481657186
