17
Coordinates from ORCA-job run
  C   -0.47215898099942     -0.31076980310745     -0.29974160596692
  C   0.81590088756434     -0.43431398008780      0.54360068060256
  Cl  -0.53791041621574     -1.77243502120761     -1.34139521642551
  H   0.79280759124196     -1.37536927664883      1.09723276952235
  C   -0.50713515347576      0.92436592615917     -1.18348182238314
  H   0.29197945575879      0.91946993272991     -1.92230926859040
  H   -0.41294929385925      1.82685039395505     -0.57395858243134
  H   -1.46448763767290      0.95371168904663     -1.70681202978928
  C   -1.66289471265925     -0.35069403850474      0.64972443400180
  H   -1.67397186760874      0.53927854556848      1.28388334463925
  H   -1.63577538935820     -1.24095822068775      1.28173552448607
  H   -2.58614743838345     -0.37302310066515      0.06869661202419
  C   0.95202836598965      0.69572783723481      1.45582692973937
  N   1.01977167501227      1.59951338988253      2.20299722884426
  N   2.06083568746469     -0.51214539244745     -0.31046981443330
  O   2.43264288700276      0.52761423194438     -0.84489530192882
  O   2.58546434019824     -1.61582311316418     -0.40163388191114
