19

C	-0.047718	0.034061	-1.529565
C	0.0	0.0	0.0
Cl	-1.748438	0.35551	-2.160959
H	1.09952	0.0	0.0
N	0.833507	1.07116	-2.051497
H	0.496971	1.971766	-1.728834
H	1.713922	0.889923	-1.5416
C	0.439424	-1.286356	-2.08964
H	1.440313	-1.419266	-1.666583
H	0.497443	-1.216845	-3.176686
H	-0.19817	-2.109095	-1.776898
N	-0.531209	-1.239568	0.556499
H	-1.48909	-1.097815	0.861192
H	0.022954	-1.480951	1.36967
C	-0.533104	1.245109	0.689789
H	-0.100157	2.16376	0.287211
H	-1.62508	1.314212	0.604805
H	-0.269506	1.203149	1.751399
F	2.733961	0.0	0.0
