19

C	-0.356616	0.051014	-1.483184
C	0.0	0.0	0.0
Cl	0.144352	-1.636479	-2.20058
H	1.099367	0.0	0.0
N	-1.744184	0.256766	-1.698308
H	-2.24115	-0.410144	-1.115167
H	-1.991212	0.104337	-2.668486
C	0.559365	1.024736	-2.199306
H	0.526834	0.885307	-3.283087
H	1.568654	0.848652	-1.807328
H	0.242787	2.045657	-1.969722
N	-0.667197	-1.153012	0.635274
H	-0.563202	-1.033528	1.637988
H	-0.115347	-1.971774	0.399806
C	-0.461247	1.26808	0.70635
H	-0.033414	2.155352	0.238522
H	-0.086064	1.243808	1.735606
H	-1.551703	1.36102	0.723495
F	2.747789	0.0	0.0
