19

C	-0.619152	0.047058	-1.400843
C	0.0	0.0	0.0
Cl	-0.074223	1.610295	-2.224406
H	1.097851	0.0	0.0
N	-0.151013	-1.0611	-2.172109
H	-0.878742	-1.422367	-2.775486
H	0.147458	-1.776892	-1.519868
C	-2.141729	0.139629	-1.379748
H	-2.533631	0.136236	-2.401324
H	-2.489151	1.052643	-0.89306
H	-2.53639	-0.732117	-0.847594
N	-0.314252	-1.324661	0.587912
H	0.520229	-1.579291	1.106961
H	-1.076968	-1.254425	1.257421
C	-0.440512	1.134118	0.91287
H	-0.306454	2.108909	0.440015
H	-1.489182	1.044178	1.237102
H	0.198322	1.110237	1.801003
F	2.657629	0.0	0.0
