19

C	-0.365927	0.052926	-1.480932
C	0.0	0.0	0.0
Cl	0.15578	-1.622445	-2.205208
H	1.099388	0.0	0.0
N	-1.758687	0.23885	-1.682027
H	-2.012202	0.077074	-2.649505
H	-2.235649	-0.435789	-1.090618
C	0.527776	1.045049	-2.197435
H	1.540841	0.882017	-1.811165
H	0.494848	0.909796	-3.281997
H	0.193435	2.059107	-1.961063
N	-0.663816	-1.155449	0.632207
H	-0.110095	-1.972365	0.397698
H	-0.562847	-1.039399	1.636294
C	-0.463442	1.262504	0.714123
H	-0.088329	1.233754	1.74347
H	-1.554298	1.353319	0.731785
H	-0.037349	2.153046	0.250527
F	2.747601	0.0	0.0
