15

C	0.0	0.0	0.0
C	-0.542989	0.030779	-1.426419
F	1.341618	0.0	0.0
H	-1.64929	0.180546	-1.305187
N	-0.376622	1.331141	0.701253
O	-0.204183	1.338115	1.910959
O	-0.699348	2.272734	-0.005807
C	-0.464313	-1.08481	0.869002
N	-0.606632	-1.913213	1.691089
N	-0.371899	-1.299522	-2.127973
O	-0.30797	-1.25895	-3.351811
O	-0.375664	-2.31316	-1.44101
C	0.116535	1.044142	-2.23445
N	0.672925	1.825377	-2.911761
Cl	-3.243065	0.0	0.0
