15

C	0.0	0.0	0.0
C	-0.334221	0.026511	-1.526606
F	1.346752	0.0	0.0
H	0.578263	-0.402297	-1.953022
N	-0.375017	1.189192	0.872547
O	-0.289197	0.969684	2.072559
O	-0.567719	2.264201	0.327452
C	-0.454531	-1.259057	0.594145
N	-0.476151	-2.363414	1.000273
N	-0.321122	1.423497	-2.123971
O	0.783835	1.959035	-2.128106
O	-1.355191	1.875355	-2.586664
C	-1.441212	-0.759559	-2.059316
N	-1.978667	-1.473817	-2.829479
Cl	-2.88981	0.0	0.0
