15

C	0.0	0.0	0.0
C	-0.4146	0.033852	-1.510022
F	1.347699	0.0	0.0
H	-0.639085	-0.995211	-1.807677
N	-0.371524	1.246095	0.789516
O	-0.660453	2.255886	0.166312
O	-0.207805	1.126219	1.999419
C	-0.451993	-1.210663	0.685231
N	-0.518169	-2.278843	1.175296
N	0.856912	0.439694	-2.275601
O	1.147651	1.627829	-2.244434
O	1.480622	-0.456913	-2.838865
C	-1.456873	0.925012	-2.029748
N	-2.078757	1.573265	-2.807003
Cl	-2.902231	0.0	0.0
