15

C	0.0	0.0	0.0
C	-0.433308	0.143528	-1.469928
F	1.393157	0.0	0.0
H	-1.530742	0.145705	-1.484126
H	-0.06787	1.089867	-1.880862
C	-0.451927	1.202173	0.801274
H	-0.007479	2.110331	0.387079
H	-0.10806	1.071544	1.828876
H	-1.540634	1.276623	0.784617
N	-0.451767	-1.203681	0.630519
H	-0.263013	-1.998889	0.027622
H	-1.465324	-1.126599	0.729584
C	0.078441	-0.953031	-2.285716
N	0.472659	-1.849541	-2.933004
Br	-3.824864	0.0	0.0
