15

C	0.0	0.0	0.0
C	-0.471734	0.146872	-1.445183
F	1.416914	0.0	0.0
H	-0.11772	1.097606	-1.85578
H	-1.571207	0.137487	-1.421911
C	-0.46597	1.165987	0.838871
H	-1.558375	1.203538	0.825158
H	-0.041738	2.094265	0.449351
H	-0.112118	1.037249	1.865772
N	-0.473966	-1.223906	0.522877
H	-0.08146	-2.024635	0.047736
H	-0.355549	-1.29304	1.521869
C	0.028387	-0.940889	-2.282138
N	0.415416	-1.829049	-2.945007
Br	-4.052976	0.0	0.0
