12

C	-0.438151	-0.030282	-1.445396
C	0.0	0.0	0.0
F	-1.830534	0.043446	-1.576879
H	1.093532	0.0	0.0
H	-0.3217	0.94654	0.443099
C	0.114489	1.129715	-2.172376
N	0.531939	2.041333	-2.782003
C	-0.015399	-1.271181	-2.122241
N	0.277157	-2.251667	-2.699017
C	-0.543519	-1.11901	0.741988
N	-0.945687	-2.031127	1.365139
H	2.61748	0.0	0.0
