12

C	-0.440087	-0.015667	-1.454741
C	0.0	0.0	0.0
F	-0.050456	1.155108	-2.072382
H	1.093622	0.0	0.0
H	-0.305902	-0.932351	0.484092
C	0.168121	-1.155192	-2.17794
N	0.595448	-2.037523	-2.824097
C	-1.9092	-0.120774	-1.602814
N	-3.076902	-0.210157	-1.699715
C	-0.557458	1.140663	0.697201
N	-0.972789	2.074364	1.278013
H	2.625516	0.0	0.0
