12

C	-0.438193	0.052813	-1.45553
C	0.0	0.0	0.0
F	-0.041061	-1.097495	-2.10715
H	1.09368	0.0	0.0
H	-0.309263	0.919579	0.506733
C	-1.907654	0.156271	-1.601646
N	-3.076093	0.245234	-1.697208
C	0.163281	1.218407	-2.141209
N	0.58994	2.122458	-2.756817
C	-0.557056	-1.159335	0.666893
N	-0.969444	-2.111145	1.220615
H	2.626816	0.0	0.0
