12

C	-0.445112	0.035777	-1.455891
C	0.0	0.0	0.0
F	0.010455	-1.112932	-2.076329
H	1.093481	0.0	0.0
H	-0.347732	-0.943492	0.431435
C	-1.918204	0.049074	-1.596435
N	-3.090286	0.039268	-1.683556
C	0.093577	1.209086	-2.17584
N	0.439805	2.145524	-2.794254
C	-0.529167	1.128717	0.738853
N	-0.921755	2.057355	1.34432
H	2.634387	0.0	0.0
