12

C	-0.441702	-0.012122	-1.4435
C	0.0	0.0	0.0
F	-1.834061	0.06617	-1.568986
H	1.093636	0.0	0.0
H	-0.322438	0.941034	0.455133
C	0.111003	1.153785	-2.160646
N	0.534019	2.074202	-2.753748
C	-0.022501	-1.244876	-2.139682
N	0.269936	-2.216195	-2.731232
C	-0.545406	-1.126839	0.729924
N	-0.95936	-2.044114	1.338272
H	2.618081	0.0	0.0
