12

C	-0.440415	-0.033442	-1.45503
C	0.0	0.0	0.0
F	-0.051257	1.129005	-2.08819
H	1.093548	0.0	0.0
H	-0.306628	-0.926399	0.495549
C	0.16374	-1.183309	-2.164076
N	0.588744	-2.077141	-2.795926
C	-1.909812	-0.140509	-1.598069
N	-3.077779	-0.23054	-1.690734
C	-0.555984	1.149534	0.683584
N	-0.976769	2.08877	1.252048
H	2.626234	0.0	0.0
