12

C	-0.437152	-0.056704	-1.455283
C	0.0	0.0	0.0
F	-0.040249	1.093242	-2.107748
H	1.093679	0.0	0.0
H	-0.309283	-0.918226	0.509048
C	0.163906	-1.222677	-2.140873
N	0.573782	-2.134465	-2.757736
C	-1.906611	-0.159893	-1.600172
N	-3.07476	-0.248071	-1.69463
C	-0.557244	1.16162	0.662857
N	-0.967254	2.116178	1.213596
H	2.623905	0.0	0.0
