12

C	-0.441012	0.005364	-1.444777
C	0.0	0.0	0.0
F	-1.833249	-0.078951	-1.57194
H	1.093633	0.0	0.0
H	-0.323383	-0.938157	0.460782
C	-0.024832	1.237614	-2.140992
N	0.261118	2.208582	-2.73509
C	0.117491	-1.161371	-2.154407
N	0.537946	-2.080867	-2.753062
C	-0.542331	1.133414	0.722606
N	-0.939832	2.053557	1.337264
H	2.616481	0.0	0.0
