14

C	-0.329898	0.027761	-1.49516
C	0.0	0.0	0.0
F	0.050655	-1.18002	-2.042071
H	1.096562	0.0	0.0
N	-1.732974	0.18676	-1.752123
H	-1.89482	0.403449	-2.72863
H	-2.112361	0.931735	-1.181092
C	0.493167	1.070615	-2.169355
N	0.996294	1.932858	-2.788641
C	-0.537955	-1.188956	0.630474
N	-0.934652	-2.157194	1.166435
C	-0.476848	1.211664	0.6346
N	-0.865015	2.215219	1.111368
F	2.430613	0.0	0.0
