14

C	-0.363166	0.066521	-1.485801
C	0.0	0.0	0.0
F	0.198854	-1.069264	-2.083328
H	1.095812	0.0	0.0
N	-1.766946	0.124489	-1.712779
H	-2.215672	-0.650369	-1.234663
H	-1.964757	0.067937	-2.704572
C	0.270713	1.237847	-2.129793
N	0.706348	2.163673	-2.704968
C	-0.523506	-1.227548	0.567133
N	-0.961235	-2.225929	1.009818
C	-0.486117	1.165369	0.71293
N	-0.83788	2.124309	1.295407
F	2.432044	0.0	0.0
