14

C	-0.357156	-0.097113	-1.485211
C	0.0	0.0	0.0
F	0.131095	-1.334558	-1.929048
H	1.102728	0.0	0.0
N	-1.75192	0.025003	-1.730798
H	-1.957406	-0.137433	-2.709771
H	-2.255982	-0.644775	-1.160568
C	0.35602	0.934157	-2.269607
N	0.852269	1.737941	-2.9659
C	-0.541551	-1.144374	0.704782
N	-0.989585	-2.081058	1.25833
C	-0.465266	1.248344	0.573532
N	-0.79692	2.267495	1.057461
F	2.429607	0.0	0.0
