14

C	-0.147801	0.089094	-1.534468
C	0.0	0.0	0.0
F	-1.397352	0.580559	-1.914795
H	1.105888	0.0	0.0
N	0.876192	0.964863	-1.980347
H	1.040867	0.863304	-2.972629
H	1.732989	0.754148	-1.436191
C	-0.077583	-1.27062	-2.137856
N	0.029463	-2.30857	-2.679096
C	-0.593877	-1.17789	0.596575
N	-1.059098	-2.135846	1.093474
C	-0.47942	1.221747	0.622489
N	-0.854312	2.197261	1.158581
F	2.534313	0.0	0.0
