14

C	-0.103795	0.147139	-1.546196
C	0.0	0.0	0.0
F	0.166939	1.476947	-1.811572
H	1.096473	0.0	0.0
N	0.882039	-0.644812	-2.203441
H	0.612504	-1.621359	-2.195901
H	1.74239	-0.533126	-1.635403
C	-1.465932	-0.122769	-2.05753
N	-2.559447	-0.316145	-2.438156
C	-0.454916	-1.316205	0.399205
N	-0.779872	-2.410161	0.681167
C	-0.615257	1.066869	0.756163
N	-1.098376	1.930269	1.390573
F	2.515822	0.0	0.0
