13
Coordinates from ORCA-job run
  C   -0.75739168928621     -0.11604090590981     -0.00292009131268
  C   0.60250192129427      0.18031073140047      0.06180789887142
  N   -1.33799573826418     -0.98135734320246     -0.98491400606219
  O   -2.52550590956864     -1.26755845459131     -0.85107543893495
  O   -0.62797346438150     -1.38690934221337     -1.91900862993879
  C   -1.62439752545461      0.37675507238004      1.00265343493340
  N   -2.24078059908464      0.84756730698496      1.88878794683357
  N   1.49399625919663     -0.12327704309121     -0.90508849851515
  H   1.14381808679875     -0.72212177050224     -1.63997252695983
  H   2.45273411502775     -0.24258766466724     -0.62096469220850
  N   1.10523463310160      0.82544149181369      1.15526296852492
  H   0.43637465949654      1.16164415490006      1.83116757143702
  H   1.87838525112423      1.44913376669841      0.98526406333176
