13
Coordinates from ORCA-job run
  C   -0.72809626987557     -0.24008982877201     -0.00047870028685
  C   0.58597757873870      0.21319938245388      0.09889932933725
  N   -1.23685898552991     -0.97601929552728     -1.11731595092306
  O   -2.43697804022096     -1.24032358496980     -1.11766924756253
  O   -0.45141372468071     -1.31661050370176     -2.01637039291583
  C   -1.65510574383921      0.09935027974606      1.01448090189840
  N   -2.32497619775318      0.44064496053958      1.92113633890078
  N   1.58414767384335     -0.15658384877929     -0.73185006324071
  H   2.34736410428317      0.49152084515755     -0.84084571071449
  H   1.28886730796020     -0.67172082876259     -1.54973464064746
  N   0.92920369493675      1.08318569846524      1.09355013762823
  H   0.22962999276843      1.27286973814369      1.79481360001397
  H   1.86823860936895      1.00057698600673      1.44938439851230
