13
Coordinates from ORCA-job run
  C   -0.74481378271962     -0.17541982576164     -0.06567549804521
  C   0.60650849230023      0.10009173962771      0.14306537032337
  N   -1.52260753525720      0.39741863026644     -1.12073406075518
  O   -2.66815939544844     -0.02230623272046     -1.26904242024970
  O   -1.01519478242647      1.28808455953576     -1.82218795470597
  C   -1.38744035111073     -1.13564794677751      0.75261150231646
  N   -1.80080163976128     -1.93237077935563      1.51558906567203
  N   1.27925013324038      1.08964978490350     -0.47784904036595
  H   0.78238287005001      1.54312468553060     -1.23196975812149
  H   2.27771457024985      0.99436487145541     -0.55751573601372
  N   1.32141279668932     -0.65109700796786      1.02889147428147
  H   2.06830738282498     -0.18239534877781      1.51712070687574
  H   0.80444124136896     -1.31349712995851      1.58669634878815
