13
Coordinates from ORCA-job run
  C   -0.75512874605710     -0.11952704643756     -0.03215875222009
  C   0.60112182989300      0.17408751287537      0.09301861522589
  N   -1.30085652360534     -0.93706947820419     -1.07341040214351
  O   -0.55545636317515     -1.31123129778182     -1.99298334308506
  O   -2.49521240783511     -1.21688583790270     -1.00110507982034
  C   -1.66057546045110      0.34112236853310      0.95435843956461
  N   -2.31252232427032      0.78259674639052      1.83013897252256
  N   1.52750759756289     -0.09141993137961     -0.85203341503357
  H   1.20339332518193     -0.66036152202249     -1.62186369707325
  H   2.47553111197479     -0.22292096205498     -0.53903413496723
  N   1.06294972976719      0.77436273082823      1.22919938308231
  H   1.84065995176146      1.40449198506387      1.11280357326974
  H   0.36958827925286      1.08375473209226      1.89306984067795
