13
Coordinates from ORCA-job run
  C   -0.74020713169872     -0.18676218470922     -0.05489204134453
  C   0.60630514465456      0.11314252117133      0.14044375461860
  N   -1.54688159098778      0.40021101937895     -1.08208908267489
  O   -2.68813202075860     -0.03457654020053     -1.21833404191698
  O   -1.06656450857410      1.31394387045421     -1.77171510023647
  C   -1.35193742957677     -1.18685241636927      0.73949320340181
  N   -1.74584290161195     -2.02991241652567      1.46133486221125
  N   1.25278211420604      1.13522504571991     -0.45918612298685
  H   0.73482158155859      1.59546287864633     -1.19515903825689
  H   2.24765655439093      1.03517368924042     -0.58118931472365
  N   1.35339144028930     -0.64797716807666      0.99263442710448
  H   0.85957755015303     -1.33801599050446      1.53814615524172
  H   2.08703119795548     -0.16806230822533      1.48951233956239
