13
Coordinates from ORCA-job run
  C   -0.77658550267217     -0.07416909078451      0.00412323547338
  C   0.59581933234967      0.20396682929729     -0.00652446937738
  N   -1.39296278704759     -1.05781345718479     -0.82451902592103
  O   -2.60666094400869     -1.21693186439834     -0.70670199818599
  O   -0.68634904605997     -1.69812762071558     -1.62229263745399
  C   -1.59650032492315      0.55220355479278      0.97257970369185
  N   -2.15938988248020      1.14036526435656      1.82378947987600
  N   1.46070566683445     -0.36488860868639     -0.85784076088988
  H   1.12169623656183     -1.13447986569488     -1.41661529090974
  H   2.44553127327401     -0.18204408230888     -0.78471121931590
  N   1.07729533129471      1.18079071840143      0.81300631771230
  H   0.46455294189089      1.50179025096663      1.54646866593748
  H   2.05284770498621      1.14833797195868      1.05923799936291
