13
Coordinates from ORCA-job run
  C   -0.74501572307675     -0.17346495050325      0.04646965186378
  C   0.58931513654687      0.22606767630651      0.02390351032294
  N   -1.32946902714222     -1.05066012342689     -0.92265930675826
  O   -0.66338093569648     -1.36774564887260     -1.92110986081076
  O   -2.47746314132085     -1.43602758005502     -0.71318369376956
  C   -1.56804950837054      0.21397464025638      1.13202324655928
  N   -2.14895274358566      0.60267022607225      2.07982504831429
  N   1.42634063956630      0.02795180412697     -1.01618779323412
  H   1.06832795315417     -0.57154786123074     -1.74695464964313
  H   2.40937097016101     -0.02991181386849     -0.80518589687391
  N   1.12311362271273      0.87088011151554      1.10309701939062
  H   1.83106562159946      1.55934766961232      0.90014730842346
  H   0.48479713545197      1.12946585006702      1.83981541621538
