13
Coordinates from ORCA-job run
  C   -0.77406135840800     -0.11351116602368     -0.00382871342378
  C   0.60348447522024      0.09881722653564      0.12797803104245
  N   -1.34344181128636     -1.01609430716595     -0.94547108376254
  O   -0.59601489964524     -1.80764855457533     -1.54672840186891
  O   -2.56002643522481     -0.95618715441917     -1.12465519481223
  C   -1.66093602710537      0.71020783959482      0.72887659973718
  N   -2.27915203961340      1.46430695374523      1.38922489818785
  N   1.54203855666302     -0.70093022653770     -0.40894972090030
  H   2.46249936629683     -0.32687369011750     -0.55271982850140
  H   1.20275342288155     -1.42209529160939     -1.03078368599354
  N   1.04394781933964      1.15394964873848      0.85428263742323
  H   0.37663445635207      1.75677614179979      1.30837414423006
  H   1.98327447452985      1.15828258003477      1.20540031864193
