13
Coordinates from ORCA-job run
  C   -0.72460769428419     -0.24223027240915     -0.04981582244567
  C   0.60216894282658      0.14278330565713      0.12939146600647
  N   -1.64240876085311      0.44135347612925     -0.91074495896167
  O   -2.74605400412626     -0.07274764273930     -1.07754064889303
  O   -1.29030142582863      1.51190125881254     -1.43109167748821
  C   -1.19339933467104     -1.42853502911413      0.56525165003464
  N   -1.46707582743747     -2.42272539230968      1.13417713069542
  N   1.11884068470269      1.31370569795389     -0.29901082528976
  H   2.10822806660859      1.33376100509990     -0.48584401848476
  H   0.51558674914849      1.85222069711108     -0.90529718798421
  N   1.46730098732120     -0.68677756056036      0.78430344898746
  H   1.06873058910522     -1.50750279305381      1.21454087479658
  H   2.18299102748794     -0.23520675057737      1.33168056902673
