13
Coordinates from ORCA-job run
  C   -0.75845785372746     -0.17921348884535     -0.01364160164853
  C   0.57208142010841      0.25092137484908      0.05532720265369
  N   -1.27322579096692     -0.99928479603720     -1.06103055769393
  O   -2.46740104771973     -1.28845531053697     -1.01752270366406
  O   -0.50059807689910     -1.38445350300298     -1.95560343747470
  C   -1.64906173988168      0.16811033004345      1.02812183046946
  N   -2.27983165562279      0.52751848264855      1.95628519726925
  N   1.49395082869783     -0.03472161485080     -0.87557320787956
  H   1.24949377138520     -0.70839908020139     -1.58636054939672
  H   2.44820019746675      0.25431642036348     -0.74784469103759
  N   0.94547622888387      1.08466881788598      1.06584930398626
  H   0.29970993040716      1.20058512767407      1.83142559594629
  H   1.91866378786847      1.10840724001008      1.32156761847013
