13
Coordinates from ORCA-job run
  C   -0.74839175331879     -0.15598064042799      0.04168309671542
  C   0.63133795031613      0.03620918278216      0.01308905699093
  N   -1.67137370826872      0.57344041744229     -0.77475527024217
  O   -2.86928118098074      0.39505754549415     -0.56629347190273
  O   -1.22548827778556      1.33217393578542     -1.65036477387902
  C   -1.30644791451679     -1.05217183317968      0.98545518899555
  N   -1.64924267640769     -1.82289854244919      1.80730248785407
  N   1.41551119001890     -0.53517831378635      0.97374111010549
  H   0.96237125369671     -1.17425939452140      1.60897539665895
  H   2.33783555738937     -0.81829243981064      0.68270332783443
  N   1.27941262845292      0.75969684747591     -0.92414652444976
  H   2.16092879755101      1.16681107355194     -0.65694699940329
  H   0.68282813385325      1.29539216164338     -1.53944262527789
