13
Coordinates from ORCA-job run
  C   -0.73374812899164     -0.21260922454602      0.05119047626515
  C   0.59553217428904      0.20491523632501      0.05552992223679
  N   -1.30429189070019     -1.04468808094614     -0.96497685639174
  O   -2.51580302789455     -1.24436176857117     -0.91364913216942
  O   -0.55836312120413     -1.52759473523082     -1.83179626233726
  C   -1.61397052745983      0.25647234234301      1.05625250469373
  N   -2.24360703366395      0.70848796952578      1.94296056537224
  N   1.00131395314900      1.16490514415786      0.93746508059590
  H   1.94949859553823      1.09047494314516      1.27025253078235
  H   0.33293612413323      1.45091724786280      1.63672582913349
  N   1.54889279835536     -0.28366079171814     -0.76528626039615
  H   1.21173879894936     -0.88362354159016     -1.50566706789178
  H   2.32887128550005      0.31936525924283     -0.97000132989330
