13
Coordinates from ORCA-job run
  C   -0.74283887551377     -0.18226370621731     -0.03489249656371
  C   0.62607634309827      0.05595192114285      0.06938369857016
  N   -1.62739359164575      0.59618722544650     -0.84836767057777
  O   -1.14529874309921      1.45690422845390     -1.60203876082351
  O   -2.82951219494108      0.35606394715168     -0.76098453184421
  C   -1.33575845742497     -1.19171249779514      0.76197043068336
  N   -1.70880364253637     -2.05696447789033      1.46847543601685
  N   1.35476788499807     -0.58708880192016      1.02836110378138
  H   0.87933286205548     -1.30273506287426      1.55667829255597
  H   2.30810549939183     -0.80797808608417      0.78794245684286
  N   1.31566055995759      0.89385522868818     -0.73321519732778
  H   0.74860940257667      1.47184534809948     -1.33815952387378
  H   2.15705295308322      1.29793473379877     -0.35515323743982
