13
Coordinates from ORCA-job run
  C   -0.75100332152014     -0.14088095669519      0.05244000859901
  C   0.62800909380678      0.05931890318863      0.04282442598997
  N   -1.67664680690274      0.65332661347309     -0.69719712745022
  O   -2.85345367220218      0.29909911297237     -0.69373229578824
  O   -1.25579784715013      1.65435126406281     -1.29897152243941
  C   -1.28877758404318     -1.23838345600716      0.76764780853957
  N   -1.61347711040285     -2.17717550258935      1.40025612961899
  N   1.45177252303116     -0.87307597406550      0.60511772534643
  H   1.00812999384068     -1.62415530323826      1.11150847501898
  H   2.29424361009030     -0.52164801828423      1.03179050366637
  N   1.23586441405782      1.14020522080299     -0.48962053492430
  H   2.18540879453479      1.02126097850367     -0.80300901335058
  H   0.63472791285969      1.74775711787615     -1.02905458282656
