13
Coordinates from ORCA-job run
  C   -0.73815763749134     -0.20305178245022     -0.01319694545744
  C   0.62500849188037      0.07731985869113      0.05819607994193
  N   -1.65375077059151      0.50405011974404     -0.85690245248526
  O   -1.20530906209213      1.33578539169050     -1.66213548763960
  O   -2.84742522546878      0.23571150865227     -0.74101998440557
  C   -1.29245059485943     -1.18460064364421      0.84383962308027
  N   -1.63186477843412     -2.02068198474961      1.60067344425323
  N   1.28062382939203      0.88864887967936     -0.79797041526473
  H   2.11672318500923      1.33404520447789     -0.45644350518157
  H   0.69062036596723      1.41652943494279     -1.42627370897570
  N   1.38290816353573     -0.49268451011595      1.04026713073627
  H   0.93423643919454     -1.19133590883344      1.61289481706636
  H   2.33983759395819     -0.69873556808453      0.80107140433181
