13
Coordinates from ORCA-job run
  C   -0.71650363745463     -0.30304680440622      0.02996169748454
  C   0.57594841263807      0.23077684830140      0.11698785975109
  N   -1.10946598945899     -1.27602456958714     -0.93569088492435
  O   -2.27846598830849     -1.65566142273183     -0.91339995041498
  O   -0.26167725898472     -1.69539703959378     -1.74356649813816
  C   -1.73040151634880      0.21074874898231      0.87127379835816
  N   -2.48170474370021      0.71998668116741      1.62214658536885
  N   0.84338314625024      1.14207092549814      1.09075638584906
  H   0.05854618973130      1.56176091001662      1.56302014796032
  H   1.65516418236365      1.72859680962916      0.99365541399407
  N   1.60156321933560     -0.18588842776820     -0.64141555260345
  H   2.46928333671883      0.32146533640423     -0.64343462818722
  H   1.37433064721814     -0.79838799591211     -1.41129437449794
