13
Coordinates from ORCA-job run
  C   -0.79020159681221     -0.03291418725263     -0.05846178720568
  C   0.58453603230365      0.18121870047636      0.05844212147941
  N   -1.35569539535063     -0.93717012093152     -1.00390335155597
  O   -2.57001697774712     -1.12975093526443     -1.00120293545068
  O   -0.56131478332613     -1.55644349416011     -1.73919273853144
  C   -1.67957140749954      0.54147923563830      0.88397438593306
  N   -2.34269136826290      1.07985133137800      1.70016506883828
  N   1.49646387708240     -0.28320465220870     -0.80729444592712
  H   1.28572217163755     -1.08181197832317     -1.40013613968984
  H   2.47276394654956     -0.09269594541476     -0.67411710714040
  N   1.03480332835667      1.04462507189310      1.01170478375358
  H   0.41691999897053      1.29492950118712      1.76773241886380
  H   2.00828217409818      0.97088747298244      1.26228972663299
