13
Coordinates from ORCA-job run
  C   -0.76571750734509     -0.02358959405052     -0.13004174786432
  C   0.59762420628809      0.13036168184948      0.14125994313357
  N   -1.28281958411655     -0.95199630102401     -1.08440124854179
  O   -2.50103016494350     -0.96707392022650     -1.25261325684779
  O   -0.49071350640767     -1.69349076721245     -1.69224058351541
  C   -1.70746055200091      0.73507764174817      0.59875819908225
  N   -2.39371565652343      1.43395472497777      1.25268503569916
  N   1.55699827191007     -0.58292552469622     -0.46445034591294
  H   2.52732091645813     -0.38179505712460     -0.29956762234162
  H   1.27559524824656     -1.30619707765209     -1.10829341021479
  N   1.00168545528723      1.09758496423432      1.01173555701759
  H   1.88586942473986      0.95166515044432      1.46588955652330
  H   0.29536344840720      1.55842407873233      1.56027992378280
