13
Coordinates from ORCA-job run
  C   -0.73484843718886     -0.21014621813548     -0.03886220223093
  C   0.61324526629426      0.10811878091619      0.11097193285892
  N   -1.65649899971217      0.56751687103638     -0.81105244748692
  O   -2.78981731354620      0.11523557078920     -0.95685830963107
  O   -1.27681710761675      1.65190558623357     -1.28109861904894
  C   -1.23424959006158     -1.40736449492538      0.52908739989769
  N   -1.53070976611909     -2.42123116212007      1.04981158391050
  N   1.46435059794740     -0.79639550232837      0.67869981514968
  H   1.04730688072168     -1.62618531615973      1.07222934984332
  H   2.22276157735494     -0.41232810832158      1.21996941145976
  N   1.16496599839776      1.28065842251968     -0.26637135570131
  H   2.14664431211832      1.27107276244930     -0.49098606784230
  H   0.56466658141029      1.88014280804629     -0.81554049117841
