13
Coordinates from ORCA-job run
  C   -0.75664385620307     -0.20318901818591      0.06331305609931
  C   0.55012458126395      0.29623067146264     -0.02247807049735
  N   -1.31855763332569     -1.11728226929822     -0.87448525048784
  O   -2.43100717830117     -1.57559765235786     -0.61822939946583
  O   -0.67120486336611     -1.40353256442066     -1.89723066726897
  C   -1.52398532022343      0.10186273632669      1.21015681950832
  N   -2.02644263411899      0.43587691528893      2.22131822821950
  N   1.35121628445211      0.10624303778329     -1.08785689855333
  H   1.01808567490429     -0.55985935607821     -1.77057916861295
  H   2.34336982092594      0.22837923740701     -0.97819123772938
  N   1.00998921726584      1.09401228506228      0.96788273619465
  H   1.95853653728799      1.42386266880466      0.95555391991968
  H   0.49751936943833      1.17299330820534      1.82982593267418
