13
Coordinates from ORCA-job run
  C   -0.76134772167874     -0.13413344763586      0.03875752484530
  C   0.62235664998742      0.02575858542184      0.02836066573364
  N   -1.67769417917591      0.71069917074185     -0.69044228117785
  O   -1.21489423317549      1.43719464464669     -1.58392846331046
  O   -2.86611249035190      0.65025624066626     -0.37720670198822
  C   -1.33326056127214     -1.20647370978498      0.76675393517863
  N   -1.63881973207228     -2.19433883582188      1.32875112326993
  N   1.27479271618070      1.05441049068781     -0.55870996531829
  H   0.69487498255714      1.60690794034178     -1.17649461409130
  H   2.22475178184430      0.90386638920574     -0.86407500434940
  N   1.41489081988254     -0.89916730491019      0.65992304830950
  H   2.26577833263398     -0.50622132167584      1.03854142221112
  H   0.99468363464039     -1.44775884188323      1.39076931068738
