13
Coordinates from ORCA-job run
  C   -0.73053577633373     -0.22853751643037      0.02014521759242
  C   0.59270549029259      0.20226126916645      0.08487724930289
  N   -1.28950935594186     -0.92133538716776     -1.10134581962854
  O   -2.49778530632901     -1.14455136951475     -1.07888041345195
  O   -0.53740410234941     -1.26793628505892     -2.02609063361945
  C   -1.61692340398699      0.08924287048596      1.07788073124223
  N   -2.25136323074647      0.40873282638599      2.01718694889961
  N   1.55467991239354     -0.15882845545282     -0.79105002715622
  H   2.32224465541866      0.48201986759763     -0.91230160030221
  H   1.22554073453416     -0.65350730909848     -1.60872592970523
  N   0.98506846654532      1.04021254526680      1.08907786877029
  H   1.93292856645847      0.92924282851136      1.41301273364040
  H   0.31235335004475      1.22198411530892      1.81821367441575
