13
Coordinates from ORCA-job run
  C   -0.73483829634727     -0.20290818775324     -0.07268537254658
  C   0.61880267476048      0.07551544790410      0.10521212602194
  N   -1.58718291433979      0.52335894316135     -0.96480611802977
  O   -1.08179786093989      1.37214129022942     -1.71674869210078
  O   -2.78573588996001      0.25269292857130     -0.94286948580001
  C   -1.34908605896229     -1.20245061155806      0.72032777308288
  N   -1.74241210845729     -2.05500152892198      1.43119777427644
  N   1.30398154032490     -0.51670015062364      1.12689163555871
  H   0.81585030941233     -1.22814271569018      1.64925353558037
  H   2.27553194145364     -0.71884634165620      0.95169688142409
  N   1.33455047958308      0.90635428815026     -0.68182061529379
  H   0.79099075443218      1.45041691802287     -1.33771028172623
  H   2.14134542903993      1.34356972016401     -0.26693916044726
