13
Coordinates from ORCA-job run
  C   -0.72512377874314     -0.21940416340119     -0.05448652782536
  C   0.62672687423339      0.07909585590666      0.08711332254501
  N   -1.61211300285725      0.49630873855463     -0.92102342154027
  O   -2.76625122658994      0.08373981359223     -1.00338234403673
  O   -1.18865054736942      1.49551379825996     -1.52426234642880
  C   -1.31020862162040     -1.23726474955143      0.73624759773354
  N   -1.71503240597936     -2.06579486745303      1.47028353862218
  N   1.43563121513669     -0.76294249670406      0.79083575488250
  H   0.98639446536759     -1.52665758406324      1.27355206900919
  H   2.19590420242786     -0.33266891655364      1.29374422573344
  N   1.22308487949749      1.17168061117167     -0.43733878815478
  H   0.64188926283338      1.71413417937658     -1.06181305187829
  H   2.20574868366312      1.10225978086488     -0.64947002866162
