13
Coordinates from ORCA-job run
  C   -0.76098265996937     -0.12498645974797      0.10749600565217
  C   0.62131566693128     -0.03552572183212     -0.09869880049988
  N   -1.70986045778045      0.76634204854386     -0.47376507422292
  O   -2.89308928713184      0.60177146129254     -0.18282433848953
  O   -1.30461460398009      1.65659269628728     -1.24203692834893
  C   -1.26065086787861     -1.09174750881031      1.01089801359702
  N   -1.54489322627062     -1.93493626682455      1.78278217371429
  N   1.43446537340470     -0.95699514242909      0.48720699972076
  H   1.04034829695513     -1.51981919096473      1.22476053814043
  H   2.40843394879596     -0.72835173137100      0.59540485313528
  N   1.19023470172507      0.85016761916889     -0.92921710764463
  H   2.18874771144201      0.95049300867739     -0.96655443786764
  H   0.59154540375683      1.56499518800980     -1.31645189688641
