13
Coordinates from ORCA-job run
  C   -0.73015754861630     -0.22707237002966     -0.03887367051878
  C   0.62041867543493      0.09645138730753      0.07413774614840
  N   -1.66317810964180      0.51122880075350     -0.83549520753865
  O   -1.23870748884090      1.42422939295804     -1.56166939709999
  O   -2.84629368470108      0.18754426250189     -0.76064817064560
  C   -1.25296420790523     -1.30158493998496      0.72127622321675
  N   -1.56501817684887     -2.21494743248528      1.39598064686095
  N   1.38872705607837     -0.52308133851576      1.01751507676002
  H   2.35482658231927     -0.67398454633938      0.77397295207356
  H   0.96037006937982     -1.28245741680550      1.52476368638510
  N   1.25472041223050      0.99814639877703     -0.70469196272451
  H   2.06577023084397      1.44811655725936     -0.31219805392111
  H   0.65048619026733      1.55541124460322     -1.29306986899615
