13
Coordinates from ORCA-job run
  C   -0.68875474587212     -0.30367162580323     -0.14121658169715
  C   0.59024589865907      0.16354730647832      0.15353525285647
  N   -1.64312727240128      0.42211166061493     -0.92347153663676
  O   -2.77026842997621     -0.05778804704253     -1.02216600027732
  O   -1.29049352877888      1.48241064954776     -1.46430584540647
  C   -1.11705766108272     -1.54146646615242      0.39754405353655
  N   -1.34668650309865     -2.58382055508413      0.89510943414109
  N   1.35761526178488     -0.49815008029453      1.06956827624946
  H   0.99887285015431     -1.37830371162104      1.40775166310639
  H   2.35181719016615     -0.48841753412253      0.90533366516912
  N   1.15615742220284      1.24807531412143     -0.41623069059670
  H   1.86664407305167      1.72168502614430      0.11742083036524
  H   0.53503544519095      1.81478806321365     -0.97687252080993
