13
Coordinates from ORCA-job run
  C   -0.74495332196100     -0.15672838180632      0.08062683356016
  C   0.63081449711578      0.03356480663061     -0.02996402355008
  N   -1.71815501939087      0.66732462269549     -0.57114110848401
  O   -2.89891540448913      0.46862247432066     -0.29461428437651
  O   -1.33027910825951      1.52377787124456     -1.38164158705601
  C   -1.24040828269215     -1.16187492315465      0.94635805791234
  N   -1.52802229960365     -2.02899446382975      1.68948191790526
  N   1.47821128995646     -0.65040841342281      0.79362892024779
  H   2.37193699818660     -0.90135135592298      0.40113557828653
  H   1.06661745929753     -1.35702473267438      1.38420853469320
  N   1.21591934263521      0.86120645775554     -0.92174229838277
  H   2.11801061483736      1.23374603776154     -0.67297843792848
  H   0.58122323436738      1.46814000040249     -1.42235810282742
