13
Coordinates from ORCA-job run
  C   -0.74751909920880     -0.16571140757343      0.04175139583218
  C   0.62443206243628      0.07614466509906      0.04819867340275
  N   -1.69418342185909      0.63406375276335     -0.67410890362601
  O   -1.30327186473228      1.67613489185186     -1.22433178739879
  O   -2.86126892075481      0.24657362260379     -0.68832417373235
  C   -1.25194831086399     -1.31409203504943      0.69968507692365
  N   -1.54593561636328     -2.29374482810975      1.28370405914995
  N   1.47336792199262     -0.85297415400948      0.57519834605503
  H   2.30929630601887     -0.49978323384907      1.01196992128002
  H   1.05898478730179     -1.65086229323161      1.03057078246535
  N   1.20166678586634      1.20067527202629     -0.42635176329045
  H   0.58193566940653      1.81816447293706     -0.93336426708750
  H   2.15444370075981      1.12641127454139     -0.74459735997383
