13
Coordinates from ORCA-job run
  C   -0.71720122169195     -0.25521672738992     -0.08361525978812
  C   0.59432424590647      0.15114258645892      0.15379538348091
  N   -1.61019893740005      0.41796098401017     -0.97796997112339
  O   -2.70021354851374     -0.10984137501913     -1.18692226955493
  O   -1.25144615285725      1.49266604778404     -1.48528905390558
  C   -1.19581656558285     -1.44555125635297      0.51575330252278
  N   -1.47764302775454     -2.44441007270473      1.07240983492989
  N   1.11073087685054      1.33030296138222     -0.25185008676281
  H   0.52604854074952      1.85958615068091     -0.88399713775884
  H   2.10692371458625      1.36724202130501     -0.39461622187683
  N   1.44228890710989     -0.66570280594065      0.84532597126695
  H   2.13127484730244     -0.20603218417244      1.41935670291659
  H   1.03992832129528     -1.49414633004142      1.25661880565338
