13
Coordinates from ORCA-job run
  C   -0.74302014318262     -0.17856507682096      0.04102164543384
  C   0.62365491127279      0.09247118901442      0.05145846234616
  N   -1.68728368222124      0.51617056435732     -0.78116452366595
  O   -2.84867683143709      0.11365350812843     -0.76633606054162
  O   -1.29803868796113      1.48460026827676     -1.45321001979182
  C   -1.24652497342751     -1.24609365896267      0.82321418083594
  N   -1.54320675739114     -2.15104254970024      1.51604451473543
  N   1.47784949234667     -0.75301610686553      0.69958565926593
  H   2.28764198321198     -0.32647381283755      1.12137943215863
  H   1.05815596205241     -1.48768290539428      1.24913967858677
  N   1.19053382043764      1.16510606074713     -0.54053183632906
  H   0.57552968871106      1.69700991195705     -1.14096447692517
  H   2.15338521758818      1.07486260810012     -0.82163665610908
