13
Coordinates from ORCA-job run
  C   -0.71044266440900     -0.25990311468186     -0.11830653517086
  C   0.60859199959397      0.11673295191739      0.12504907211977
  N   -1.62964956871630      0.51472378905070     -0.89673438248048
  O   -2.79644081753870      0.13082362406331     -0.93553340873035
  O   -1.20936499750631      1.51699205574988     -1.49642145037256
  C   -1.22600176878129     -1.42455305173296      0.50081013937583
  N   -1.53416099829120     -2.41027011627181      1.06674746756214
  N   1.34682902745356     -0.55905614027296      1.05461525063608
  H   0.92907017892407     -1.38704836582084      1.45109817008115
  H   2.33213870589659     -0.64227696596691      0.85965254229927
  N   1.24246801163226      1.12450833275575     -0.51097544817514
  H   1.99852975588176      1.57076352427379     -0.01739488736954
  H   0.64843313586059      1.70856347693651     -1.08360652977530
