18

C	0.0	0.0	0.0
C	-0.534079	-0.060406	-1.420356
F	1.371772	0.0	0.0
H	-1.623973	-0.186286	-1.350142
N	-0.52229	1.096901	0.689666
H	-0.203981	1.974859	0.313102
H	-0.353273	1.017181	1.681442
N	-0.393402	-1.237246	0.808351
O	-0.909527	-2.179165	0.228937
O	-0.1107	-1.181976	2.002974
N	0.000998	-1.227796	-2.209819
O	-0.555089	-1.419513	-3.289158
O	0.950778	-1.882901	-1.787005
C	-0.154698	1.195277	-2.194383
H	0.923941	1.368114	-2.147431
H	-0.450959	1.078229	-3.236141
H	-0.689183	2.056083	-1.795446
Br	-3.822849	0.0	0.0
