16
Coordinates from ORCA-job run
  C   0.68791022726139     -0.21926622838910     -0.08627351811555
  C   -0.74855196191068      0.29574026632338     -0.35063993695452
  F   0.68191509341417     -1.59723752295130     -0.26741516895300
  H   -0.73813356191120      1.38584513830291     -0.37566962394344
  C   1.23896343650363      0.08314218102648      1.29106142974146
  H   0.65301072944660     -0.45150918050777      2.03947445988800
  H   2.27387669653809     -0.25580012153374      1.34841671333347
  H   1.19571569496355      1.15249490366615      1.50250603388609
  C   1.53137723550655      0.36467943749863     -1.14436767141090
  N   2.17994500036052      0.86306294603589     -1.98697254202590
  N   -1.56742940878871     -0.06359131905863      0.86491395540518
  O   -1.69503208047589      0.80792019997524      1.72253395426781
  O   -1.99162615556102     -1.21191885326454      0.92164111937559
  N   -1.38303674830335     -0.23085825311294     -1.50860845328644
  H   -1.14016980640112      0.29079573524291     -2.33844606120429
  H   -1.17973439064252     -1.21349932925358     -1.63015469000356
