16
Coordinates from ORCA-job run
  C   0.68587450942666     -0.17762150814645     -0.16636613397866
  C   -0.77964694253709      0.31692768623672     -0.24776769320574
  F   0.70341411253361     -1.51135986219179     -0.55642338275100
  H   -0.79969646820901      1.39781980037231     -0.10466483642345
  C   1.32957692624000     -0.06667572595409      1.19953380296024
  H   0.81589543584450     -0.73103199935263      1.89516109593902
  H   1.27300292644358      0.95567298522633      1.57596847809496
  H   2.37477967071126     -0.37021763010569      1.13156621312006
  C   1.43134551248742      0.59215412804364     -1.17812063672372
  N   1.99888693959650      1.23939719658195     -1.97690252511567
  N   -1.49663372545097     -0.25434266142040      0.95056076007613
  O   -1.58272019862387      0.46995452465107      1.94021321375163
  O   -1.88721140716384     -1.41212944744292      0.85628066679297
  N   -1.48440439911497     -0.05019536640211     -1.42655959055494
  H   -1.26817567175954     -0.99614003881224     -1.70952773410620
  H   -1.31328722042425      0.59778791871630     -2.18195169787564
