16
Coordinates from ORCA-job run
  C   0.77098147167392      0.24232459133015     -0.00344702574924
  C   -0.63588775454992     -0.12476939176483     -0.49713553883223
  F   1.30255271198918      1.16215861074606     -0.89442462293964
  H   -0.54287789057524     -0.66847306161080     -1.43836874202506
  C   1.66750485378333     -0.97859885100596      0.03656473538571
  H   1.74669631434791     -1.39111148174160     -0.97129488371459
  H   1.25182739339920     -1.72887858945913      0.70768109821775
  H   2.66162161046697     -0.68770793912883      0.37821732420579
  C   0.70016416862392      0.87550650450407      1.32531744361727
  N   0.66516113786966      1.32665776948280      2.40890728887106
  N   -1.33940179183063      1.17449761710343     -0.88417689990831
  O   -1.38579984683768      1.45402787537289     -2.07728249503522
  O   -1.80339077919797      1.83345097863880      0.04357818632104
  N   -1.32485046104615     -0.88349414813026      0.48178495471470
  H   -1.56779445859818     -0.30548366255350      1.27890093418719
  H   -2.16550667951832     -1.30110682178331      0.10517824268377
