16
Coordinates from ORCA-job run
  C   0.75795112472772     -0.14779581012876     -0.12680069353729
  C   -0.68666101225782      0.31324250847321     -0.38639588083898
  F   0.82622813320206     -1.49913744701575     -0.45103722326160
  H   -0.75095282108397      1.39697945271138     -0.27552580049953
  C   1.24369595734618      0.02281247985706      1.29797710952257
  H   0.66853191592274     -0.62200467404893      1.96245421375514
  H   2.29368934277793     -0.26640090781265      1.34892775913702
  H   1.13793558430054      1.05769120616412      1.62564729171498
  C   1.62118757412817      0.58912534304878     -1.06544652181030
  N   2.33509128392533      1.20542433987573     -1.76433987099843
  N   -1.54288159959417     -0.22683999679004      0.76568049572076
  O   -1.68445734829985      0.51046595004067      1.73876227616241
  O   -1.99969604034550     -1.35865946480018      0.63659144687932
  N   -1.10466384270830     -0.10848728914328     -1.66545584088605
  H   -1.10018838079689     -1.11752636072926     -1.73336404774993
  H   -2.01680987124416      0.25211067029791     -1.90867471331010
