13

C	0.0	0.0	0.0
C	-0.499604	0.27985	-1.421762
Cl	1.785578	0.0	0.0
H	-1.599416	0.28806	-1.370325
H	-0.173837	-0.559771	-2.041807
C	-0.3571	1.116999	0.906548
N	-0.60097	1.98686	1.658195
N	-0.511533	-1.278118	0.401742
H	-1.53754	-1.189722	0.361
H	-0.254248	-1.451201	1.367641
C	-0.005807	1.534128	-1.972832
N	0.379075	2.539972	-2.439987
Cl	-3.500626	0.0	0.0
