13

C	0.0	0.0	0.0
C	-0.468434	-0.196613	-1.459241
Cl	1.793714	0.0	0.0
H	-1.565515	-0.118949	-1.428237
H	-0.055457	0.581141	-2.106789
C	-0.38358	1.358084	0.42727
N	-0.605753	2.454492	0.782797
N	-0.494051	-0.952998	0.944686
H	-0.278677	-1.887648	0.609892
H	-1.515965	-0.837977	0.949285
C	-0.078631	-1.511191	-1.953378
N	0.223544	-2.578896	-2.337432
Cl	-3.471859	0.0	0.0
