13

C	0.0	0.0	0.0
C	-0.27202	-0.348173	-1.512745
Cl	1.796153	0.0	0.0
H	0.542974	0.08464	-2.097495
H	-0.172475	-1.436389	-1.596493
C	-0.390801	1.392755	0.269921
N	-0.601087	2.5252	0.495847
N	-0.518469	-0.866876	0.998549
H	-1.541109	-0.722244	0.975888
H	-0.330999	-1.827343	0.726875
C	-1.477078	0.070537	-2.234563
N	-2.178364	0.362885	-3.132046
Cl	-3.345968	0.0	0.0
