13

C	0.0	0.0	0.0
C	-0.475531	-0.329349	-1.432109
Cl	1.794007	0.0	0.0
H	-0.079198	0.394946	-2.148401
H	-1.573671	-0.260231	-1.395164
C	-0.382479	1.392357	0.300482
N	-0.623238	2.511201	0.561159
N	-0.492121	-0.861109	1.031662
H	-1.513502	-0.74517	1.028649
H	-0.278704	-1.822526	0.782044
C	-0.073547	-1.675597	-1.819038
N	0.23639	-2.765444	-2.12676
Cl	-3.473589	0.0	0.0
