13

C	0.0	0.0	0.0
C	-0.289237	-0.004205	-1.547161
Cl	1.846191	0.0	0.0
H	0.578824	0.425396	-2.051397
H	-0.3545	-1.054208	-1.845662
C	-0.361911	1.297045	0.584368
N	-0.514218	2.371372	1.033978
N	-0.492257	-1.067086	0.791822
H	-0.311365	-1.942075	0.312401
H	-1.514566	-0.923569	0.827421
C	-1.418916	0.733585	-2.113314
N	-2.070383	1.389495	-2.838631
Cl	-3.319607	0.0	0.0
