13

C	0.0	0.0	0.0
C	-0.526778	-0.289609	-1.406421
Cl	1.832514	0.0	0.0
H	-1.625042	-0.197949	-1.302946
H	-0.284336	-1.32604	-1.659541
C	-0.372428	1.353557	0.430374
N	-0.560029	2.463019	0.765626
N	-0.513594	-0.9649	0.886555
H	-0.078736	-1.869218	0.788161
H	-0.590902	-0.667079	1.844717
C	0.002345	0.602414	-2.429313
N	0.420521	1.311172	-3.266634
Cl	-3.634721	0.0	0.0
