12
Coordinates from ORCA-job run
  C   1.21415452652060     -0.09807176997090     -0.39311242354110
  C   -0.23176308127777      0.32063532420796     -0.18285659038634
  Br  2.35961220526688      1.43856849567879     -0.63928013940625
  H   -0.59418241653540      0.89505513576196     -1.03610593693253
  H   1.30084879654672     -0.71508955097184     -1.28549002197026
  H   1.57800568181473     -0.64897132967828      0.47613976266426
  N   -0.43944439837625      1.01561495130506      1.02503848891796
  H   -1.38829868976026      1.35194586801895      1.11073028724676
  H   -0.21516685121287      0.44295137959918      1.82791838768587
  N   -1.01870504580453     -1.00919614256037     -0.27664172552173
  O   -1.24297115319724     -1.43457364098161     -1.40579629687125
  O   -1.32308957398461     -1.55686872040891      0.77945620811461
