12
Coordinates from ORCA-job run
  C   1.24696326537816     -0.05286920038944     -0.31446879846984
  C   -0.24575920561983      0.15620890091602     -0.18798919484775
  Br  2.13193719701657      1.67168173423570     -0.47319108646649
  H   -0.63528979891785      0.69225950284082     -1.06423539691068
  H   1.49359690693313     -0.62237034279384     -1.20605703898340
  H   1.63614454960142     -0.54846824412640      0.57225114603237
  N   -0.60337055351846      0.71510062540492      1.08854461868023
  H   -0.04607145735733      1.54045887032707      1.26811456994236
  H   -1.58167473625922      0.97445777723534      1.09151245045136
  N   -0.94792036609246     -1.18627581220607     -0.24761535097169
  O   -2.17213101903398     -1.13034342234634     -0.19472484341222
  O   -0.27442478213014     -2.20884038909780     -0.33214107504425
