12
Coordinates from ORCA-job run
  C   1.20509142643224      0.14797579788174     -0.13902565756549
  C   -0.30682603920117      0.22547281331638     -0.25125208894350
  Br  2.00274516788887     -0.80182285192465     -1.63012506433922
  H   -0.61693662362912      0.64324652605853     -1.20842275391260
  H   1.48292720766236     -0.37795579307375      0.77411303327420
  H   1.61784968990691      1.15644465186597     -0.13591543737557
  N   -0.94411658855191      0.93060418350051      0.82589089317527
  H   -0.92438212112505      1.92899889059905      0.67527714546830
  H   -0.52716914491023      0.70246557892349      1.71906588529384
  N   -0.85891174951760     -1.17731918017218     -0.22825542666010
  O   -0.59866992056737     -1.82789730910536      0.78074681986957
  O   -1.53160130438793     -1.54921330786973     -1.18209734828471
