12
Coordinates from ORCA-job run
  C   1.15227626002853     -0.07295331466256     -0.37126657009291
  C   -0.33334907004373      0.23148526666252     -0.19814354093787
  Br  2.16291242742427      1.57962872143188     -0.40921805235631
  H   -0.70362640342800      0.82048574253014     -1.03655902025075
  H   1.34147278028871     -0.59280157487683     -1.31118228138136
  H   1.51678619508862     -0.66736032170618      0.46654660982869
  N   -0.75247597644382      0.82086091686977      1.03422921712560
  H   -0.28278206634764      0.39740568540483      1.82393882775255
  H   -0.58026618807027      1.81605446371263      1.02957859888126
  N   -1.01889979529442     -1.10955387723298     -0.31585130343568
  O   -0.88288691726346     -1.86347989410391      0.64422308263701
  O   -1.61816124593877     -1.35777181402931     -1.35729556777023
