18

C	0.0	0.0	0.0
C	-0.630101	-0.05113	-1.387509
F	1.359069	0.0	0.0
H	-1.711002	0.091157	-1.237138
N	-0.316658	1.367439	0.636757
O	0.230077	2.32806	0.093969
O	-1.018758	1.410003	1.638343
C	-0.524813	-1.103322	0.871664
H	-1.615699	-1.051115	0.900085
H	-0.207473	-2.051672	0.441587
H	-0.11967	-0.986573	1.877582
N	-0.345517	-1.307618	-2.004532
H	0.586311	-1.289227	-2.399955
H	-1.027103	-1.499122	-2.725238
N	-0.144002	1.100354	-2.259874
O	-0.911265	2.036439	-2.459652
O	0.983329	0.980812	-2.744761
Cl	-3.800383	0.0	0.0
