18

C	0.0	0.0	0.0
C	-0.593198	-0.076932	-1.394592
F	1.36479	0.0	0.0
H	-1.683669	0.003248	-1.286414
N	-0.362817	1.34605	0.636395
O	0.151413	1.557159	1.73162
O	-1.113864	2.101644	0.033817
C	-0.529389	-1.089341	0.888581
H	-1.620396	-1.020414	0.915678
H	-0.231172	-2.050927	0.47397
H	-0.10763	-0.954183	1.88483
N	-0.2313	-1.318172	-2.011571
H	-0.801343	-1.466255	-2.832989
H	0.748775	-1.321602	-2.266083
N	-0.172903	1.081641	-2.288994
O	0.791876	1.778534	-1.980982
O	-0.80316	1.171854	-3.341138
Cl	-3.779128	0.0	0.0
