18

C	0.0	0.0	0.0
C	-0.608913	0.314716	-1.395531
F	1.357901	0.0	0.0
H	-1.316185	1.12994	-1.272479
N	-0.30542	1.180497	0.9529
O	-0.489631	2.286408	0.456128
O	-0.213644	0.946096	2.154069
C	-0.495476	-1.275292	0.612046
H	-0.089378	-1.361741	1.618184
H	-1.585337	-1.26307	0.643314
H	-0.137038	-2.11247	0.010421
N	-1.267041	-0.735169	-2.097073
H	-0.781875	-1.616974	-2.01538
H	-2.204823	-0.798735	-1.699159
N	0.512287	0.836558	-2.262881
O	1.24569	-0.007199	-2.773236
O	0.618794	2.052801	-2.404249
Cl	-3.65794	0.0	0.0
