18

C	0.0	0.0	0.0
C	-0.640373	-0.00532	-1.410212
F	1.360022	0.0	0.0
H	-1.523985	0.628203	-1.367867
N	-0.304286	1.365414	0.63958
O	-0.285903	2.330899	-0.119042
O	-0.419044	1.417049	1.858567
C	-0.500796	-1.095399	0.892224
H	-1.589752	-1.041154	0.947549
H	-0.062971	-0.969179	1.880182
H	-0.189449	-2.056248	0.47977
N	-1.047004	-1.270832	-1.937245
H	-1.960655	-1.47406	-1.548546
H	-0.38691	-2.00429	-1.725694
N	0.29452	0.602112	-2.424708
O	-0.041372	1.648716	-2.970798
O	1.306394	-0.046144	-2.686984
Cl	-3.635248	0.0	0.0
