9
Coordinates from ORCA-job run
  C   -0.23678407339093      0.44197032548738     -0.23099711345091
  C   -1.34592592259118     -0.02376042074080      0.35465172348969
  H   -0.29868092876719      1.35792299953542     -0.81730371311637
  H   -1.33374362772749     -0.93237590233228      0.94942247887291
  H   -2.29549866289444      0.49047404715532      0.25724989639769
  C   1.11066788073352     -0.20922174439778     -0.14272760493022
  H   1.84534552610042      0.46850004594015      0.30178079059167
  H   1.07166363031378     -1.11639892386627      0.46375836532498
  H   1.48295617822353     -0.47711042678113     -1.13583482317943
