9
Coordinates from ORCA-job run
  C   -0.19262219757721      0.50770187875582      0.10029736705683
  C   -1.38935933651668     -0.08545241638776      0.02264956484285
  H   -0.15017160455058      1.57795053112335      0.29877204527262
  H   -1.48256115306934     -1.14962846328514     -0.17332586075296
  H   -2.30838581300861      0.47489746916093      0.15305430796764
  C   1.11998168020083     -0.19671251580992     -0.06799393908920
  H   1.69006925420669      0.22910781258289     -0.89883191168903
  H   0.97417921959025     -1.26107265042120     -0.26353443288502
  H   1.73786995072465     -0.09479164571899      0.82891285927628
