14

C	0.0	0.0	0.0
C	-0.482151	-0.128659	-1.471851
Br	1.940254	0.0	0.0
H	0.105402	0.598263	-2.037212
H	-0.166404	-1.128526	-1.789783
N	-0.421553	1.35411	0.570976
O	-0.312379	2.305057	-0.190782
O	-0.797603	1.381583	1.734111
C	-0.474231	-1.067733	0.861512
N	-0.789813	-2.010134	1.490516
N	-1.866233	0.074186	-1.725028
H	-2.520844	-0.49532	-1.192377
H	-2.155568	1.031106	-1.57588
Br	-4.684771	0.0	0.0
