15

C	0.0	0.0	0.0
C	-0.417063	0.074582	-1.491175
Br	2.00008	0.0	0.0
H	-1.521126	0.220832	-1.345355
C	-0.678719	1.088281	0.718063
N	-0.659313	2.075713	1.383058
N	-0.392041	-1.309305	0.504
H	0.425803	-1.901712	0.56991
H	-0.84653	-1.208305	1.400459
N	-0.305876	-1.230391	-2.228223
O	0.604052	-2.009792	-1.968562
O	-1.155749	-1.399868	-3.099987
C	0.215815	1.096697	-2.296624
N	0.707588	1.908708	-2.992601
H	-2.369753	0.0	0.0
