15

C	0.0	0.0	0.0
C	-0.364005	0.04011	-1.509349
Cl	1.798494	0.0	0.0
H	0.37642	-0.609984	-1.994879
H	-0.140939	1.065555	-1.849136
C	-0.403734	1.230761	0.685424
N	-0.606344	2.265806	1.203841
C	-0.532007	-1.237342	0.695398
H	-1.626014	-1.15858	0.713432
H	-0.138312	-1.299459	1.713215
H	-0.236351	-2.12314	0.130486
N	-1.694975	-0.449409	-1.794173
H	-2.023023	-0.007137	-2.647695
H	-2.41346	-0.20243	-1.053944
H	-3.52464	0.0	0.0
