15

C	0.0	0.0	0.0
C	-0.6149	0.056112	-1.394604
Cl	1.804606	0.0	0.0
H	-0.072181	0.790045	-1.997427
H	-1.649776	0.392366	-1.194927
C	-0.331214	1.260617	0.689491
N	-0.498947	2.291652	1.227332
C	-0.52533	-1.181069	0.791484
H	-0.143964	-1.161254	1.814731
H	-1.623053	-1.081323	0.779462
H	-0.214114	-2.100825	0.295158
N	-0.606694	-1.26122	-2.031667
H	-1.515329	-1.672487	-1.828601
H	-0.564347	-1.136073	-3.035363
H	-3.307258	0.0	0.0
