14

C	-0.585362	-0.005241	-1.405121
C	0.0	0.0	0.0
Br	0.210608	-1.394157	-2.473099
H	1.089733	0.0	0.0
H	-1.659924	-0.170705	-1.394471
N	-0.371891	1.318611	-2.090008
O	-1.132421	1.551705	-3.026024
O	0.524038	2.042056	-1.674008
N	-0.480887	-1.273446	0.675643
O	-1.672769	-1.551187	0.535685
O	0.337359	-1.908348	1.323749
C	-0.548465	1.108625	0.772546
N	-0.997978	2.006965	1.382414
Br	3.359357	0.0	0.0
