14

C	-0.375267	0.023208	-1.465869
C	0.0	0.0	0.0
Br	-0.048394	1.758459	-2.2299
H	1.095973	0.0	0.0
H	0.218408	-0.699642	-2.019495
N	-1.820117	-0.334441	-1.709244
O	-2.084891	-0.786158	-2.817785
O	-2.613551	-0.139767	-0.794246
N	-0.371919	-1.334823	0.58329
O	-0.447791	-2.269643	-0.211143
O	-0.501529	-1.407092	1.796795
C	-0.535246	1.075006	0.813755
N	-0.933574	1.965918	1.467046
Br	3.260521	0.0	0.0
