14

C	-0.386906	0.03515	-1.46204
C	0.0	0.0	0.0
Br	-0.031398	1.767823	-2.222302
H	1.095961	0.0	0.0
H	0.187992	-0.696421	-2.025014
N	-1.840631	-0.295991	-1.695337
O	-2.127482	-0.700203	-2.816051
O	-2.618604	-0.131775	-0.760577
N	-0.377271	-1.336254	0.579051
O	-0.467556	-2.265849	-0.22222
O	-0.497378	-1.414771	1.794513
C	-0.526523	1.075322	0.820791
N	-0.925031	1.967106	1.473913
Br	3.26159	0.0	0.0
