14

C	-0.503178	0.001577	-1.445449
C	0.0	0.0	0.0
Br	0.071564	-1.587625	-2.352016
H	1.094807	0.0	0.0
H	-1.591739	0.041063	-1.48943
N	-0.022215	1.252366	-2.1732
O	0.406865	1.157555	-3.310975
O	-0.206298	2.292812	-1.549373
N	-0.509409	-1.274677	0.648339
O	-1.695289	-1.540012	0.456258
O	0.274237	-1.912028	1.335304
C	-0.5467	1.076572	0.816862
N	-1.008743	1.877335	1.542512
Br	3.331494	0.0	0.0
