14

C	-0.346358	0.181355	-1.467309
C	0.0	0.0	0.0
Br	-2.200981	0.501517	-1.918197
H	1.101067	0.0	0.0
H	0.213533	1.044564	-1.825393
N	0.142974	-0.978475	-2.29768
O	0.473363	-0.708127	-3.44558
O	0.13598	-2.088281	-1.778792
N	-0.544325	-1.251008	0.642382
O	0.24683	-1.935005	1.272976
O	-1.749115	-1.451587	0.519564
C	-0.475343	1.138214	0.770669
N	-0.84274	2.066122	1.391029
Br	3.296779	0.0	0.0
