14

C	-0.588662	0.070232	-1.403809
C	0.0	0.0	0.0
Br	0.181165	-1.269363	-2.549778
H	1.089915	0.0	0.0
H	-1.665868	-0.081354	-1.393098
N	-0.366197	1.426532	-2.018345
O	-1.137942	1.724669	-2.925995
O	0.549624	2.109725	-1.576839
N	-0.490501	-1.311327	0.584572
O	-1.711247	-1.47175	0.599648
O	0.34723	-2.104852	0.986602
C	-0.55918	1.06681	0.821022
N	-1.057848	1.917676	1.460014
Br	3.367677	0.0	0.0
