14

C	0.0	0.0	0.0
C	-0.418966	0.007814	-1.505052
Br	1.952242	0.0	0.0
H	0.484668	-0.185808	-2.096893
H	-0.32356	-0.907367	0.497057
C	-0.445884	1.161375	0.759258
N	-0.56945	2.144152	1.393676
C	-1.002498	1.343273	-1.96422
H	-1.192962	1.308804	-3.041469
H	-1.92727	1.480969	-1.409479
H	-0.296961	2.15448	-1.762395
C	-1.325267	-1.102517	-1.815727
N	-1.867672	-2.036304	-2.282006
F	-2.345658	0.0	0.0
