14

C	0.0	0.0	0.0
C	-0.423684	-0.164577	-1.4962
Br	1.949416	0.0	0.0
H	0.478542	-0.422673	-2.064712
H	-0.32497	-0.846343	0.594059
C	-0.45295	1.235887	0.62503
N	-0.581868	2.283819	1.144008
C	-1.013543	1.108126	-2.102151
H	-0.302291	1.934069	-2.008356
H	-1.928501	1.31373	-1.5512
H	-1.222944	0.948022	-3.163631
C	-1.322081	-1.31056	-1.666912
N	-1.851414	-2.302956	-2.010883
F	-2.351576	0.0	0.0
