14

C	0.0	0.0	0.0
C	-0.553855	0.202469	-1.409714
Br	1.949251	0.0	0.0
H	-1.669654	0.266397	-1.086995
H	-0.351934	-0.957978	0.374994
C	-0.414121	1.055729	0.923335
N	-0.584592	1.915645	1.705509
C	-0.329565	-1.021634	-2.288785
H	-0.876047	-1.862924	-1.854336
H	0.729147	-1.285196	-2.378734
H	-0.725681	-0.846316	-3.292075
C	-0.057013	1.416011	-2.027199
N	0.339244	2.380215	-2.573597
F	-2.62652	0.0	0.0
