14

C	0.0	0.0	0.0
C	-0.431163	-0.007809	-1.500697
Br	1.952234	0.0	0.0
H	0.463268	-0.227108	-2.09651
H	-0.317991	-0.907761	0.499925
C	-0.451938	1.154036	0.766264
N	-0.577459	2.127952	1.414293
C	-1.000648	1.328135	-1.973306
H	-1.215617	1.277142	-3.04436
H	-1.911459	1.494969	-1.403845
H	-0.27749	2.131039	-1.802502
C	-1.355798	-1.109872	-1.787712
N	-1.904067	-2.049125	-2.235749
F	-2.354864	0.0	0.0
