15

C	-0.279526	-0.083308	-1.505204
C	0.0	0.0	0.0
F	-0.183253	1.24515	-1.985524
H	1.087496	0.0	0.0
H	-0.430923	-0.870855	0.491913
N	0.764211	-0.819771	-2.158951
H	1.643035	-0.596392	-1.663662
H	0.567603	-1.801833	-2.015481
N	-1.56976	-0.618072	-1.819927
H	-1.771908	-0.388306	-2.785951
H	-2.245542	-0.147081	-1.224416
N	-0.650586	1.188228	0.579866
O	-1.884822	1.142228	0.708323
O	0.024647	2.171044	0.871365
F	2.637758	0.0	0.0
