15

C	-0.226782	0.13303	-1.511977
C	0.0	0.0	0.0
F	-0.197674	-1.193068	-2.013642
H	1.087479	0.0	0.0
H	-0.422838	0.871742	0.500224
N	-1.462697	0.756442	-1.860478
H	-2.205675	0.271936	-1.369043
H	-1.596322	0.64756	-2.859343
N	0.876033	0.813777	-2.118322
H	1.727751	0.540925	-1.594628
H	0.736322	1.806577	-1.976618
N	-0.687458	-1.183969	0.538717
O	-0.032954	-2.158038	0.895341
O	-1.927749	-1.132749	0.582239
F	2.66585	0.0	0.0
