15

C	-0.236028	-0.00293	-1.506134
C	0.0	0.0	0.0
F	0.096697	1.285765	-1.972055
H	1.090938	0.0	0.0
H	-0.336814	-0.936684	0.447648
N	0.672915	-0.982043	-1.985788
H	0.735643	-0.899449	-2.992386
H	1.58375	-0.795803	-1.54198
N	-1.555748	-0.242965	-2.045464
H	-2.174924	0.448442	-1.638245
H	-1.845804	-1.162667	-1.737021
N	-0.636255	1.081001	0.757151
O	-1.451189	1.826185	0.198376
O	-0.353613	1.159771	1.953389
F	2.618629	0.0	0.0
