15

C	-0.151062	0.169225	-1.51851
C	0.0	0.0	0.0
F	-1.427136	-0.29461	-1.912824
H	1.08684	0.0	0.0
H	-0.405561	-0.964661	0.296898
N	0.04683	1.492519	-1.984859
H	0.276885	2.124024	-1.23154
H	0.766854	1.47476	-2.690613
N	0.814059	-0.710307	-2.15011
H	0.499724	-1.667239	-2.036342
H	1.682792	-0.595267	-1.601489
N	-0.595253	0.997158	0.892114
O	-0.364594	2.195686	0.697981
O	-1.26667	0.587895	1.844565
F	2.62393	0.0	0.0
