15

C	-0.253652	0.139378	-1.492445
C	0.0	0.0	0.0
F	-1.553015	0.720088	-1.685701
H	1.090226	0.0	0.0
H	-0.336968	0.909422	0.4964
N	0.691431	1.101167	-2.018662
H	0.461321	2.003729	-1.616711
H	1.593545	0.82058	-1.608143
N	-0.106599	-1.048567	-2.228844
H	-0.263027	-0.846284	-3.206703
H	-0.690878	-1.79031	-1.873052
N	-0.603031	-1.106604	0.744259
O	-0.859201	-2.17645	0.17803
O	-0.801405	-0.923692	1.947094
F	2.595572	0.0	0.0
