15

C	-0.208664	0.117525	-1.512788
C	0.0	0.0	0.0
F	-0.257657	-1.277425	-1.93642
H	1.085984	0.0	0.0
H	-0.478626	-0.88832	0.398935
N	-1.440464	0.723548	-1.907356
H	-2.196075	0.064142	-1.766106
H	-1.393714	0.977395	-2.887748
N	0.910649	0.750459	-2.091835
H	1.748137	0.538478	-1.517759
H	1.031754	0.424256	-3.042374
N	-0.53335	1.163353	0.717882
O	-0.054856	2.267714	0.477641
O	-1.437012	0.963724	1.541242
F	2.656822	0.0	0.0
