15

C	-0.319742	0.056357	-1.488104
C	0.0	0.0	0.0
F	-0.080515	1.347922	-1.950898
H	1.087588	0.0	0.0
H	-0.292483	-0.976769	0.394618
N	0.60585	-0.806184	-2.150405
H	0.221364	-1.725259	-2.302562
H	1.487884	-0.806323	-1.628364
N	-1.693808	-0.248021	-1.877486
H	-2.090424	-0.870716	-1.182967
H	-2.197978	0.629731	-1.797825
N	-0.619293	0.995224	0.884795
O	-1.22894	1.958632	0.408222
O	-0.49238	0.802051	2.096541
F	2.5949	0.0	0.0
