14

C	0.0	0.0	0.0
C	-0.374134	-0.065601	-1.505811
Br	1.969661	0.0	0.0
H	0.267117	0.650148	-2.029422
H	-1.418756	0.241246	-1.512991
C	-0.429253	1.266232	0.591694
N	-0.551495	2.344794	1.044674
C	-0.460267	-1.14734	0.775381
N	-0.582265	-2.118595	1.428711
C	-0.229635	-1.464376	-2.083155
H	-0.450122	-1.44299	-3.15568
H	0.775728	-1.875582	-1.951013
H	-0.952424	-2.12785	-1.60387
F	-2.394122	0.0	0.0
