14

C	0.0	0.0	0.0
C	-0.376057	0.061786	-1.507902
Br	1.969986	0.0	0.0
H	-1.396256	-0.314275	-1.530775
H	0.316179	-0.594763	-2.04411
C	-0.452058	1.150145	0.776728
N	-0.582283	2.131233	1.412687
C	-0.428841	-1.263757	0.59694
N	-0.538308	-2.34598	1.044512
C	-0.337778	1.48084	-2.049651
H	-0.498722	1.471456	-3.131859
H	0.614229	1.982327	-1.853226
H	-1.144438	2.05169	-1.586925
F	-2.381481	0.0	0.0
