14

C	0.0	0.0	0.0
C	-0.373381	-0.087262	-1.508108
Br	1.970219	0.0	0.0
H	-1.388285	0.30151	-1.545634
H	0.328724	0.547916	-2.056544
C	-0.429756	1.273046	0.574548
N	-0.539914	2.361353	1.007354
C	-0.454228	-1.136299	0.794954
N	-0.587005	-2.106103	1.448434
C	-0.354243	-1.518049	-2.018312
H	-0.508518	-1.531079	-3.101099
H	-1.173513	-2.064025	-1.548056
H	0.588143	-2.030511	-1.804184
F	-2.37458	0.0	0.0
