14

C	0.0	0.0	0.0
C	-0.377918	0.081559	-1.507477
Br	1.969787	0.0	0.0
H	-1.366009	-0.364756	-1.563304
H	0.360581	-0.501122	-2.066165
C	-0.456765	1.132063	0.801446
N	-0.571644	2.093585	1.469255
C	-0.419637	-1.275374	0.579393
N	-0.542404	-2.357672	1.02233
C	-0.448455	1.518017	-1.997384
H	-0.608328	1.536331	-3.080484
H	0.46048	2.085738	-1.776368
H	-1.300839	1.995739	-1.512864
F	-2.366345	0.0	0.0
