16
Coordinates from ORCA-job run
  C   0.56048662225379      0.69225532625391      0.05388739778983
  C   -0.85881180290683      0.07869553752992     -0.06208529732396
  Br  0.53062676823369      2.57122536832291     -0.29439303501231
  H   -1.52796684743979      0.85605230329029      0.31971103479612
  N   1.56793150771434     -0.00008408100596     -0.86203708089437
  O   1.38501876887789     -1.20276743115390     -1.01346541814701
  O   2.47987471206390      0.66318406372656     -1.32764628298781
  N   1.07598805780976      0.48604840650770      1.47088104259413
  O   0.29214946847526      0.81623095792323      2.35044470635982
  O   2.20055667760833      0.03028627095850      1.61175341578288
  N   -0.91930037033165     -1.14109390299330      0.72999624974775
  H   -1.25960877394482     -0.95302232858048      1.66392233559817
  H   -1.52917573568603     -1.80996137849204      0.28162797280564
  N   -1.13400355359243     -0.08274279485995     -1.46498734707982
  H   -0.73657942965492     -0.94619680714576     -1.81233441143099
  H   -2.12718606948050     -0.05910951028162     -1.64627528259808
