16
Coordinates from ORCA-job run
  C   0.53908336759744      0.68064705202621      0.20588355012775
  C   -0.83757677824371      0.09027547124713     -0.19479801694708
  Br  0.37456351217436      2.50354001721027      0.75608054031065
  H   -1.36922474293270      0.92337422130300     -0.66502161855797
  N   1.46758016853020      0.63636961045200     -0.99914719478226
  O   2.58794693747783      0.17504628384945     -0.84367426273724
  O   0.98642590831720      1.08916930928567     -2.02895806200518
  N   1.22760788177412     -0.14078823265560      1.29415788634790
  O   1.02517832247357     -1.34837165724643      1.23408053964024
  O   1.94297883701057      0.43981993109543      2.09384554780569
  N   -1.52760960204213     -0.23390115313985      1.02531463465125
  H   -2.52872676442144     -0.20974369226460      0.89487314488977
  H   -1.24255917073006     -1.14195610468902      1.36929144030876
  N   -0.63295398808736     -1.02255739995347     -1.11060310500154
  H   -1.34006513124118     -1.72712829606306     -0.95590255862766
  H   -0.67364875765671     -0.71479536045714     -2.07342246542310
