16
Coordinates from ORCA-job run
  C   0.55657958712645      0.66317836361879      0.03846077195714
  C   -0.84103131191842      0.01164467201416      0.00596445263248
  Br  0.47051748443568      2.48620397596879     -0.54882832258088
  H   -1.48116241129547      0.72024652619396      0.54499100521093
  N   1.56562534765287     -0.12259279016656     -0.79711038383346
  O   1.48258531753770     -1.33781020193089     -0.68406323820679
  O   2.37969041730301      0.49416134932261     -1.46428387265771
  N   1.06410904599536      0.64854282943129      1.47634142703314
  O   0.32932918049698      1.19213923492731      2.28409119684890
  O   2.13462249223358      0.09945582713308      1.68997487225276
  N   -0.83013612590696     -1.20144259441199      0.77291831501454
  H   -0.43445342945620     -1.96819373468471      0.24762095643770
  H   -1.75551421882776     -1.42712912230799      1.10858767771357
  N   -1.19499832257650     -0.16678416594804     -1.39705602014512
  H   -1.47008363846518      0.71184953385611     -1.82047431514610
  H   -1.97767941433515     -0.80546970301593     -1.45613452253109
