16
Coordinates from ORCA-job run
  C   0.56001584039366      0.66075644394310      0.04386018670634
  C   -0.84067366242575      0.01683225635084     -0.00230340930961
  Br  0.48906204992112      2.48370055471077     -0.54606637186866
  H   -1.48220563782001      0.72850393851503      0.53084994719963
  N   1.57222563968125     -0.13077798351531     -0.78182061577800
  O   2.39504003409602      0.48094500046509     -1.44278990649706
  O   1.48188117619545     -1.34557630220027     -0.66839561608411
  N   1.05402841830400      0.64519604004488      1.48602818078836
  O   0.31318515526173      1.19059813007809      2.28707689962272
  O   2.12173426204138      0.09432076272023      1.70936966377920
  N   -0.84346098154597     -1.19634339253181      0.76500092207866
  H   -1.77365378307851     -1.41738229649562      1.09030083759933
  H   -0.44507562960722     -1.96540218368772      0.24522733076595
  N   -1.18202675959137     -0.15863843052750     -1.40881825016887
  H   -1.46371248168828      0.71865956474156     -1.83045178135579
  H   -1.95636364013752     -0.80639210261137     -1.47706801747810
