16
Coordinates from ORCA-job run
  C   0.55575290011967      0.67226987332120      0.22078753511208
  C   -0.81343851638394      0.12828262546304     -0.23439348747925
  Br  0.42430851854901      2.42585322605248      0.95965292691864
  H   -1.22182151682480      0.94332882000355     -0.83731033523076
  N   1.46272329534885      0.70505463046955     -1.01097505604666
  O   1.11401978049025      1.48007533735757     -1.88484764692999
  O   2.40473914537578     -0.07201434886592     -1.03012139491076
  N   1.24327999730468     -0.24975925541229      1.21891964596543
  O   0.79825548145364     -1.39423707966267      1.28294345195557
  O   2.19690069592077      0.19082701282166      1.83755217143269
  N   -1.65526239088155     -0.02620688211088      0.93231385298866
  H   -2.63026375729986      0.06018437145846      0.68090731304099
  H   -1.50215637639577     -0.92828906599344      1.36316947131378
  N   -0.58767704924891     -0.98444088000281     -1.13398163173933
  H   -0.40682455976789     -1.83662939998799     -0.62131719356793
  H   -1.38353564775993     -1.11529898491150     -1.74329962282317
