16
Coordinates from ORCA-job run
  C   0.55539114564343      0.67245789354762      0.22133502486882
  C   -0.81317244620454      0.12769771277184     -0.23481874610143
  Br  0.42237225162327      2.42589316085897      0.96028616858921
  H   -1.22165319950303      0.94257560768667     -0.83789650009828
  N   1.46317617243578      0.70591072942585     -1.00979306333594
  O   1.11458901186348      1.48079309178548     -1.88381990604148
  O   2.40569350894115     -0.07055047259194     -1.02835938728166
  N   1.24276561374645     -0.24925347956500      1.21985723194656
  O   0.79848550196420     -1.39404206286535      1.28332942146340
  O   2.19557946368705      0.19187526507158      1.83932732000536
  N   -1.65565492799065     -0.02745176282883      0.93132547263678
  H   -1.50226718346719     -0.92949398561451      1.36216954325183
  H   -2.63054882568818      0.05837082186616      0.67930735606358
  N   -0.58614706609347     -0.98477576770064     -1.13439676418038
  H   -0.40501709864737     -1.83688820425535     -0.62169948027070
  H   -1.38159192231037     -1.11611854759257     -1.74415369151567
