16
Coordinates from ORCA-job run
  C   0.55229405882581      0.56220608959670      0.19704390633000
  C   -0.87489963862138      0.08176186315562     -0.22802643399925
  Br  0.48630193409731      2.12743440203310      1.29483120493222
  H   -1.23322694068615      0.85881186942847     -0.91701953754229
  N   1.43980600900887      0.88370019273264     -1.00431506543505
  O   2.55100824204019      1.32726631567344     -0.76516110902198
  O   0.96051389753392      0.66108365137503     -2.11287323041431
  N   1.23847871666115     -0.58403660949179      0.92590063386596
  O   0.81154254998092     -0.82391087368022      2.04624890706258
  O   2.07987232134371     -1.21103019441628      0.30167004941540
  N   -1.82283222670093     -0.03986771231970      0.84247029987901
  H   -2.06900201201961      0.85941699424988      1.23075050669692
  H   -1.45337929897341     -0.63094201624149      1.57776198477375
  N   -0.71826119086236     -1.23475472400429     -0.80285147019161
  H   -0.31220775775245     -1.18386514360563     -1.72728469353425
  H   -1.63700866387559     -1.65527410448547     -0.85814595281711
