12
Coordinates from ORCA-job run
  C   0.51182225825048      0.47545520889298     -0.33882555135445
  C   -0.54457430421588     -0.38989333941618      0.33195777488250
  Br  0.10224258204276      0.78142872547561     -2.19852293470419
  H   -0.63273422823021     -1.32279229011684     -0.23074829827086
  H   0.60760802848819      1.44631797092064      0.14004382773744
  H   -0.16724181624077     -0.64388023937447      1.32898629415369
  N   1.85260764213519     -0.18897291769634     -0.23973204399999
  O   2.76192785783674      0.47738973577535      0.24950120630950
  O   1.92733321615417     -1.35487242358069     -0.61488988332682
  N   -1.78208247317569      0.36831679659100      0.42666960630690
  H   -2.16035425928958      0.33293285142122      1.36128083725890
  H   -2.47755450375538      0.01756992110772     -0.21472083499261
