12
Coordinates from ORCA-job run
  C   0.64046144478414      0.69696045632144     -0.11164698649134
  C   -0.48517723235541      0.17357089889891      0.76491729130661
  Br  -0.00370879947042      1.87941168234662     -1.48770575955476
  H   -0.01394793821435     -0.39440716041613      1.57020953101002
  H   1.38828354473149      1.24014330065542      0.46476357034155
  H   -0.99319478534650      1.04015724820175      1.20953934002685
  N   1.36594106019107     -0.50070918525568     -0.69254691648704
  O   1.30838970487553     -0.74617187125992     -1.88422967919978
  O   1.95495653464871     -1.15321218521910      0.16520523788776
  N   -1.32641718331384     -0.72416232952674     -0.00415907660860
  H   -1.87874678570064     -1.30554603731509      0.61056831461761
  H   -1.95583956482978     -0.20603481743150     -0.60291486684887
