12
Coordinates from ORCA-job run
  C   0.57049140742186      0.70429692702066     -0.19513866936987
  C   -0.87643973987527      0.26829797664903     -0.08545602330459
  Br  0.86268769651183      1.87769017802459     -1.70155849507031
  H   -1.48093959444896      1.16340444394049      0.08463579540013
  H   0.92806154243617      1.20204599468104      0.70287397622377
  H   -1.18470321049289     -0.16037855836767     -1.04081906544096
  N   1.44591220959800     -0.50833986554052     -0.36060776609196
  O   2.52252039331436     -0.48959959085839      0.22468147447262
  O   1.01852481845845     -1.41357135043334     -1.06913582282319
  N   -0.96481383288676     -0.67089357627631      1.02341015644523
  H   -1.20329669505416     -1.59719573163034      0.70265866221340
  H   -1.63800499498263     -0.37675684720925      1.71445577734573
