12
Coordinates from ORCA-job run
  C   0.61859498302007      0.67684490370110     -0.07794802850161
  C   -0.85866853437479      0.36450881099668      0.01394200684407
  Br  0.98626271632624      2.07699177566421     -1.35841501274159
  H   -1.35337654461950      1.26540330160710      0.38422707785341
  H   1.03902335648779      0.97014907551794      0.88086317708774
  H   -1.24480902741082      0.15195611139206     -0.98732153937261
  N   1.38570442458380     -0.54927085604703     -0.49681500354313
  O   2.52782897209447     -0.65480806124399     -0.06621790090292
  O   0.81488173045008     -1.34050984627726     -1.24312108978999
  N   -1.01468213715376     -0.72108404330229      0.97273454528374
  H   -1.87975141983318     -0.62899899498119      1.48569980154805
  H   -1.02100851957041     -1.61118217702732      0.49337196623485
