12
Coordinates from ORCA-job run
  C   0.65439231162923      0.71504943686724     -0.15173160014948
  C   -0.48382201672368      0.24513282745467      0.74882421690446
  Br  0.04002226563849      1.91273347850112     -1.51869418409923
  H   -0.99555567695135      1.13541106556845      1.12311021156236
  H   1.44386060112158      1.22127556668206      0.40588214687306
  H   -0.02904334348070     -0.26306206711138      1.60244719830602
  N   1.31072274732341     -0.52052787320799     -0.73941857613104
  O   1.41828291911392     -0.65917168277669     -1.94496375919836
  O   1.69776188546440     -1.30791497320834      0.12214152160513
  N   -1.36772194687168     -0.63213606650154      0.00367576237847
  H   -1.37616963483689     -1.56465713181635      0.38744332695826
  H   -2.31173011142673     -0.28213258045124     -0.03871626500966
