12
Coordinates from ORCA-job run
  C   0.61110326089887      0.68264823137718     -0.07929747033306
  C   -0.51398768873343      0.17841884240910      0.84094204535022
  Br  -0.04293484445965      1.83731821777292     -1.47111532953864
  H   -0.02940488538961     -0.43040734451677      1.61173732618510
  H   1.37389776595010      1.22500744270414      0.47627511913374
  H   -0.93755210533492      1.05685547831300      1.33414956516760
  N   1.31021229151449     -0.52066131356797     -0.65157467429711
  O   0.87164357314464     -1.03735407871771     -1.67192273790895
  O   2.22787080383381     -0.94874609640118      0.04602492130987
  N   -1.57749410574985     -0.58245858972504      0.23601055384925
  H   -2.06026595572558     -0.03586259216187     -0.46473711716668
  H   -1.23208810994887     -1.42475819748579     -0.20449220175135
