16

C	-0.378184	-0.131156	-1.482846
C	0.0	0.0	0.0
F	-1.778943	-0.197587	-1.591467
H	1.103418	0.0	0.0
C	0.017453	1.104268	-2.185422
N	0.291759	2.085504	-2.769293
C	0.235866	-1.350768	-2.132677
H	-0.023202	-1.384487	-3.192559
H	1.320563	-1.306731	-2.008106
H	-0.147805	-2.245774	-1.639951
C	-0.499618	-1.185288	0.707042
N	-0.927115	-2.136637	1.246659
N	-0.47501	1.208517	0.64867
H	-1.3722	1.491507	0.273928
H	0.203333	1.944848	0.501621
Cl	3.268406	0.0	0.0
