16

C	-0.434433	-0.037668	-1.462679
C	0.0	0.0	0.0
F	-1.831579	-0.180052	-1.517646
H	1.102531	0.0	0.0
C	-0.129949	1.252397	-2.108141
N	0.064224	2.240301	-2.711479
C	0.211243	-1.182946	-2.21382
H	-0.092753	-1.162413	-3.261923
H	-0.106851	-2.127317	-1.767484
H	1.297218	-1.094287	-2.131078
C	-0.454347	-1.233723	0.662419
N	-0.851826	-2.166663	1.256923
N	-0.468814	1.206839	0.661051
H	0.194149	1.460339	1.381304
H	-1.379957	1.069161	1.079279
Cl	3.268282	0.0	0.0
