16

C	-0.518186	-0.007649	-1.446375
C	0.0	0.0	0.0
F	-0.033498	1.153428	-2.045293
H	1.100916	0.0	0.0
C	0.013485	-1.16081	-2.194842
N	0.341781	-2.093288	-2.828515
C	-2.032668	0.020095	-1.546386
H	-2.397481	0.855043	-0.949742
H	-2.322003	0.146387	-2.591413
H	-2.456928	-0.910819	-1.16692
C	-0.503659	-1.182291	0.694941
N	-0.932707	-2.119831	1.257716
N	-0.508308	1.220925	0.658281
H	-0.260357	1.148768	1.640196
H	0.066895	1.974728	0.292197
Cl	3.290976	0.0	0.0
