15

C	0.0	0.0	0.0
C	-0.572435	0.235824	-1.388017
F	1.386145	0.0	0.0
H	-1.68005	0.236415	-1.184026
H	-0.216335	-0.522285	-2.08173
C	-0.480074	1.017959	1.016973
H	-0.119095	2.0073	0.735536
H	-1.575461	0.962407	0.975658
H	-0.084229	0.752691	1.999084
C	-0.41714	-1.35683	0.412806
N	-0.572194	-2.459257	0.785509
N	-0.100448	1.532217	-1.932702
O	-0.682191	2.561411	-1.58027
O	0.855035	1.513057	-2.718355
F	-2.817619	0.0	0.0
