15

C	0.0	0.0	0.0
C	-0.446765	-0.009449	-1.446845
F	1.389092	0.0	0.0
H	-0.149018	0.929064	-1.913637
H	-1.541353	-0.161677	-1.403144
C	-0.386995	1.290471	0.703635
H	0.037929	1.264657	1.711815
H	0.086859	2.117476	0.161836
H	-1.474055	1.348434	0.707969
C	-0.437817	-1.184133	0.760737
N	-0.725557	-2.117829	1.411465
N	0.274891	-1.060577	-2.210817
O	0.16016	-2.227085	-1.837495
O	0.949494	-0.705958	-3.181321
F	-2.654744	0.0	0.0
