15

C	0.0	0.0	0.0
C	-0.605985	0.009967	-1.378058
F	1.389212	0.0	0.0
H	-1.721956	-0.081945	-1.121072
H	-0.386841	0.944537	-1.892998
C	-0.465266	1.25484	0.726848
H	-0.072645	1.247064	1.7459
H	-1.559366	1.215663	0.711987
H	-0.074803	2.131549	0.200729
C	-0.40178	-1.18223	0.794007
N	-0.558283	-2.078538	1.535656
N	-0.131184	-1.066633	-2.260972
O	0.103968	-2.172431	-1.772465
O	-0.03463	-0.805474	-3.464198
F	-2.824875	0.0	0.0
