15

C	0.0	0.0	0.0
C	-0.588443	-0.555071	-1.289061
F	1.395311	0.0	0.0
H	0.044349	-1.375733	-1.653307
H	-1.637028	-0.790945	-1.01305
C	-0.446967	1.360824	0.47517
H	-0.064381	2.123158	-0.205874
H	-0.015846	1.526515	1.462521
H	-1.540924	1.303369	0.49215
C	-0.348341	-1.004882	1.036287
N	-0.462174	-1.79392	1.899321
N	-0.682135	0.428498	-2.40267
O	0.090584	1.386952	-2.433081
O	-1.53217	0.186608	-3.25724
F	-2.761004	0.0	0.0
