15

C	0.0	0.0	0.0
C	-0.609349	0.040748	-1.387952
F	1.38567	0.0	0.0
H	-1.725534	0.116825	-1.122933
H	-0.379918	-0.86323	-1.949646
C	-0.462198	1.098156	0.945453
H	-0.072587	0.882282	1.943748
H	-1.555075	1.065898	0.923918
H	-0.074543	2.054237	0.600834
C	-0.401436	-1.314286	0.557757
N	-0.559655	-2.384082	1.014579
N	-0.148371	1.158195	-2.231834
O	-0.03873	2.283175	-1.741712
O	0.05528	0.909268	-3.425013
F	-2.823718	0.0	0.0
