15

C	0.0	0.0	0.0
C	-0.604372	0.05454	-1.378168
F	1.389048	0.0	0.0
H	-1.72032	-0.04706	-1.1286
H	-0.385712	1.005955	-1.86123
C	-0.467879	1.227954	0.768564
H	-0.088338	2.123412	0.266939
H	-1.561929	1.181479	0.756917
H	-0.067287	1.192045	1.784003
C	-0.40039	-1.208873	0.753926
N	-0.553838	-2.127085	1.46869
N	-0.124687	-0.99215	-2.294792
O	-0.03707	-0.694558	-3.489843
O	0.123981	-2.108862	-1.840817
F	-2.824873	0.0	0.0
