13

C	0.0	0.0	0.0
C	-0.526408	0.089529	-1.421703
F	1.404422	0.0	0.0
H	-0.193838	1.01785	-1.891373
H	-1.636995	0.10582	-1.273209
C	-0.319255	1.278355	0.714965
N	-0.446008	2.27744	1.320593
N	-0.523887	-1.160491	0.612079
H	-1.56226	-1.021658	0.522998
H	-0.285214	-1.168606	1.599619
C	-0.110342	-1.048247	-2.227218
N	0.192854	-1.931333	-2.939707
H	-2.925869	0.0	0.0
