13

C	0.0	0.0	0.0
C	-0.4954	-0.047721	-1.448127
F	1.375781	0.0	0.0
H	-1.605428	0.018386	-1.323798
H	-0.237273	-1.029301	-1.861429
C	-0.395261	1.293178	0.621381
N	-0.562872	2.345405	1.115202
N	-0.51818	-1.060354	0.798498
H	-0.342514	-1.930767	0.303081
H	-1.552834	-0.886912	0.756735
C	0.036764	0.998171	-2.308431
N	0.449897	1.835507	-3.022386
H	-2.910566	0.0	0.0
