13

C	0.0	0.0	0.0
C	-0.536938	0.021258	-1.423886
F	1.377857	0.0	0.0
H	-0.209309	0.930207	-1.935046
H	-1.647974	0.042085	-1.273021
C	-0.34825	1.315773	0.641172
N	-0.562904	2.364008	1.128052
N	-0.53824	-1.123815	0.674013
H	-0.319083	-1.058006	1.663901
H	-1.576088	-0.977655	0.571288
C	-0.113527	-1.143222	-2.185057
N	0.214894	-2.050344	-2.856366
H	-2.942366	0.0	0.0
