15

C	-0.477073	-0.063299	-1.437115
C	0.0	0.0	0.0
F	-0.294397	1.193157	-2.045026
H	1.09551	0.0	0.0
H	-1.560923	-0.245182	-1.481808
H	-0.312541	-0.933989	0.484979
C	0.28435	-1.084887	-2.251682
H	0.105345	-2.089738	-1.859198
H	1.353514	-0.874725	-2.179446
H	-0.029871	-1.055346	-3.298458
C	-0.547987	1.198657	0.76225
H	-0.198159	2.125173	0.306674
H	-1.644305	1.211752	0.76679
H	-0.200813	1.183253	1.797903
Br	3.80698	0.0	0.0
