14

C	0.00415	0.003625	-0.011287
C	-0.480654	-0.007838	-1.457282
Br	1.990165	-0.111987	0.151103
H	-1.596822	-0.116644	-1.17085
H	-0.404777	-0.85975	0.505177
C	-0.408135	1.214021	0.689225
N	-0.609157	2.223502	1.255872
C	-0.014175	-1.192449	-2.153058
N	0.328839	-2.140872	-2.759302
C	-0.171102	1.266348	-2.232263
H	0.904652	1.462667	-2.286091
H	-0.66129	2.113554	-1.748148
H	-0.558287	1.18766	-3.250962
F	-2.542237	-0.198079	0.011263
