14

C	0.013335	-0.008303	-0.015529
C	-0.444647	0.024055	-1.470483
Br	1.98818	-0.222797	0.178126
H	-1.568345	-0.032749	-1.208394
H	-0.445582	-0.858363	0.48029
C	-0.352891	1.211045	0.69459
N	-0.514103	2.222823	1.269835
C	-0.023728	-1.173048	-2.174489
N	0.288309	-2.12862	-2.786111
C	-0.056579	1.291159	-2.221644
H	-0.510523	2.155812	-1.733109
H	1.028562	1.432133	-2.255147
H	-0.429842	1.246364	-3.247576
F	-2.534477	-0.09039	-0.031601
