16

C	0.0	0.0	0.0
C	-0.345186	0.034339	-1.534098
Br	1.954755	0.0	0.0
H	-0.156234	1.081634	-1.811842
H	0.412766	-0.566754	-2.04054
C	-0.660942	1.067927	0.810266
H	-0.408154	2.042803	0.387148
H	-1.746923	0.854058	0.690358
H	-0.365126	1.028334	1.857701
N	-0.343411	-1.372937	0.568987
O	-0.283838	-2.329395	-0.200273
O	-0.606211	-1.449026	1.764347
N	-1.646114	-0.378094	-1.979688
H	-2.38501	-0.080751	-1.289124
H	-1.665642	-1.389415	-1.942636
F	-3.205549	0.0	0.0
