16

C	0.0	0.0	0.0
C	-0.548068	0.097587	-1.413927
Br	1.947818	0.0	0.0
H	-1.638434	0.000884	-1.230151
H	-0.329632	1.121465	-1.734002
C	-0.545358	1.111162	0.864255
H	-0.19295	1.016457	1.889942
H	-1.643008	0.976033	0.776389
H	-0.217801	2.068945	0.452292
N	-0.400982	-1.333321	0.62692
O	-0.685297	-2.259434	-0.125252
O	-0.375892	-1.413909	1.849589
N	0.055397	-0.817258	-2.387524
H	-0.393451	-1.7169	-2.276601
H	-0.180507	-0.475497	-3.31155
F	-2.92465	0.0	0.0
