16

C	0.0	0.0	0.0
C	-0.556064	0.063908	-1.412004
Br	1.941929	0.0	0.0
H	-0.349264	1.084401	-1.754166
H	-1.645554	-0.037569	-1.217599
C	-0.547399	1.129491	0.839126
H	-1.644656	0.990804	0.75684
H	-0.223117	2.07824	0.404609
H	-0.192785	1.059751	1.866286
N	-0.390451	-1.321922	0.663091
O	-0.628945	-2.280961	-0.064159
O	-0.386148	-1.364571	1.887565
N	0.049594	-0.862788	-2.37477
H	-0.250532	-0.568932	-3.297927
H	-0.355783	-1.774871	-2.205488
F	-2.931928	0.0	0.0
