16

C	-0.089834	0.051387	0.005181
C	-0.611019	-0.035753	-1.464032
F	1.307417	0.283021	-0.01788
H	-1.367553	-0.819964	-1.442621
C	-0.647875	1.227089	0.694898
N	-0.839816	2.221945	1.290095
C	-0.351006	-1.223149	0.771805
H	0.115954	-1.170046	1.758135
H	-1.437555	-1.294802	0.840893
H	0.075106	-2.066204	0.219593
C	0.490941	-0.437398	-2.353995
N	1.342172	-0.778528	-3.087535
N	-1.313106	1.126281	-1.980504
H	-2.143476	1.108127	-1.367079
H	-0.774975	1.965205	-1.787811
F	-2.731527	0.039733	-0.042818
