16

C	0.063794	0.071954	-0.018333
C	-0.396977	0.408261	-1.465904
F	1.445748	-0.191531	-0.036479
H	-0.428402	-0.551057	-1.995032
C	-0.111954	1.271923	0.82394
N	-0.2497	2.223691	1.498414
C	-0.664127	-1.124863	0.548174
H	-0.210287	-2.010097	0.093078
H	-1.722421	-1.119435	0.223854
H	-0.53655	-1.176455	1.63197
C	0.631858	1.258569	-2.101048
N	1.426313	1.956567	-2.611699
N	-1.704476	0.994118	-1.590976
H	-1.809765	1.767212	-0.943918
H	-2.39057	0.209097	-1.387107
F	-2.976312	-1.159866	-1.039493
