19

C	0.0	0.0	0.0
C	-0.442515	-0.116414	-1.514101
Cl	1.8067	0.0	0.0
H	0.487514	-0.144917	-2.089312
C	-0.360683	1.308556	0.565265
N	-0.549367	2.37039	1.03078
C	-0.532189	-1.073197	0.9338
H	-1.627246	-0.944632	0.875415
H	-0.160699	-0.89644	1.945452
H	-0.211295	-2.062778	0.604554
C	-1.251053	1.094426	-1.979428
H	-0.683618	2.025766	-1.87474
H	-1.501197	0.969145	-3.039215
H	-2.163922	1.114723	-1.374339
C	-1.22559	-1.395677	-1.798282
H	-0.653735	-2.297788	-1.561229
H	-2.150187	-1.333396	-1.218506
H	-1.463269	-1.43075	-2.867762
F	-2.955578	0.0	0.0
