19

C	0.0	0.0	0.0
C	-0.442457	-0.037952	-1.517524
Cl	1.807573	0.0	0.0
H	0.485349	-0.035534	-2.096571
C	-0.359773	1.2789	0.628844
N	-0.552618	2.313414	1.151461
C	-0.536187	-1.115332	0.879546
H	-0.218441	-2.089138	0.503669
H	-0.163095	-0.991275	1.899458
H	-1.631945	-0.981674	0.82676
C	-1.264794	1.188932	-1.91491
H	-0.710042	2.121132	-1.768704
H	-2.17304	1.167767	-1.301949
H	-1.520478	1.11461	-2.978301
C	-1.225673	-1.300785	-1.867232
H	-2.159224	-1.258242	-1.296315
H	-1.444766	-1.286257	-2.940307
H	-0.666383	-2.218323	-1.659773
F	-2.964782	0.0	0.0
