19

C	0.0	0.0	0.0
C	-0.532874	0.233868	-1.42429
Cl	1.806197	0.0	0.0
H	-1.62379	0.263362	-1.213958
C	-0.385674	1.130419	0.857958
N	-0.565459	2.064936	1.546772
C	-0.509001	-1.292604	0.613844
H	-1.607324	-1.190505	0.52971
H	-0.11599	-2.147927	0.062176
H	-0.183183	-1.370326	1.65309
C	-0.22107	-0.934141	-2.353559
H	0.850999	-1.158219	-2.393598
H	-0.759637	-1.834018	-2.054606
H	-0.545951	-0.684119	-3.367631
C	-0.052616	1.550649	-2.020808
H	1.021007	1.537236	-2.239009
H	-0.255824	2.388971	-1.351064
H	-0.585286	1.740319	-2.95689
F	-2.873681	0.0	0.0
