19
Coordinates from ORCA-job run
  C   -0.74871783341718      0.19942046210087      0.24393492170305
  C   0.29716597217862     -0.76684947358725     -0.35106894516052
  Cl  -1.80260115285544     -0.75265603072190      1.37010657920551
  H   -0.27654668047809     -1.53429241587474     -0.88397026196574
  C   -0.11719975978367      1.32731176629477      1.04226955390862
  H   0.45707022625038      0.95347295772360      1.89099218001708
  H   0.53753982941474      1.91117673403071      0.38964116885537
  H   -0.89293301919180      1.99059466934994      1.42971708888671
  C   -1.65493311123663      0.74499524130243     -0.84808782709226
  H   -1.05981348722194      1.32533186348923     -1.55284406639821
  H   -2.14043006537147     -0.07245301788983     -1.38661628779411
  H   -2.43247799418531      1.37700949465206     -0.41406094327760
  C   1.18981250473111     -1.45983022389640      0.67622265658657
  H   1.84186092409788     -2.16992194623664      0.16085811389732
  H   0.61914982278524     -2.00336577804781      1.42921565027654
  H   1.83035874472768     -0.73473855505480      1.18657937777338
  N   1.07347922262332     -0.02292728995205     -1.35259298747167
  H   1.92177308140603      0.33522669029058     -0.92858911846266
  H   1.35644277552654     -0.64550514797276     -2.09870685348741
