19
Coordinates from ORCA-job run
  C   -0.31361674101116      0.53174337691651      0.25160626151284
  C   0.55275636703643     -0.57982985528438     -0.39254910335731
  Cl  0.51358091002424      1.12105349857331      1.75354840246101
  H   0.01481650922009     -0.84423096085961     -1.31421448781423
  C   -0.45070465059722      1.73014762714711     -0.67595333469836
  H   -0.92637271458704      1.41806454343042     -1.61159571039625
  H   -1.07031376972826      2.50047815818471     -0.21328475401078
  H   0.51775316682274      2.17611548496913     -0.90310829698324
  C   -1.68729769686373      0.02041108017234      0.65931022878830
  H   -2.18167739674732     -0.43380041843117     -0.20587451755745
  H   -1.62188197343170     -0.72159103930576      1.45401658652274
  H   -2.30779679015799      0.84440168852121      1.01764315732234
  C   0.66725137969511     -1.83767627386242      0.46038517354177
  H   -0.29941784719111     -2.31053274836591      0.63757901100321
  H   1.30939214604553     -2.54709112002130     -0.06239469295791
  H   1.12331404360814     -1.61144248888525      1.42726959930692
  N   1.89314375706304     -0.17989436572294     -0.79855609180609
  H   2.40459684795605      0.16623340099559      0.00553956670548
  H   1.86247445284415      0.55844041182842     -1.48936699758301
