19
Coordinates from ORCA-job run
  C   -0.54426640307307      0.48240625935314     -0.29863541242792
  C   0.44003853404320     -0.67330930828782     -0.60570155409296
  Cl  -0.97129035127980      1.22610079140642     -1.90302030544216
  H   -0.07933233362972     -1.32030600878717     -1.32319767427900
  C   -1.84572648797201     -0.02661589117999      0.30147362544725
  H   -2.24709805507048     -0.85551961512728     -0.28674788736539
  H   -2.59227817060192      0.76953347667078      0.32282521039358
  H   -1.68350592840057     -0.36729488829770      1.32664642197059
  C   0.05992502221835      1.58559756592625      0.55281859891974
  H   0.32738218680866      1.19852411618167      1.53984449411623
  H   -0.66114717042303      2.39379511615469      0.68874587905469
  H   0.94983784213501      2.00727683797402      0.08414185721577
  C   0.76429154083347     -1.50439458666201      0.63212957889964
  H   -0.12064527554075     -1.96957067556413      1.06672816532315
  H   1.25275710925759     -0.90212528799641      1.40405430080048
  H   1.45850918576999     -2.29307900911903      0.33854978471355
  N   1.69654578145231     -0.28598950019734     -1.22954116030348
  H   2.27181603651136      0.23256322197959     -0.57643838633324
  H   1.52618693696141      0.30140738557232     -2.03667553661053
