14

C	0.0	0.0	0.0
C	-0.246833	-0.037161	-1.54206
Br	1.965139	0.0	0.0
H	0.403978	-0.819086	-1.943444
H	0.141256	0.912838	-1.925031
C	-0.550796	1.225787	0.692797
H	-0.182673	2.125007	0.193714
H	-1.644472	1.166172	0.625561
H	-0.246072	1.241616	1.741094
C	-0.398072	-1.249902	0.643162
N	-0.611692	-2.281186	1.165381
C	-1.543443	-0.269956	-2.188809
N	-2.296265	-0.492164	-3.065525
Br	-3.787942	0.0	0.0
