14

C	0.0	0.0	0.0
C	-0.547063	-0.324779	-1.393376
Br	1.961832	0.0	0.0
H	-1.646619	-0.337512	-1.2851
H	-0.270435	0.483703	-2.076785
C	-0.50253	1.361129	0.45938
H	-0.152464	2.130394	-0.233677
H	-1.596812	1.321258	0.460645
H	-0.132874	1.587207	1.460642
C	-0.363495	-1.051452	0.953683
N	-0.592572	-1.910077	1.722558
C	-0.073564	-1.593304	-1.934029
N	0.304926	-2.605741	-2.392735
Br	-3.822028	0.0	0.0
