14

C	0.0	0.0	0.0
C	-0.547013	0.157111	-1.425602
Br	1.962863	0.0	0.0
H	-0.227658	-0.680826	-2.05096
H	-1.648249	0.129629	-1.32302
C	-0.491728	1.107919	0.921647
H	-0.136745	2.073165	0.554404
H	-1.586534	1.077402	0.913235
H	-0.121616	0.950208	1.93599
C	-0.372763	-1.322527	0.508248
N	-0.596482	-2.397051	0.929065
C	-0.128816	1.411556	-2.04019
N	0.198781	2.419512	-2.545828
Br	-3.813414	0.0	0.0
