14

C	0.0	0.0	0.0
C	-0.218834	-0.111232	-1.538175
Br	1.965228	0.0	0.0
H	0.442998	-0.906405	-1.892896
H	0.177427	0.822387	-1.953228
C	-0.509652	1.274294	0.642578
H	-0.128764	1.36407	1.66035
H	-1.601701	1.223742	0.650397
H	-0.175138	2.13282	0.054966
C	-0.395722	-1.206672	0.72514
N	-0.603827	-2.200672	1.317189
C	-1.496021	-0.373907	-2.217561
N	-2.162428	-0.63789	-3.151059
Br	-3.665315	0.0	0.0
