18

C	-0.45919	-0.011983	-1.447435
C	0.0	0.0	0.0
Cl	0.336602	-1.297505	-2.383152
H	1.095409	0.0	0.0
C	-1.907973	-0.177204	-1.59726
N	-3.067934	-0.368262	-1.633559
N	-0.091312	1.335298	-2.091373
O	-0.989235	2.17658	-2.104982
O	1.057358	1.492983	-2.462737
C	-0.482081	-1.252857	0.718111
H	-0.158239	-2.157131	0.199253
H	-1.572601	-1.286876	0.844664
H	-0.015422	-1.268458	1.706379
C	-0.46673	1.261121	0.718066
H	-1.553115	1.415841	0.687543
H	-0.159117	1.174417	1.763387
H	0.028948	2.148446	0.319503
F	2.588325	0.0	0.0
