18

C	-0.391662	-0.024612	-1.461075
C	0.0	0.0	0.0
Cl	0.384846	1.283526	-2.379013
H	1.096355	0.0	0.0
C	-0.05675	-1.287482	-2.117839
N	0.222227	-2.300032	-2.644621
N	-1.919655	0.145726	-1.586151
O	-2.378326	1.279141	-1.630176
O	-2.575467	-0.891102	-1.496132
C	-0.438811	-1.258511	0.736924
H	-1.527391	-1.362606	0.827828
H	-0.008544	-1.211431	1.74126
H	-0.039167	-2.156573	0.261648
C	-0.471851	1.259066	0.709708
H	-0.208626	2.158933	0.151819
H	0.051772	1.3057	1.668477
H	-1.553086	1.271897	0.901733
F	2.573101	0.0	0.0
