18

C	-0.379954	0.01557	-1.451463
C	0.0	0.0	0.0
Cl	-2.175263	0.057431	-1.766825
H	1.096316	0.0	0.0
C	0.18724	1.162795	-2.159622
N	0.571428	2.126252	-2.712052
N	0.151717	-1.253227	-2.144044
O	-0.494096	-2.281988	-1.997622
O	1.210818	-1.135415	-2.7439
C	-0.476906	-1.23089	0.753448
H	0.017305	-2.133905	0.394194
H	-0.18918	-1.104627	1.800606
H	-1.56215	-1.378953	0.704623
C	-0.437062	1.288628	0.683103
H	-1.526112	1.371808	0.787146
H	-0.063299	2.16796	0.152908
H	0.013014	1.305471	1.678973
F	2.559341	0.0	0.0
