18

C	-0.474526	-0.017898	-1.441639
C	0.0	0.0	0.0
Cl	0.32313	-1.295959	-2.385833
H	1.095419	0.0	0.0
C	-1.923667	-0.197897	-1.573003
N	-3.082543	-0.398284	-1.5953
N	-0.129209	1.332312	-2.092801
O	-1.036275	2.163128	-2.098596
O	1.013137	1.502019	-2.478776
C	-0.473039	-1.251328	0.727864
H	0.0125	-1.267455	1.706661
H	-1.560874	-1.28173	0.874592
H	-0.162331	-2.157269	0.204201
C	-0.462211	1.261731	0.719984
H	0.02596	2.149599	0.313273
H	-1.549368	1.412836	0.702617
H	-0.140989	1.178244	1.761486
F	2.587542	0.0	0.0
