14
Coordinates from ORCA-job run
  C   0.07098068420921     -0.48586219066695      0.08697847441041
  C   -0.73225256863774      0.79093223579588     -0.16329496247290
  H   -0.13221626782410     -0.81797108467802      1.11847801131528
  H   -0.49860183817324      1.13263298138109     -1.17764240011391
  H   -1.80391311891403      0.56353735246755     -0.14345017912363
  N   1.48591780785258     -0.15989388188380      0.03137513424142
  H   2.04235735645139     -0.90221298821615      0.43762691735261
  H   1.74563636291655     -0.08332018064728     -0.94718338932918
  N   -0.29025827834856     -1.48005472335998     -0.92417564905478
  H   -1.29518307013111     -1.61832760961209     -0.94034752021080
  H   0.13429661160372     -2.37292795267571     -0.69940164692342
  N   -0.46402474495686      1.87105950524831      0.77444538855488
  H   0.54404199175993      1.95101219455713      0.85338349305177
  H   -0.80778092780772      1.61239634229001      1.69220832830227
