14
Coordinates from ORCA-job run
  C   0.03788123363826     -0.61319300989586      0.10749628027916
  C   -0.69535897394305      0.71143041614395     -0.05195161374359
  H   0.01524645063674     -0.88741151563288      1.17621955057056
  H   -1.73762638953155      0.56295911572223      0.25418870788318
  H   -0.68647230425033      0.96328417938037     -1.11725431042935
  N   1.39000987389405     -0.43495823129415     -0.40838741665425
  H   1.74292166212296      0.44716203498020     -0.05014517315641
  H   1.99527954354742     -1.17815546802320     -0.07942892540836
  N   -0.70433218411476     -1.64583721216363     -0.59636120456308
  H   -0.35446493427019     -2.55975514591101     -0.33326915106685
  H   -0.50603123164204     -1.53211669707914     -1.58566981594964
  N   0.01123416677044      1.77065060242769      0.67433711286120
  H   -0.21633419325073      1.71510797799092      1.66003329984961
  H   -0.29195271960723      2.67983295335451      0.35019265952781
