14
Coordinates from ORCA-job run
  C   0.14242230899901     -0.53579237565494      0.07766698082864
  C   -0.81100009523713      0.64846183622504      0.06372717321991
  H   0.12608466595062     -0.95478284507933      1.09378569067144
  H   -0.75129730855201      1.10566077478137     -0.93709604224461
  H   -1.83723368495918      0.28978511034603      0.20128646307897
  N   1.49152652095218     -0.04454614158725     -0.15331078078960
  H   1.60079732487551      0.09894360030722     -1.15238432038374
  H   2.17829948278646     -0.72909073526237      0.13790805558138
  N   -0.26042283303672     -1.48719467484141     -0.96054000551694
  H   -1.22495241914210     -1.76881845116174     -0.81965828649560
  H   0.30831729792130     -2.32380408162502     -0.89012238244097
  N   -0.46873785591913      1.53668908882869      1.16777503244833
  H   0.51187865693214      1.77194457482099      1.06505553772412
  H   -1.00568206157096      2.39254431990270      1.10590688431867
