14
Coordinates from ORCA-job run
  C   0.46551121021987     -0.30661748265900     -0.05174568294290
  C   -0.35825352021947      0.96959588547744     -0.11766429641851
  H   1.31529632555472     -0.11123050524538      0.61758789796672
  H   0.22150080810785      1.75004456525053     -0.62314710862421
  H   -1.24203862143837      0.75754724067695     -0.74072212766364
  N   0.85862184484808     -0.69351395992521     -1.40861990198797
  H   1.49090105007780     -1.48505476539172     -1.36360765533174
  H   1.36181859970622      0.06586891727577     -1.85539619070900
  N   -0.33760149735913     -1.34193658157460      0.57903711021766
  H   -0.96304472921662     -1.71959147323389     -0.12585772323450
  H   0.24743529278483     -2.09864356687402      0.91099196803132
  N   -0.65353478705506      1.40568245843199      1.24162254394804
  H   -1.30460560489933      2.18058173318414      1.22537840794528
  H   -1.10200637111138      0.62726753460699      1.71114275880345
