18

C	-0.48609	0.004428	-1.452928
C	0.0	0.0	0.0
Cl	0.175308	1.422118	-2.346929
H	1.096139	0.0	0.0
C	0.004476	-1.187821	-2.17534
N	0.283543	-2.182295	-2.739089
N	-1.935227	0.10286	-1.526404
H	-2.331531	-0.68892	-1.032309
H	-2.227822	0.045426	-2.495718
C	-0.443871	-1.279962	0.713056
H	0.052901	-1.317094	1.684988
H	-1.525506	-1.310545	0.89456
H	-0.145753	-2.178506	0.16795
C	-0.474909	1.233235	0.760118
H	-1.564859	1.274379	0.833453
H	-0.049792	1.200634	1.766354
H	-0.120334	2.148584	0.285585
Cl	3.458792	0.0	0.0
