18

C	-0.423113	0.024866	-1.464347
C	0.0	0.0	0.0
Cl	-2.360621	0.030154	-1.523
H	1.097336	0.0	0.0
C	-0.118766	1.296592	-2.128319
N	0.097541	2.318471	-2.664816
N	0.09426	-1.031464	-2.21394
H	0.012122	-1.924203	-1.757244
H	-0.234473	-1.058333	-3.167651
C	-0.426145	-1.285958	0.70586
H	-1.510706	-1.422852	0.698038
H	0.055316	-2.171082	0.28162
H	-0.087382	-1.231809	1.742753
C	-0.473437	1.227882	0.767009
H	-1.55948	1.237831	0.894193
H	-0.168398	2.151257	0.270577
H	-0.002583	1.221984	1.752689
Cl	3.434546	0.0	0.0
