18

C	-0.251998	-0.088959	-1.514952
C	0.0	0.0	0.0
Cl	-1.970892	-0.587602	-1.864517
H	1.100086	0.0	0.0
C	-0.090848	1.231895	-2.14829
N	0.030151	2.289649	-2.644986
N	0.623246	-1.014177	-2.212467
H	1.579324	-0.771043	-1.932649
H	0.444619	-1.945734	-1.849611
C	-0.444723	-1.256433	0.739216
H	0.020576	-1.258265	1.728283
H	-0.120651	-2.169581	0.234299
H	-1.531401	-1.294308	0.86081
C	-0.560473	1.251189	0.653467
H	-1.652106	1.292813	0.558066
H	-0.135227	2.158277	0.219577
H	-0.309924	1.246367	1.718058
Cl	3.414336	0.0	0.0
