11
Coordinates from ORCA-job run
  C   -1.17729229568007     -0.27406789973060     -0.25860327041697
  C   0.30136582080420      0.10680546437822     -0.29369486180804
  Br  -1.48698014069054     -1.98135563523353     -1.11339640943166
  H   0.64642262632090      0.05593043318930     -1.33076592464040
  H   -1.77724097315488      0.46619809097047     -0.78656790672524
  H   -1.52678308381937     -0.35336629368768      0.77188081392001
  N   1.10133454030919     -0.81502509009017      0.49128396728888
  H   0.90541874333515     -0.69862555740103      1.47878427946980
  H   2.08779882030148     -0.63917155652450      0.34690794576726
  C   0.41248271069619      1.51611139119992      0.14839330796071
  N   0.51347323157776      2.61756665292959      0.54477805861565
