11
Coordinates from ORCA-job run
  C   -1.19525809155952     -0.29123001508505     -0.11427461075703
  C   0.25888032563873      0.12558430409684     -0.32616501307901
  Br  -1.58383103105589     -1.97094838583689     -0.99082817798671
  H   0.46577505637180      0.12600579370493     -1.40046347990355
  H   -1.40461753341857     -0.41812436371530      0.94893246620328
  H   -1.87266631132713      0.45480132776020     -0.52801252229107
  N   1.17174130460092     -0.80866601847577      0.30654866900244
  H   2.12676790731738     -0.60538751851944      0.03936890148156
  H   1.10869259765868     -0.73371890491852      1.31522111821184
  C   0.39934671846177      1.51765495017691      0.16082313614622
  N   0.52616905731185      2.60402883081209      0.58984951297202
