11
Coordinates from ORCA-job run
  C   -1.10018019643403     -0.52944078071015     -0.22717281415663
  C   0.26401811701327      0.14872009703997     -0.29589988167876
  Br  -2.48881268133061      0.59037158476371     -0.98060660353056
  H   0.47135659945261      0.39083540331372     -1.34211438432291
  H   -1.05794286687844     -1.45218971314789     -0.80223271451316
  H   -1.37852281186620     -0.74510230829376      0.80490514195109
  N   1.26821286821435     -0.80894948951735      0.15377944950090
  H   2.19671940025055     -0.47079919258535     -0.06916039927991
  H   1.21830777492387     -0.91783432236472      1.16032445116504
  C   0.27055184963731      1.41243793243280      0.46914400257260
  N   0.33729194701732      2.38195078906903      1.12903375229228
