11
Coordinates from ORCA-job run
  C   -1.08127383503528     -0.26652948261873     -0.26821369454807
  C   0.36999477017257      0.23781420349118     -0.26212737609524
  Br  -1.18071020181991     -2.03893739871009     -1.05348117740362
  H   0.72724157829204      0.26190829882049     -1.29702217237075
  H   -1.46670476981533     -0.33946026013206      0.74943343054324
  H   -1.72505759996665      0.38345587613107     -0.86098765038798
  N   1.32810801293157     -0.52391190960413      0.51674900822883
  H   1.01733830344510     -0.60640337105115      1.47796265753124
  H   1.41532777028928     -1.45520618468307      0.12886619098337
  C   0.33826368195616      1.62500173332275      0.22962686486948
  N   0.25747228955045      2.72126849503374      0.64119391864950
