11
Coordinates from ORCA-job run
  C   -1.05323981978110     -0.40337279504294     -0.52210896977788
  C   0.31338338403039      0.20250338588146     -0.21239072929107
  Br  -2.12516883668220     -0.70216601955667      1.05734891989179
  H   0.77919176453754      0.38532993757982     -1.19691805661091
  H   -0.91990024545046     -1.36869285420235     -1.01387083746453
  H   -1.61532580930248      0.25855898482442     -1.18047786277469
  N   1.09238714130211     -0.67165171207068      0.65204347996864
  H   1.27665647969792     -1.54623484528571      0.17440757503656
  H   1.98096250463456     -0.24241545222277      0.87892156185179
  C   0.17301528429019      1.51584274683905      0.42946107544243
  N   0.09803815272354      2.57229862325636      0.93458384372786
