11
Coordinates from ORCA-job run
  C   -1.15198993452778     -0.29416986024991     -0.22539204396431
  C   0.28990704227395      0.20455825263945     -0.20706913461286
  Br  -1.24927438858295     -2.06557329357066     -1.02030974703643
  H   0.66824448426556      0.20392233768773     -1.24090086654349
  H   -1.78789639715115      0.35555526957879     -0.82435573037700
  H   -1.52538637609128     -0.37253651168146      0.79449886305962
  N   1.08301856527373     -0.58755180832912      0.72448182852806
  H   1.12578265966730     -1.54281472133098      0.38867975706424
  H   2.02938928228203     -0.22924738034917      0.76755783648869
  C   0.27161393413587      1.60281637479349      0.24820490951850
  N   0.24659112845471      2.72404134081185      0.59460432787498
