11
Coordinates from ORCA-job run
  C   -1.19352288594872     -0.26774484179663     -0.15730933996117
  C   0.28229004585539      0.09190047988792     -0.31845539246490
  Br  -1.58664677840486     -1.99775845222679     -0.92793865040518
  H   0.54751198427350      0.00108788805087     -1.37597092571300
  H   -1.82473825869469      0.46312447167692     -0.66130315360879
  H   -1.46244609928917     -0.30913865094354      0.89925686546257
  N   1.12946549539379     -0.81279552415333      0.43652525289017
  H   1.01990111188585     -0.65126994183643      1.43088769048716
  H   2.10312533296986     -0.66469940596502      0.20305258768474
  C   0.43681287662963      1.51463616682054      0.06396365737550
  N   0.54724717532942      2.63265781048549      0.40829140825292
