11
Coordinates from ORCA-job run
  C   -0.98168161049897     -0.55357683998296     -0.14446410051454
  C   0.31212717897820      0.25381665561453     -0.28879957129141
  Br  -2.48457065333656      0.32330293806287     -1.00163982636937
  H   0.47886008692382      0.45383017335211     -1.35214480045531
  H   -0.85824676662425     -1.52446290880795     -0.62533213677626
  H   -1.23561107919828     -0.69152935714219      0.90723617504530
  N   1.48823482014728     -0.43114884336584      0.22930742102624
  H   1.36888468165589     -0.66292734433791      1.20818006786965
  H   1.65503909522442     -1.28414053975007     -0.29010233320928
  C   0.18264024249796      1.55164342766892      0.38871273562549
  N   0.07532400423049      2.56519263868848      0.97004636904951
