11
Coordinates from ORCA-job run
  C   -1.09861880632486     -0.54673406633239     -0.19235550234494
  C   0.25158293120838      0.15300706361445     -0.30437501187082
  Br  -2.52904775970990      0.55044898826704     -0.89879417684278
  H   0.42218964826509      0.39908644889069     -1.35629477588775
  H   -1.06013361614865     -1.46860644418016     -0.76911773113317
  H   -1.33909557259610     -0.76724002901963      0.84822867969200
  N   1.28488027525825     -0.78928921729820      0.11192317372406
  H   2.20019739292587     -0.43443455110494     -0.13863224853632
  H   1.26818992206209     -0.89895180730326      1.11955012939862
  C   0.26313546966326      1.41626047499124      0.46131279053144
  N   0.33572011539655      2.38645313947517      1.11955467326967
