16
Coordinates from ORCA-job run
  C   -0.48987252378665      0.11083855922040      0.53095173941806
  C   0.62253299662283      0.01844574616183     -0.54160082672120
  H   -0.07881537972017     -0.29537778944006      1.46665809795074
  H   0.18820403827988      0.35187108223419     -1.49112591084916
  C   -1.75114238264550     -0.66634696424065      0.14637190204874
  H   -2.17528800937257     -0.25961542809238     -0.77461529805414
  H   -1.49319174348073     -1.71001746211431     -0.02443334175670
  H   -2.50769296978035     -0.59911344400903      0.93050533245866
  C   -0.80144534070818      1.52119657092056      0.77214327714091
  N   -1.04598840555754      2.65967126773381      0.92464809354555
  N   0.97499636225238     -1.38046716450519     -0.68770692131061
  H   1.68562107073901     -1.44854750416321     -1.40783183028845
  H   1.40126822372826     -1.70939361201131      0.17388937204433
  N   1.78453760626561      0.86420750641959     -0.29659290884040
  H   1.53623072897779      1.84572404184290     -0.35684811972524
  H   2.15004572818591      0.69692459404287      0.63558734293890
