14

C	0.0	0.0	0.0
C	-0.457527	-0.04724	-1.485924
Cl	1.790037	0.0	0.0
H	0.427849	0.052248	-2.12031
H	-0.260273	1.005974	0.341066
N	-0.556284	-1.064886	0.771656
H	-0.355671	-0.881238	1.749809
H	-1.58002	-0.894203	0.62392
N	-1.344334	1.077358	-1.757176
H	-2.163639	0.86657	-1.143597
H	-1.641151	1.015316	-2.726058
C	-1.028707	-1.369209	-1.839685
N	-1.439273	-2.376118	-2.285103
F	-2.859744	0.0	0.0
