14

C	0.0	0.0	0.0
C	-0.534291	0.168114	-1.428357
Cl	1.774751	0.0	0.0
H	-1.61875	0.292234	-1.218355
H	-0.284689	0.902943	0.54888
N	-0.572929	-1.206911	0.52601
H	-1.599768	-0.958573	0.450028
H	-0.331533	-1.274354	1.508707
N	-0.219641	-1.016437	-2.239634
H	-1.007453	-1.173133	-2.859262
H	-0.222125	-1.786836	-1.574637
C	-0.004427	1.377369	-2.061423
N	0.361452	2.368141	-2.576521
F	-2.840425	0.0	0.0
