14

C	0.0	0.0	0.0
C	-0.448863	0.071478	-1.485631
Cl	1.825995	0.0	0.0
H	0.439053	0.222999	-2.104858
H	-0.241149	0.980359	0.420055
N	-0.554821	-1.116255	0.685635
H	-1.579648	-0.935436	0.538256
H	-0.365422	-1.004853	1.676088
N	-1.333841	1.212542	-1.668924
H	-2.157466	0.953338	-1.079603
H	-1.62143	1.232693	-2.641387
C	-1.0158	-1.217512	-1.946038
N	-1.424028	-2.187218	-2.470495
F	-2.847882	0.0	0.0
