14

C	0.0	0.0	0.0
C	-0.34716	-0.021474	-1.529029
Cl	1.78272	0.0	0.0
H	0.479807	-0.541902	-2.030005
H	-0.331556	0.951907	0.405677
N	-0.541402	-1.055668	0.782948
H	-1.571081	-0.790187	0.61757
H	-0.345417	-1.935978	0.296066
N	-0.329373	1.362103	-2.012864
H	-0.345075	1.364551	-3.028949
H	-1.180867	1.788502	-1.690751
C	-1.538876	-0.784261	-1.962957
N	-2.285472	-1.498281	-2.506781
F	-2.686754	0.0	0.0
