13
Coordinates from ORCA-job run
  C   -0.39443859292501      1.23024583145370      0.49655262371524
  C   0.14067229209261     -0.17269206247549      0.34992497934179
  F   0.51072688607524      1.99857003314918      1.20834049626661
  H   0.41815534817394     -0.57137101295849      1.32622225687463
  H   -1.33658936959947      1.20718937569167      1.05009457134972
  H   -0.54101938245244      1.68948777484983     -0.48192660355680
  N   1.42711318834043     -0.11996109113069     -0.42389218177265
  O   1.39512341060808      0.45136250413316     -1.51112076689760
  O   2.40376364724892     -0.67861667532399      0.06727838219105
  C   -0.82490024222107     -1.08589936615577     -0.38560882462239
  H   -1.74841046991973     -1.19337386990477      0.18671119149775
  H   -1.06196827640147     -0.67684103659607     -1.36884795655613
  H   -0.38722843902003     -2.07710040473227     -0.51472816783122
