13
Coordinates from ORCA-job run
  C   -0.43250247413178      1.29497686013423      0.23550909769701
  C   0.17488205593699     -0.09292612644685      0.36786671483846
  F   -1.56931543235323      1.33176908287464      1.02829751831778
  H   0.42790558932690     -0.28254006610939      1.41140414345937
  H   0.25923200229240      2.06235866319810      0.59087908869907
  H   -0.72000517201600      1.49965373554135     -0.79575867475927
  N   1.47869636696377     -0.09307428382010     -0.36367313693962
  O   1.45399022454094      0.30143895576565     -1.52966550582071
  O   2.47311437887626     -0.49529238414845      0.23510504799174
  C   -0.71765568845205     -1.18258335720310     -0.19439314155978
  H   -1.66840249714137     -1.17571595813093      0.33940058860848
  H   -0.90496289432551     -1.00658465875685     -1.25500443057563
  H   -0.25497645951733     -2.16348046289828     -0.07096730995691
