13
Coordinates from ORCA-job run
  C   -0.52463764397231      1.26023061601143      0.22999917154515
  C   0.15745809143334     -0.07738750037434      0.37591035393631
  F   0.29012510465577      2.25391987509346      0.74461196427117
  H   0.47447836411713     -0.22578805300841      1.40865082851933
  H   -1.46164930649400      1.25727779269537      0.79264654717815
  H   -0.71465463757074      1.48091393529706     -0.82121158556213
  N   1.43278573050476     -0.05891296416354     -0.41837926669241
  O   2.46161625833745     -0.39554403541313      0.16068609776087
  O   1.34286610809148      0.26015341920733     -1.60141915043909
  C   -0.70374981914211     -1.22327956664905     -0.12669736178276
  H   -1.60866799430509     -1.30505569142888      0.47861864394508
  H   -0.98642941769567     -1.05954349023187     -1.16766685430718
  H   -0.16054083796002     -2.16698433703543     -0.05574938837247
