12

C	-0.554029	-0.162069	-1.39561
C	0.0	0.0	0.0
F	-0.09497	-1.345866	-1.959319
H	1.094028	0.0	0.0
H	-1.644924	-0.244769	-1.340852
H	-0.35219	0.961063	0.388085
C	-0.212953	0.956406	-2.289948
N	0.018707	1.855448	-3.006938
N	-0.56363	-1.083407	0.82342
H	-0.055049	-1.924709	0.571505
H	-0.302345	-0.893496	1.78517
Br	3.649887	0.0	0.0
