12

C	-0.491876	0.039295	-1.427293
C	0.0	0.0	0.0
F	-1.888967	0.151989	-1.446322
H	1.093264	0.0	0.0
H	-0.087664	0.922311	-1.925676
H	-0.351762	-0.927556	0.471935
C	-0.151331	-1.172589	-2.191334
N	0.081733	-2.134897	-2.821351
N	-0.447269	1.222268	0.664589
H	-1.333815	1.077855	1.127055
H	0.242599	1.479412	1.357591
Br	3.596802	0.0	0.0
