12

C	-0.572796	0.01169	-1.404225
C	0.0	0.0	0.0
F	-0.14319	-1.084788	-2.132755
H	1.098011	0.0	0.0
H	-1.664633	-0.034616	-1.342863
H	-0.347282	-0.924167	0.471249
C	-0.224364	1.242754	-2.136961
N	0.044763	2.214134	-2.736927
N	-0.573801	1.159715	0.703044
H	0.066436	1.935911	0.57137
H	-0.563051	0.966019	1.696583
Br	3.656685	0.0	0.0
