12

C	-0.556127	0.003181	-1.404275
C	0.0	0.0	0.0
F	-0.097514	-1.106105	-2.104889
H	1.099525	0.0	0.0
H	-1.646589	-0.086951	-1.358155
H	-0.350934	0.909196	0.498861
C	-0.217017	1.222563	-2.156288
N	0.014314	2.226104	-2.718235
N	-0.563843	-1.171809	0.691346
H	-0.270251	-1.114218	1.660565
H	-0.079165	-1.981965	0.318452
Br	3.655626	0.0	0.0
