12

C	-0.491727	0.046793	-1.42674
C	0.0	0.0	0.0
F	-1.889207	0.152737	-1.445784
H	1.096359	0.0	0.0
H	-0.091798	0.93526	-1.919041
H	-0.350674	-0.930341	0.466975
C	-0.146412	-1.158643	-2.198628
N	0.075614	-2.120967	-2.832211
N	-0.447643	1.218146	0.672689
H	-1.329312	1.066478	1.142572
H	0.246749	1.474987	1.361463
Br	3.599998	0.0	0.0
