12

C	-0.503327	-0.013449	-1.437965
C	0.0	0.0	0.0
F	-0.024799	-1.130596	-2.108086
H	1.093286	0.0	0.0
H	-1.597202	-0.093838	-1.451859
H	-0.347679	0.925243	0.472651
C	-0.131678	1.195917	-2.190935
N	0.133242	2.172553	-2.786938
N	-0.445814	-1.158669	0.762764
H	0.152489	-1.941711	0.533486
H	-1.39914	-1.411782	0.527914
Br	3.639054	0.0	0.0
