12

C	-0.471512	0.012142	-1.435562
C	0.0	0.0	0.0
F	-0.166016	1.234895	-2.023332
H	1.100415	0.0	0.0
H	0.044611	-0.763134	-2.008748
H	-0.337746	-0.938378	0.452561
C	-1.929906	-0.187021	-1.548111
N	-3.082745	-0.389121	-1.628819
N	-0.609876	1.125533	0.712763
H	-0.348728	1.048195	1.688889
H	-0.156343	1.967128	0.374833
Br	3.658408	0.0	0.0
