12

C	-0.469034	0.01347	-1.437822
C	0.0	0.0	0.0
F	-1.79708	0.435984	-1.53542
H	1.100488	0.0	0.0
H	0.139711	0.71309	-2.018022
H	-0.333433	0.948009	0.432618
C	-0.386435	-1.319245	-2.060178
N	-0.336683	-2.381896	-2.555381
N	-0.602569	-1.117729	0.734283
H	0.034053	-1.904741	0.669851
H	-0.639195	-0.872834	1.715811
Br	3.63234	0.0	0.0
