12

C	-0.511616	0.01806	-1.434643
C	0.0	0.0	0.0
F	-0.103817	-1.110009	-2.128262
H	1.092506	0.0	0.0
H	-1.609661	0.010917	-1.44271
H	-0.349226	-0.93137	0.456824
C	-0.083827	1.224159	-2.165973
N	0.183036	2.20495	-2.752429
N	-0.457107	1.151303	0.768436
H	0.152739	1.938043	0.588943
H	-1.407921	1.416305	0.539836
Br	3.632078	0.0	0.0
