14

C	-0.390356	-0.012777	-1.472652
C	0.0	0.0	0.0
Cl	0.228564	1.479176	-2.27616
H	1.093458	0.0	0.0
H	-0.395004	0.926673	0.430174
C	0.184092	-1.174333	-2.165279
N	0.575337	-2.131112	-2.723119
C	-1.84725	-0.035709	-1.678235
N	-3.019692	-0.056045	-1.772264
C	-0.51058	-1.23228	0.732692
H	-1.599781	-1.359884	0.702004
H	-0.036912	-2.131956	0.331005
H	-0.204942	-1.157854	1.779294
F	2.603162	0.0	0.0
