14

C	-0.383995	0.021026	-1.473975
C	0.0	0.0	0.0
Cl	0.234871	-1.466826	-2.282406
H	1.093575	0.0	0.0
H	-0.396759	-0.928514	0.423676
C	-1.839369	0.047655	-1.686393
N	-3.010658	0.06905	-1.784875
C	0.198149	1.183519	-2.157996
N	0.647755	2.107717	-2.726107
C	-0.512192	1.22837	0.736752
H	-0.203199	1.153185	1.782335
H	-1.601684	1.35237	0.708302
H	-0.042921	2.131208	0.336384
F	2.601765	0.0	0.0
