12
Coordinates from ORCA-job run
  C   -0.33841397419318      0.11401413544186      0.09468301494422
  C   0.78707110058605     -0.50847287494247     -0.29461173739594
  H   0.79008931546464     -1.43714571236740     -0.85081999368223
  C   -1.69233607559314     -0.47630449628953     -0.19406714520172
  H   -2.28242557911264      0.21695920506192     -0.79821556158944
  H   -1.60358795678341     -1.42384521028349     -0.72665273199105
  H   -2.23373094838562     -0.64246517928023      0.74021397343189
  C   -0.35020235800355      1.36737726777657      0.79017811219197
  N   -0.51476711908052      2.39195543242232      1.34550541191392
  N   2.13195026568680      0.01153154644788     -0.08038485609644
  O   2.30363322422309      0.89117168721362      0.75801734231550
  O   3.00272010519149     -0.50277580120104     -0.78384582884067
