12
Coordinates from ORCA-job run
  C   -0.25157871339406      0.42825648535463      0.31327203587554
  C   1.06384966566530      0.28096357576272      0.05963039984660
  H   1.83315092349927      0.93354313060534      0.45320213713996
  C   -1.38795903529941     -0.44716708266751     -0.14144067940452
  H   -1.09236752294070     -1.49338392432579     -0.18604717928368
  H   -1.69993509038677     -0.15383617595453     -1.14691124923203
  H   -2.23548779904508     -0.33042829429917      0.53378060283697
  C   -0.59630235816463      1.57989917286883      1.09785045842721
  N   -0.91177421071927      2.51687014020354      1.73682834491468
  N   1.60842101626542     -0.82477972815100     -0.71197598590717
  O   2.77966207565884     -1.11136605531971     -0.46437433422353
  O   0.89032104886110     -1.37857124407736     -1.54381455099003
