12
Coordinates from ORCA-job run
  C   -0.32034267526711      0.13222915418764      0.12903279155519
  C   0.73482305790865     -0.53192217780133     -0.37263510110248
  H   0.65365037671306     -1.50686698352548     -0.83614830278176
  C   -1.70004126317269     -0.46853080744832      0.09383780570579
  H   -2.37670427099360      0.18121039012311     -0.46625552122869
  H   -2.09430140245922     -0.55744043631565      1.10890076388966
  H   -1.68916181985567     -1.45501103678230     -0.37098344043561
  C   -0.23604749620030      1.43421441446997      0.72275134075896
  N   -0.33141436154344      2.49378877914768      1.22615734072211
  N   2.10093538773511     -0.02429913310392     -0.39688945512437
  O   2.36488938919251      1.00767396885103      0.21214643932344
  O   2.89371507794270     -0.70504613180243     -1.04991466128223
