12
Coordinates from ORCA-job run
  C   -0.27718551451139      0.46975444311201      0.30063932147578
  C   1.05507626188251      0.30152710742649      0.20768827070218
  H   1.82108031922924      0.86547969475905      0.75251298602602
  C   -1.30664199633591     -0.38908796543863     -0.39351320565076
  H   -1.61068479298772      0.07339936669311     -1.33162831719486
  H   -2.17009821678786     -0.49387929552487      0.25649507221109
  H   -0.92873607796803     -1.38380147900885     -0.62964936679263
  C   -0.74892033607917      1.44158478121187      1.24727631534094
  N   -1.08925888901790      2.19520979436210      2.08516072084133
  N   1.60618269707617     -0.75766584987671     -0.62248805614156
  O   2.42283636019926     -1.50469359538836     -0.07658739298544
  O   1.22535018530079     -0.81882700232722     -1.79690634783211
