12
Coordinates from ORCA-job run
  C   -0.32151953314280      0.12504001261355      0.13238749867347
  C   0.73402683557944     -0.51790010790186     -0.39534429023874
  H   0.64602563513035     -1.43946276738024     -0.95658116850616
  C   -1.71420069449896     -0.42918719935827     -0.00310435399986
  H   -2.35389543452664      0.28953248516912     -0.52072482538392
  H   -1.71317971067340     -1.36806671735297     -0.55792260255048
  H   -2.14507161628753     -0.60091122982764      0.98612507646253
  C   -0.22322090571731      1.36343586376877      0.84782178825785
  N   -0.30514918374774      2.37430204678483      1.44498383736842
  N   2.11053845190974     -0.04217433765578     -0.33159464899086
  O   2.89733417080646     -0.63768067873673     -1.06939258441133
  O   2.38731198516839      0.88307262987724      0.42534627331907
