12
Coordinates from ORCA-job run
  C   -0.26134478980527      0.45717035503006      0.26268769726852
  C   1.05114321137375      0.32951212141799     -0.01573214726442
  H   1.80292136673970      1.05770314728038      0.26161098145930
  C   -1.36973453711204     -0.51696645272757     -0.03252672749455
  H   -1.71144445938588     -0.38790119219220     -1.06240534442107
  H   -1.03264891254176     -1.54669335931265      0.06959363851832
  H   -2.20866630523928     -0.33493598143944      0.63898434263012
  C   -0.63218687162303      1.68727285012795      0.90267450330696
  N   -0.96829406864577      2.68745411785053      1.42459762035135
  N   1.61945012390945     -0.84654708986336     -0.65477131228528
  O   0.90005927668312     -1.53455863527180     -1.37836597610078
  O   2.80974596564699     -1.05050988089987     -0.41634727596847
