12
Coordinates from ORCA-job run
  C   -0.32043342630862      0.14397554313393      0.11465350164724
  C   0.73269600539677     -0.57001089561711     -0.31763053971578
  H   0.64534009779227     -1.57292054998253     -0.71564550531723
  C   -1.70914858447944     -0.43569727804131      0.09639174237177
  H   -2.12214439218779     -0.44418168585336      1.10790549686266
  H   -1.70823389336232     -1.45365978385088     -0.29483357938630
  H   -2.36458645587360      0.18266654679849     -0.52140748485375
  C   -0.22469144128485      1.48433699282969      0.61346621726855
  N   -0.30951505090125      2.58069208003480      1.03317456418403
  N   2.10624231988835     -0.08283462364498     -0.35479035424807
  O   2.38059483581002      0.97315985564969      0.20649688097781
  O   2.89387998551046     -0.80552620145642     -0.96778093979094
