12
Coordinates from ORCA-job run
  C   -0.28593435508403      0.50849861127910      0.06612540298266
  C   0.96049991244766      0.34164441779689     -0.41852840641369
  H   1.61134479061008      1.15699506006275     -0.70879912293063
  C   -1.24576753143466     -0.54793937564613      0.54205037907012
  H   -1.79292130001102     -0.96066265498247     -0.30920843550347
  H   -1.96253266744849     -0.10869599492655      1.23580202352116
  H   -0.72461567279440     -1.37308099398387      1.02328291117933
  C   -0.74670225883680      1.86739870166251      0.10873380208231
  N   -1.15363777630809      2.97097529153082      0.15655048652733
  N   1.60427184372116     -0.95716840162786     -0.53339709295180
  O   2.83481602960958     -0.93690027088300     -0.50922326036617
  O   0.90117898552901     -1.96006439028220     -0.65238868719715
