12
Coordinates from ORCA-job run
  C   -0.30566840744204      0.14304394713835      0.15081090331128
  C   0.69107081110136     -0.55942286833225     -0.41412228949478
  H   0.55793035159719     -1.55521195834424     -0.81737876903343
  C   -1.68702232950806     -0.44089534078924      0.27941913651720
  H   -2.40954662787353      0.18834566489806     -0.24564836513665
  H   -1.72958298490407     -1.45013325775178     -0.13122177756247
  H   -1.98143562007735     -0.47243119796056      1.33110224504846
  C   -0.15413197689910      1.47187598527909      0.66695207479049
  N   -0.19110493399888      2.55635783113559      1.12264634203746
  N   2.05317371923480     -0.07208271842208     -0.59387856811072
  O   2.38211332356639      0.98686199081494     -0.06854476782928
  O   2.77520467520329     -0.79730807766587     -1.28013616453756
