12
Coordinates from ORCA-job run
  C   -0.32317969576637      0.06318418401990      0.16905996531549
  C   0.73876212412312     -0.30061204532960     -0.56994000600821
  H   0.66018183340587     -0.92045935837225     -1.45399470831527
  C   -1.71021856509536     -0.39709823156925     -0.19149860067938
  H   -1.69797793904423     -1.02673123542249     -1.08182393947207
  H   -2.35471169424440      0.46592863494168     -0.37450336935630
  H   -2.14340202037389     -0.96151216594117      0.63766413543151
  C   -0.23947806414615      0.89831487519054      1.33112893897481
  N   -0.33569327866570      1.57073472348851      2.29223610011771
  N   2.11383731387828      0.10580916310510     -0.30652616424233
  O   2.36635673629857      0.72867556984640      0.72002308629354
  O   2.92552324963026     -0.22723411395735     -1.17182543805950
