12
Coordinates from ORCA-job run
  C   -0.25538250665766      0.38986304020276      0.35732705773090
  C   1.06625247921680      0.24000546456467      0.14021772246474
  H   1.82729718823508      0.87128843769538      0.58147920869334
  C   -1.38900986454228     -0.39629227115472     -0.24334549572657
  H   -2.30367139918050      0.19574285350804     -0.21424206872648
  H   -1.17181993531444     -0.68927326410045     -1.26851647059036
  H   -1.54832924747002     -1.31267998727397      0.33021387191720
  C   -0.60635082510449      1.41690307432077      1.29688910535956
  N   -0.92664655597192      2.24937941188947      2.06507081115899
  N   1.61723900173990     -0.74169929474451     -0.78018128191261
  O   2.72168259594153     -0.46255517723527     -1.24654320186638
  O   0.96973906910802     -1.76068228767216     -1.01836925850234
