12
Coordinates from ORCA-job run
  C   -0.33537010014960      0.14242550482932      0.06251036195417
  C   0.77796630500725     -0.56516949296295     -0.19411128540902
  H   0.79251467087405     -1.64615582122187     -0.25076048204498
  C   -1.65913254952148     -0.54433186967795      0.26626117819166
  H   -2.05532077721578     -0.30590335923706      1.25618217980743
  H   -2.38166130217550     -0.18826932734433     -0.47194115134303
  H   -1.56091706143939     -1.62653466180439      0.17410103220619
  C   -0.36618983766551      1.57170701220915      0.16791144502817
  N   -0.55141375461486      2.72739957175638      0.29133729715700
  N   2.10291420814013      0.01197140462866     -0.38528438060596
  O   2.21474930577043      1.22963702035260     -0.48683599769836
  O   3.02186089299025     -0.80777598152755     -0.42937019724327
