12
Coordinates from ORCA-job run
  C   -0.24522368910332      0.48446200688786      0.22330451724904
  C   1.03654930510887      0.33517238963828     -0.16540324275633
  H   1.77054378391819      1.13113886884467     -0.14912178664692
  C   -1.34899122538453     -0.53759733670704      0.19279861350288
  H   -1.30457229764224     -1.15604155666714      1.09266175144834
  H   -1.25358480381182     -1.20330623877360     -0.66266280055189
  H   -2.31563253754837     -0.03487075820324      0.16397831804811
  C   -0.57652062710577      1.77909983120338      0.74757066736263
  N   -0.87891638700506      2.82922935415033      1.18514339043736
  N   1.56062422281987     -0.89878772929709     -0.72868526627145
  O   2.53815069373175     -0.76632894560687     -1.46494481448834
  O   1.01757356202243     -1.96316988546954     -0.43463934733344
