12
Coordinates from ORCA-job run
  C   -0.30504160452306      0.14998554078678      0.14587587405771
  C   0.69786988429319     -0.58249810064578     -0.36767689246571
  H   0.59434159587728     -1.62879001042602     -0.62566056574432
  C   -1.65186917389406     -0.46529093306517      0.41637105573359
  H   -1.90110109330418     -0.36679034596965      1.47556178186003
  H   -1.66493232020585     -1.52140606505463      0.14495131991274
  H   -2.42321739232368      0.05807898680539     -0.15352545241787
  C   -0.19273756627119      1.54170055159620      0.47040842374744
  N   -0.26099697867137      2.67572084107892      0.77789183938676
  N   2.02734575425334     -0.07035869433602     -0.67667719896802
  O   2.75453928347127     -0.85560134729320     -1.28731681281654
  O   2.32679961129830      1.06524957652318     -0.32120337228580
