12
Coordinates from ORCA-job run
  C   -0.32782369689221      0.13827851245024      0.10102163875474
  C   0.74881361910202     -0.50575471332519     -0.38081016584902
  H   0.68284138806275     -1.42070497712398     -0.95563046756770
  C   -1.71757145583716     -0.38144500838020     -0.15314254282618
  H   -1.69475160686071     -1.29441182069376     -0.74909945844192
  H   -2.30691133125134      0.37284244058928     -0.67992108191295
  H   -2.21857986404828     -0.58749313811205      0.79566158467383
  C   -0.25821311104898      1.33947596462027      0.88013320232103
  N   -0.36665486941851      2.31520324751755      1.52929915438643
  N   2.12964718318250     -0.08607756730867     -0.17493283620814
  O   2.97749322041237     -0.87992114791933     -0.58666821918853
  O   2.35171052459755      0.98900820768585      0.37308919185841
