15

C	0.0	0.0	0.0
C	-0.553683	0.150381	-1.418309
Cl	1.783794	0.0	0.0
H	-1.603124	0.459114	-1.291796
H	-0.342816	-0.960921	0.384675
C	-0.410929	1.045374	0.940646
N	-0.618595	1.860295	1.759955
C	-0.486097	-1.142406	-2.195532
H	-1.159604	-1.848455	-1.705382
H	0.528193	-1.545701	-2.231537
H	-0.836802	-0.991027	-3.215501
N	0.147458	1.273428	-2.117597
O	0.612744	1.071683	-3.239345
O	0.192695	2.347325	-1.522982
Br	-3.560981	0.0	0.0
