15

C	0.0	0.0	0.0
C	-0.561166	0.145588	-1.413957
Cl	1.783635	0.0	0.0
H	-1.605962	0.462896	-1.276602
H	-0.343681	-0.957397	0.392227
C	-0.402731	1.052596	0.937269
N	-0.61553	1.880145	1.741836
C	-0.512873	-1.150129	-2.185297
H	-0.869815	-0.998894	-3.203296
H	0.495808	-1.565984	-2.227754
H	-1.191868	-1.846038	-1.687234
N	0.14449	1.258671	-2.122167
O	0.149436	2.350601	-1.558163
O	0.657536	1.03233	-3.216938
Br	-3.559709	0.0	0.0
