15

C	0.0	0.0	0.0
C	-0.406323	0.063333	-1.497224
Cl	1.783967	0.0	0.0
H	0.501551	-0.141783	-2.07128
H	-0.348474	-0.934284	0.434003
C	-0.449537	1.134001	0.800693
N	-0.633906	2.043181	1.521114
C	-0.987817	1.374153	-1.973813
H	-1.118917	1.344312	-3.055542
H	-1.94654	1.546363	-1.488709
H	-0.287487	2.17695	-1.724334
N	-1.230685	-1.143005	-1.893106
O	-1.049405	-2.17785	-1.262497
O	-1.871093	-1.048107	-2.931169
Br	-3.431831	0.0	0.0
