18

C	-0.335029	0.009818	-1.463511
C	0.0	0.0	0.0
Br	-2.310209	0.108051	-1.831895
H	1.106433	0.0	0.0
N	0.204326	1.286188	-2.12707
O	0.358516	2.271921	-1.41869
O	0.426776	1.23862	-3.333392
C	0.250636	-1.178931	-2.179025
H	0.122926	-1.081797	-3.254352
H	1.317835	-1.201808	-1.916377
H	-0.233124	-2.093737	-1.839663
C	-0.356532	-1.322744	0.686666
H	-1.402394	-1.606256	0.535184
H	0.306181	-2.112274	0.328016
H	-0.173624	-1.214039	1.757481
C	-0.55003	1.09635	0.773734
N	-1.007231	1.898586	1.502607
H	2.611462	0.0	0.0
