18

C	-0.338144	-0.008663	-1.484529
C	0.0	0.0	0.0
Br	0.213278	-1.705921	-2.303971
H	1.108221	0.0	0.0
N	-1.846739	0.058043	-1.722273
O	-2.273391	0.971567	-2.428875
O	-2.547063	-0.782085	-1.163559
C	0.381071	1.113264	-2.194073
H	1.440728	1.006325	-1.932322
H	0.016606	2.074854	-1.829598
H	0.235073	1.062999	-3.272523
C	-0.447508	-1.15478	0.888769
H	-0.162842	-2.102844	0.432723
H	-1.520673	-1.158253	1.08189
H	0.096497	-1.064392	1.833517
C	-0.430703	1.269736	0.558835
N	-0.762695	2.292527	1.037683
H	2.634259	0.0	0.0
