18

C	-0.576775	0.098985	-1.409107
C	0.0	0.0	0.0
Br	0.363269	1.482535	-2.432537
H	1.105702	0.0	0.0
N	-0.307361	-1.24291	-2.092333
O	-1.249329	-2.039438	-2.085368
O	0.811126	-1.474761	-2.524732
C	-2.061911	0.400509	-1.485254
H	-2.624301	-0.324468	-0.896213
H	-2.408594	0.362053	-2.519566
H	-2.235554	1.400347	-1.087849
C	-0.338516	-1.312449	0.714667
H	-1.406999	-1.538157	0.764289
H	0.063989	-1.244713	1.728328
H	0.18844	-2.132671	0.221631
C	-0.454894	1.141031	0.77062
N	-0.805654	2.059769	1.418534
H	2.618254	0.0	0.0
