18

C	-0.350404	-0.090386	-1.460217
C	0.0	0.0	0.0
Br	-2.329588	-0.227196	-1.816604
H	1.104863	0.0	0.0
N	0.076925	1.213911	-2.132933
O	1.053303	1.157902	-2.878411
O	-0.541757	2.232635	-1.844788
C	0.346305	-1.249904	-2.123654
H	0.248845	-1.194349	-3.206893
H	-0.090089	-2.185714	-1.776622
H	1.403001	-1.198188	-1.831017
C	-0.3324	-1.269078	0.788037
H	-1.392492	-1.531803	0.729082
H	0.282859	-2.096359	0.429084
H	-0.061945	-1.10203	1.833236
C	-0.530488	1.156571	0.693518
N	-0.943141	2.029117	1.365871
H	2.587551	0.0	0.0
