18

C	-0.352058	-0.031131	-1.461231
C	0.0	0.0	0.0
Br	-2.329308	-0.218508	-1.82412
H	1.108361	0.0	0.0
N	0.037017	1.315211	-2.072099
O	1.040106	1.325399	-2.78255
O	-0.634276	2.295878	-1.770467
C	0.380289	-1.1369	-2.176254
H	0.281674	-1.034916	-3.256546
H	-0.026883	-2.100907	-1.873149
H	1.434717	-1.067857	-1.877508
C	-0.326737	-1.301344	0.735715
H	0.300216	-2.106842	0.348336
H	-1.382821	-1.572553	0.657181
H	-0.0664	-1.17375	1.788657
C	-0.512238	1.133688	0.741041
N	-0.869679	2.004141	1.447406
H	2.574993	0.0	0.0
