18

C	-0.580067	-0.121663	-1.405833
C	0.0	0.0	0.0
Br	0.369699	1.071128	-2.639125
H	1.105778	0.0	0.0
N	-0.328476	-1.556992	-1.865301
O	0.786874	-1.869859	-2.252011
O	-1.280328	-2.330229	-1.732952
C	-2.061937	0.178552	-1.526547
H	-2.629182	-0.43943	-0.830138
H	-2.22454	1.229151	-1.290258
H	-2.412641	-0.017857	-2.541817
C	-0.338707	-1.182039	0.914093
H	0.075807	-0.958479	1.899921
H	-1.408054	-1.388923	1.008707
H	0.177684	-2.07396	0.551721
C	-0.449843	1.248482	0.584464
N	-0.794367	2.256569	1.086374
H	2.619391	0.0	0.0
