17
Coordinates from ORCA-job run
  C   -0.57363275843644      0.33792625477650      0.23067034518502
  C   0.76897308506262     -0.30570184886538     -0.08093188249812
  H   -0.41582261942201      1.22693152423595      0.83887873212334
  H   0.65495935488446     -1.09127519605187     -0.83772648508746
  N   -1.35693276574970     -0.60595065427647      1.09388600184864
  O   -1.24734183737684     -1.81116458979865      0.85835876969737
  O   -2.09890572356157     -0.10681479009664      1.93249595588446
  C   -1.42042595224441      0.62547634023888     -0.99841741458210
  H   -1.59753503051842     -0.29390941973600     -1.56115804397541
  H   -0.91658010202966      1.35049515222029     -1.63597170640786
  H   -2.38158749279777      1.04503159969513     -0.69649278955354
  N   1.46337992048828     -0.70929287682942      1.12175413615438
  H   2.39430462188439     -1.02150190210795      0.86713649190328
  H   0.97961455865939     -1.50428812463700      1.52204760916560
  N   1.67687554372245      0.71438363933525     -0.73130365769346
  O   1.35451447942884      1.89831003265591     -0.73413922376009
  O   2.71814271800639      0.25234485924145     -1.19008683840405
