17
Coordinates from ORCA-job run
  C   -0.71319998601479      0.02736566098972      0.42108847407279
  C   0.77497500382754     -0.31462600226202      0.51892379549047
  H   -1.01297932494682      0.31352655197079      1.43174933354272
  H   0.88848010036082     -1.26138225664130      1.04751690165633
  N   -1.49219485692052     -1.24058774965279      0.15375346734115
  O   -2.23817605788253     -1.27359087525993     -0.81864527595787
  O   -1.33265976870396     -2.14416322762663      0.96892519729207
  C   -1.04634221245232      1.10649889442652     -0.58484484237589
  H   -0.48327633653106      2.01300123785179     -0.35200052008282
  H   -2.10775676807645      1.34799457645250     -0.54281757848665
  H   -0.81459030860235      0.79142201239417     -1.60196405444250
  N   1.50084270930067      0.71781201836581      1.16549012533179
  H   2.42831206867839      0.40113617487641      1.41505156711596
  H   1.60051075549941      1.52470481071258      0.56282184472142
  N   1.25157489272732     -0.60314476600435     -0.91077263524480
  O   1.99489534184406      0.21615651985281     -1.44331983792873
  O   0.80158474789258     -1.62012358044608     -1.42995596204542
