17
Coordinates from ORCA-job run
  C   -0.60396251802628      0.21022376485402      0.24378369872533
  C   0.76227603614888     -0.41625594956959     -0.00887246833888
  H   -0.51664526228835      0.96666090053058      1.02651411724940
  H   0.68310248762919     -1.22301965793645     -0.73720285861639
  N   -1.45213303306728     -0.87616961450137      0.83312331017264
  O   -1.61942613271089     -1.87600717762348      0.14013493852569
  O   -1.92894363123324     -0.67813259673589      1.94610588610292
  C   -1.28406763548024      0.75802707066988     -0.99659414601858
  H   -1.31891130971446      0.00179251890386     -1.78139422657626
  H   -2.30302631621926      1.06641187026127     -0.75504582649571
  H   -0.74740494378001      1.63141043125180     -1.36939791410935
  N   1.33401027483517     -0.87293484541130      1.20283771057084
  H   2.17463975224260     -1.41381016681524      1.05183891816412
  H   1.52781534208003     -0.10489875364858      1.83310755976629
  N   1.57540920543356      0.66962865122242     -0.70964962555993
  O   1.97725274877618      1.58791553812614      0.00328360233484
  O   1.73901493537441      0.56715801642193     -1.92257267589696
