16

C	0.034076	0.025432	-0.046733
C	-0.566198	-0.142528	-1.453848
F	1.344669	-0.414609	-0.088496
H	0.164143	0.315242	-2.136173
H	-0.561283	-1.22268	-1.634993
N	0.131246	1.517053	0.210243
O	-0.852498	2.05681	0.71522
O	1.143047	2.102414	-0.169483
C	-0.70513	-0.658006	1.067109
H	-0.481998	-1.723931	0.991767
H	-0.377846	-0.285353	2.041007
H	-1.78647	-0.566001	0.935818
N	-1.89937	0.34256	-1.678764
H	-2.581175	-0.288586	-1.19517
H	-2.017191	1.277595	-1.307094
H	-3.472344	-1.405975	-0.28836
