17
Coordinates from ORCA-job run
  C   0.86561464634566      0.28478470166428      0.16680068797319
  C   -0.58430052122930      0.04756038098647     -0.27079269323704
  F   1.64722273236580     -0.62025187381330     -0.48938511614731
  H   -1.18359242539971      0.78144794499008      0.27676970185666
  N   0.96264572473856     -0.03270258260124      1.65185255421250
  O   0.41037038511011      0.77918678202993      2.39238571686423
  O   1.51783677720719     -1.06685196212122      1.99026013850886
  N   1.38734516650347      1.58514032189880     -0.02652278357572
  H   1.03742429055495      1.91845506637972     -0.91878910127864
  H   1.06723137749048      2.19599295962649      0.71383714289031
  C   -1.07183096702480     -1.36172011466791      0.04849770142160
  H   -1.09541813436521     -1.55607775313250      1.12339241397839
  H   -2.08566231172823     -1.49427252637373     -0.33627273799537
  H   -0.42244920385546     -2.10542353553407     -0.41807192166078
  N   -0.61996462977748      0.41214884178934     -1.68551419152147
  H   -1.57330861395359      0.58649555973998     -1.97612166906954
  H   -0.26016429298242     -0.35391221086112     -2.24332584321986
