9
Coordinates from ORCA-job run
  C   0.89579761124039      0.14229362013718     -0.31278375896687
  C   -0.44423579545383      0.23052934052882     -0.10135750478613
  H   1.37736766389627      0.83041923243505     -1.00182898891224
  C   1.70222365173157     -0.82960379971838      0.34125926687288
  N   2.38775478941917     -1.62686059212985      0.87275763919622
  C   -1.13510533631463     -0.64740407218773      0.79435156882561
  N   -1.70835472718647     -1.36611199253717      1.52949909965574
  C   -1.22029657842394      1.22416810688392     -0.78152443469495
  N   -1.85515127890851      2.04157015658816     -1.34137288719027
