9
Coordinates from ORCA-job run
  C   0.73803726472425     -0.61313297649480      0.02548486507880
  C   -0.50538607964422     -0.06351553734385      0.02808019736336
  H   0.84914624395725     -1.68952277181741      0.12128571051035
  C   1.91339592590161      0.17697290202925     -0.10376199148846
  N   2.89772008206347      0.81545484910929     -0.21111620106522
  C   -1.66384447345363     -0.89580112144503      0.16065943087657
  N   -2.61226904556833     -1.58307793591386      0.27373453561879
  C   -0.71765669095067      1.34706824734095     -0.09575593915904
  N   -0.89914322702973      2.50555434453547     -0.19861060773516
