9
Coordinates from ORCA-job run
  C   0.71664295943494     -0.63943413127512     -0.03917291117966
  C   -0.50664712828697     -0.05035017581281      0.03042695208075
  H   0.79285238935759     -1.72306000673975     -0.03151366267011
  C   1.91636308074085      0.11994897558701     -0.12167345122154
  N   2.91962901984065      0.73396692201330     -0.18829414276815
  C   -1.69260039559735     -0.84937632716583      0.11502968752601
  N   -2.66691250372350     -1.50528307898462      0.18707645374300
  C   -0.66943509862920      1.37235975729869      0.02541222238695
  N   -0.80889232313700      2.54122806507912      0.02270885210275
