9
Coordinates from ORCA-job run
  C   0.74650897427062     -0.58840942697867      0.13397572568745
  C   -0.50522437504578     -0.07314158449734      0.00765009820512
  H   0.87307977892819     -1.64541422143041      0.35052659098988
  C   1.91247632562596      0.21320209677291     -0.00969523729247
  N   2.89182542371561      0.85769655276455     -0.12631468981721
  C   -1.65414970712006     -0.91600271411164      0.15530796303004
  N   -2.59872324032097     -1.60753566477013      0.27352823610588
  C   -0.73539388640649      1.31144978413818     -0.27649921379350
  N   -0.92939929364711      2.44915517811255     -0.50847947311519
