9
Coordinates from ORCA-job run
  C   0.90093997627134      0.12097976726077     -0.30729988866704
  C   -0.44506097227590      0.20882861396053     -0.13796823563060
  H   1.38863189479056      0.73265755909536     -1.06110542991835
  C   1.70605969798470     -0.75288702871605      0.47434273661388
  N   2.39054997518122     -1.46982419123680      1.11121936191848
  C   -1.14390172707620     -0.57098923897999      0.83867624342861
  N   -1.72414237057098     -1.20927290838492      1.63955985443644
  C   -1.21933225432882      1.10267949747697     -0.94645828236202
  N   -1.85274421997592      1.83782792952414     -1.61196635981937
