9
Coordinates from ORCA-job run
  C   0.70321991203939     -0.63158930716231     -0.16570667576624
  C   -0.50793518478266     -0.04393160659929      0.02333252939603
  H   0.75625793604185     -1.69471560279095     -0.38274382915392
  C   1.91949004504428      0.10209647797199     -0.09397058482462
  N   2.93812620195491      0.69173809760792     -0.04327752077228
  C   -1.70976367486202     -0.81876068698552     -0.06297205767282
  N   -2.69615889828196     -1.45623698567716     -0.13517412904241
  C   -0.64281739352398      1.35234169276848      0.31096773069520
  N   -0.76141894362980      2.49905792086685      0.54854453714106
