9
Coordinates from ORCA-job run
  C   0.87697340402787      0.14695266911602     -0.36100183706256
  C   -0.45713245436534      0.20205531952106     -0.10549564063609
  H   1.30483185198723      0.79011235803771     -1.12481508500154
  C   1.74648605911271     -0.72890107649071      0.34620235696290
  N   2.48258664786658     -1.44743994712919      0.92043347211999
  C   -1.07755573271990     -0.61867102240606      0.89048588925024
  N   -1.59203297176900     -1.28875967212734      1.71006034659303
  C   -1.29781376846598      1.10167594545582     -0.83750139573842
  N   -1.98634303567417      1.84297542602269     -1.43836810648755
