9
Coordinates from ORCA-job run
  C   0.86747532435342      0.10973019062454     -0.39585813004135
  C   -0.45268789318080      0.21866093697576     -0.08993274596129
  H   1.28532791109717      0.71417670764823     -1.19588761028363
  C   1.73290053464261     -0.78097181813931      0.29754031801846
  N   2.46562598796531     -1.51207520069266      0.86013927220432
  C   -1.29185266843884      1.12463681870107     -0.81581958135815
  N   -1.98035883393496      1.86719229354171     -1.41518947913237
  C   -1.06057359743931     -0.55361495103201      0.95148840672809
  N   -1.56485676506460     -1.18873497762733      1.80451954982591
