9
Coordinates from ORCA-job run
  C   0.75475900896395     -0.59221950650264      0.02249523280998
  C   -0.50414006715105     -0.07982934318654     -0.00650556981897
  H   0.89600978678975     -1.66892293077313      0.05084126342266
  C   1.90956444326390      0.23807263665423      0.01957819107831
  N   2.87873768925560      0.90795750686782      0.01550817127216
  C   -0.75437839875644      1.32962158622653     -0.04202340422910
  N   -0.96777616959725      2.48695644708655     -0.06514172790160
  C   -1.64070053424726     -0.95176517340665     -0.00126769762269
  N   -2.57207575852120     -1.67087122296616      0.00551554098924
