9
Coordinates from ORCA-job run
  C   0.87297199021906      0.12345037287116     -0.37998376862770
  C   -0.45474594168070      0.20906906648638     -0.10068756392039
  H   1.29617130053153      0.73413643545650     -1.17285382113832
  C   1.74050460883426     -0.74746870481702      0.33531427241051
  N   2.47501499118767     -1.46236074206858      0.91616543017662
  C   -1.29535862743311      1.09914477430274     -0.84446952803263
  N   -1.98405043228688      1.83117467794909     -1.45646955806555
  C   -1.06926832111020     -0.57324697115788      0.92901094900395
  N   -1.58023956826163     -1.21389890902238      1.77397358819352
