9
Coordinates from ORCA-job run
  C   0.73283016175778     -0.60581372741329      0.13131722385471
  C   -0.50674651292708     -0.06370679010766     -0.00170691580968
  H   0.83657450339114     -1.66886239300229      0.32940278581579
  C   1.91543374247532      0.17610440760134      0.01778542731146
  N   2.90711566824183      0.80564123387401     -0.07326427850849
  C   -1.67379147901922     -0.88584514619177      0.11784775602106
  N   -2.63100784800866     -1.56285813958459      0.21768433588167
  C   -0.70556579175072      1.33001585069216     -0.26369744296253
  N   -0.87484244416040      2.47532470413210     -0.47636889160399
