9
Coordinates from ORCA-job run
  C   0.89519326910938      0.10891379279016     -0.32676715051473
  C   -0.44154651161939      0.23256398827613     -0.11179816270599
  H   1.38436408022754      0.75152827139409     -1.05335582984145
  C   1.68853681213062     -0.84101766862532      0.37411920718077
  N   2.36073359422698     -1.62166795815368      0.94578730364340
  C   -1.20385771651145      1.20455803405133     -0.83731879672495
  N   -1.82549686336613      2.00502381631927     -1.43519447787859
  C   -1.14033966507050     -0.58504129490834      0.83350255657119
  N   -1.71658699912704     -1.25386098114363      1.61202535027035
