9
Coordinates from ORCA-job run
  C   0.90819380940894      0.22150884210065     -0.21444909536816
  C   -0.44904415402933      0.19882675739142     -0.14091254404217
  H   1.40029683567274      0.96391975415996     -0.83660377919765
  C   1.71994355854573     -0.70314065471244      0.49893650630475
  N   2.41066131035503     -1.45837414006818      1.08254595679990
  C   -1.15407034017256     -0.75721900027499      0.65845611846542
  N   -1.74004630271806     -1.54325462254870      1.30997643985445
  C   -1.22907508950944      1.14889430504451     -0.87610068722629
  N   -1.86885962755306      1.92883875890777     -1.48184891559025
