9
Coordinates from ORCA-job run
  C   0.72138886676300     -0.61684662969586     -0.13989837343042
  C   -0.50465213339244     -0.06088827086141      0.04981397555077
  H   0.81135461564783     -1.69358046303801     -0.25355806376715
  C   1.90674115552236      0.16730220496034     -0.19520077105147
  N   2.90015673809756      0.79882239027824     -0.24400343985805
  C   -1.67393372484962     -0.88703404494632      0.09935881237426
  N   -2.63291608563465     -1.56768323048792      0.13987496373574
  C   -0.68631064525869      1.35067955498693      0.20685525797788
  N   -0.84182878689536      2.51022848880400      0.33675763846844
