9
Coordinates from ORCA-job run
  C   0.76785165549248     -0.57537813787746      0.03020065490493
  C   -0.50220375456824     -0.09078835978885      0.00677546926590
  H   0.93325202758656     -1.64747768018465      0.08906563638571
  C   1.90363104323347      0.27930925584842     -0.02047468145798
  N   2.85724638451952      0.97000630279401     -0.06073669362793
  C   -1.61945779911058     -0.98573010188112      0.06066773858621
  N   -2.53466188388035     -1.72383937198413      0.10623139558848
  C   -0.78279722085412      1.31114148319823     -0.07242303585627
  N   -1.02186045241873      2.46175660987557     -0.13930648378906
