9
Coordinates from ORCA-job run
  C   0.90419802028819      0.14560381042020     -0.28750543537348
  C   -0.44192706902655      0.22780372155724     -0.11681092301623
  H   1.40284516113967      0.83193663274474     -0.96613132196736
  C   1.69575721482586     -0.81688297471114      0.39808959314908
  N   2.36955699588073     -1.60551537996194      0.95683847043217
  C   -1.15404862033476     -0.64880572009828      0.76353993793728
  N   -1.74446469586305     -1.36587847707630      1.48653171582270
  C   -1.20347537843911      1.21212792104428     -0.82611822713696
  N   -1.82844162847098      2.02061046608121     -1.40943380984718
