9
Coordinates from ORCA-job run
  C   0.74391901569763     -0.60715300957807      0.01317810452028
  C   -0.50539202990849     -0.07111501774795      0.00634324293409
  H   0.86599915212021     -1.68612783620540      0.04631751393235
  C   1.91320143149732      0.20188243362799     -0.02131363351829
  N   2.89391929699315      0.85422185970282     -0.04763957946055
  C   -1.65884214511154     -0.91987229868046      0.04133185541228
  N   -2.60633380503092     -1.61701139619436      0.06913839895918
  C   -0.72808537708404      1.34285933642619     -0.03652776783929
  N   -0.91638553917331      2.50431592864924     -0.06982813494004
