9
Coordinates from ORCA-job run
  C   0.69198459172047     -0.64180573240152     -0.16920998158079
  C   -0.50795077244689     -0.03738680106554      0.03814265807000
  H   0.72969210749387     -1.71205473457540     -0.35135658259361
  C   1.91621167838407      0.08215395700816     -0.15544367313545
  N   2.94159999718365      0.66218270128539     -0.14762718575637
  C   -1.71707963208895     -0.80524081701702      0.01669593431275
  N   -2.70759136532949     -1.44019950595811     -0.00037366372312
  C   -0.62243920731206      1.36856539849398      0.28344629571992
  N   -0.72342739760468      2.52378553423004      0.48572619868667
