9
Coordinates from ORCA-job run
  C   0.81784433623131      0.06769810456585     -0.44113097899030
  C   -0.46500457705995      0.24150915531586     -0.04104671313923
  H   1.18070802572870      0.60517307658537     -1.31882628677353
  C   1.72599297765907     -0.76580825128405      0.27003075774015
  N   2.50095816916430     -1.48344377386380      0.79514753781524
  C   -1.03187406762704     -0.46989958398239      1.06851050944045
  N   -1.46663876053271     -1.12652625462548      1.94385673830115
  C   -1.34016990266104      1.06074738978059     -0.82706983078509
  N   -1.92281620090265      1.87055013750806     -1.44947173360883
