9
Coordinates from ORCA-job run
  C   0.87261619922186      0.10935116893116     -0.38419713762400
  C   -0.44970914560119      0.22430330317924     -0.09014367726363
  H   1.30615965641045      0.73202209720052     -1.16179146721595
  C   1.72106639896683     -0.80789655912990      0.29511546279945
  N   2.44029381255708     -1.56138328574203      0.84538673736461
  C   -1.27056895218792      1.15947462246339     -0.79985168723534
  N   -1.94322603731236      1.92767988279615     -1.38457090100467
  C   -1.07774508758542     -0.56786528023010      0.92405175185934
  N   -1.60088684446933     -1.21568594946844      1.75600091832019
