9
Coordinates from ORCA-job run
  C   0.87442639051853      0.09663998631825     -0.38451484616261
  C   -0.44780416613789      0.22469616079009     -0.09562972979580
  H   1.31318733210719      0.70140678000517     -1.17326397466017
  C   1.71630544818149     -0.81193609944362      0.31438909094020
  N   2.42968655148744     -1.55912294303433      0.88088499917001
  C   -1.08314058030741     -0.54390825579155      0.93201888122908
  N   -1.61223917212264     -1.17357977280771      1.77418606333748
  C   -1.26171882991546      1.15142933138865     -0.82430921526721
  N   -1.92870297381125      1.91337481257504     -1.42376126879097
