9
Coordinates from ORCA-job run
  C   0.72510726096940     -0.62178028155773     -0.09639053646594
  C   -0.50608879309239     -0.05936391657641      0.02985754242549
  H   0.81642305620027     -1.70055066830706     -0.18667822534422
  C   1.91392568189731      0.15863627996985     -0.11589835055104
  N   2.90964386934496      0.78813041908610     -0.13564055901500
  C   -1.67935575884112     -0.88108679726563      0.04552744519662
  N   -2.64172798514775     -1.55807318686922      0.05797911402419
  C   -0.69001725077443      1.35548476301104      0.15142741717227
  N   -0.84891008055626      2.51760338850906      0.25081615255763
