9
Coordinates from ORCA-job run
  C   0.89233463118532      0.14609912664607     -0.32191089810383
  C   -0.44831059975141      0.21889823760215     -0.10856100107545
  H   1.36042492956464      0.81857985133021     -1.03507273215779
  C   1.71726704334647     -0.78779210072069      0.36377501990506
  N   2.41769194833613     -1.55349403697090      0.92153277774210
  C   -1.24366401268463      1.17509566712851     -0.81952182255547
  N   -1.89492968695134      1.96193483806764     -1.40378629504281
  C   -1.12112981848637     -0.63839208844852      0.82033791766684
  N   -1.68068443455881     -1.33992949463446      1.58220703362135
