9
Coordinates from ORCA-job run
  C   0.87362384583987      0.07198758773589     -0.39099495661102
  C   -0.44935122259727      0.21450688364038     -0.11237632040817
  H   1.30827314348042      0.61353865154650     -1.22637404210533
  C   1.72149272924674     -0.77212681693550      0.37813970215435
  N   2.43994477530658     -1.46757071230636      1.00118086414549
  C   -1.07916214677226     -0.47401828509121      0.97384783939779
  N   -1.60296000994493     -1.03666287931328      1.86531195231075
  C   -1.26943161081901      1.07325817899224     -0.91363152846249
  N   -1.94142950374014      1.77808739173134     -1.57410351042137
