9
Coordinates from ORCA-job run
  C   0.88312009784126      0.09855008007081     -0.36249534377854
  C   -0.45332660918535      0.19384713207247     -0.13229474730718
  H   1.32580530478562      0.64527410403366     -1.19044118314056
  C   1.73516347102002     -0.69842475170830      0.45088936658058
  N   2.45805194837627     -1.35064269880643      1.11435812271900
  C   -1.09361277901219     -0.50301156235629      0.94228660001475
  N   -1.62881165624758     -1.07375874421725      1.82170228621062
  C   -1.27668272036885      1.00895002398648     -0.97468518957272
  N   -1.94970705720920      1.67921641692484     -1.66931991172595
