9
Coordinates from ORCA-job run
  C   0.85772504134703      0.07894640744531     -0.42272934933656
  C   -0.45513935001934      0.21157628527528     -0.09536229464024
  H   1.25963876703498      0.63176604462060     -1.26709591572003
  C   1.73749117625022     -0.76663773741560      0.30800356651107
  N   2.48349651632933     -1.46021487327874      0.90003731145528
  C   -1.04149071947912     -0.49086082889124      1.00610871728869
  N   -1.52892704212453     -1.06516370304723      1.91060702085899
  C   -1.30756825486537      1.07516414988554     -0.85673159672164
  N   -2.00622613447321      1.78542425540608     -1.48283745969555
