9
Coordinates from ORCA-job run
  C   0.72362888463850     -0.62396980973558      0.09363351110828
  C   -0.50725979329128     -0.05403206750021      0.00282280163252
  H   0.80938893591207     -1.69705277622021      0.23960304433951
  C   1.91945308323414      0.14068539150138      0.00356764351510
  N   2.92209124831275      0.75518393027834     -0.06823811689358
  C   -1.68730001899823     -0.86058960003053      0.09661824862651
  N   -2.65544298143113     -1.52502860129153      0.17247102171574
  C   -0.68487019076344      1.35379919967278     -0.18982625251832
  N   -0.83868916761338      2.51000433332557     -0.34865190152575
