9
Coordinates from ORCA-job run
  C   0.69454357755269     -0.64438400063241     -0.14633535052518
  C   -0.50930393730630     -0.03610557275376      0.02390086438716
  H   0.73507187507100     -1.71597594657111     -0.32059608824029
  C   1.91965017763128      0.07682761295953     -0.10338879689172
  N   2.94645305440813      0.65359052174129     -0.07012850078464
  C   -1.71944961282644     -0.80116317202288     -0.02498371124039
  N   -2.71121627685488     -1.43309376549349     -0.06488772260920
  C   -0.62675317613165      1.37175529131949      0.25672081726102
  N   -0.72799568154381      2.52854903145334      0.44969848864325
