9
Coordinates from ORCA-job run
  C   0.85572294096377      0.11361412603871     -0.41995113415603
  C   -0.45834930292221      0.20902084282202     -0.08442813581243
  H   1.24548351446001      0.70743354406664     -1.24201271230610
  C   1.75177122920871     -0.74682702218844      0.27251579112818
  N   2.51072627679168     -1.45193381762698      0.83368968396382
  C   -1.02883019263796     -0.55009947815800      0.98742897434909
  N   -1.50530449418622     -1.17537050034189      1.86355134186671
  C   -1.32892542786210      1.08758328259929     -0.80711772703042
  N   -2.04229454381569      1.80857902278865     -1.40367608200281
