9
Coordinates from ORCA-job run
  C   0.88936499775569      0.09938565280976     -0.34601335810070
  C   -0.44284634353178      0.23096356154719     -0.10879851900192
  H   1.36522078281936      0.72153448777689     -1.09882969387409
  C   1.69487704874143     -0.83355497304390      0.36377411655300
  N   2.37811022526896     -1.60046719855974      0.94100560615162
  C   -1.21813826867523      1.18432200445704     -0.84493909301908
  N   -1.85210063583304      1.96978945774394     -1.44970838122619
  C   -1.12485651804076     -0.56084816291589      0.87016053289062
  N   -1.68963128850464     -1.21012482981529      1.67334878962675
