9
Coordinates from ORCA-job run
  C   0.89774241033106      0.14419204216031     -0.31065165502504
  C   -0.44593281969618      0.21792008834056     -0.11832701950117
  H   1.37640891359459      0.81004270195216     -1.02324295653334
  C   1.71150719600983     -0.78375146930647      0.39600806488800
  N   2.40107614802584     -1.54437414567475      0.97407593519324
  C   -1.23175749063116      1.16819472558745     -0.84729518097490
  N   -1.87780974861201      1.94873664628791     -1.44551193625373
  C   -1.13154947691408     -0.63301692979137      0.80703144283526
  N   -1.70068513210789     -1.32894365955580      1.56691330537168
