17

C	0.0	0.0	0.0
C	-0.516913	0.232049	-1.417377
F	1.382643	0.0	0.0
H	-1.598704	0.022992	-1.384789
N	-0.512031	0.922394	0.908735
H	-0.313434	0.618467	1.856772
H	-1.529075	0.964703	0.77398
N	-0.302484	-1.459823	0.466446
O	-0.829684	-2.261281	-0.294386
O	0.033076	-1.692408	1.624636
C	0.186375	-0.599982	-2.497473
H	0.0351	-1.662593	-2.317143
H	1.254016	-0.37762	-2.519468
H	-0.239842	-0.346372	-3.470997
C	-0.338213	1.649016	-1.744959
N	-0.164846	2.750346	-2.112395
Br	-3.718698	0.0	0.0
