17

C	0.0	0.0	0.0
C	-0.338581	0.110322	-1.504775
F	1.397254	0.0	0.0
H	0.563303	-0.300936	-1.969635
N	-0.510161	0.980773	0.826345
H	-1.537348	0.941104	0.7361
H	-0.263362	0.765647	1.786203
N	-0.240742	-1.451575	0.51921
O	-0.413644	-1.574817	1.728213
O	-0.119887	-2.365163	-0.290167
C	-0.464968	1.579117	-1.916054
H	-1.392543	1.997353	-1.528674
H	0.379688	2.146104	-1.521054
H	-0.466092	1.648718	-3.006532
C	-1.407247	-0.696722	-2.105086
N	-2.017164	-1.341129	-2.876402
Br	-3.555434	0.0	0.0
