14

C	-0.595297	-0.04149	-1.398336
C	0.0	0.0	0.0
Cl	-0.037919	1.527226	-2.186695
H	1.08835	0.0	0.0
H	-0.36593	0.886748	0.517263
C	-0.087931	-1.115555	-2.258836
N	0.255421	-1.918563	-3.043933
N	-2.014366	-0.147395	-1.325936
H	-2.396243	0.611792	-0.77443
H	-2.433819	-0.142534	-2.247321
N	-0.48296	-1.166948	0.780379
O	-0.279538	-2.281835	0.310524
O	-1.046126	-0.935391	1.851563
Br	3.432169	0.0	0.0
