14

C	-0.352653	0.075123	-1.487445
C	0.0	0.0	0.0
Cl	-0.210129	-1.701266	-2.084467
H	1.088662	0.0	0.0
H	-0.446807	-0.861754	0.483205
C	-1.755468	0.417991	-1.753443
N	-2.877141	0.687383	-1.973259
N	0.515656	0.961843	-2.130058
H	0.433772	0.947002	-3.137035
H	1.480256	0.839736	-1.817669
N	-0.502763	1.206717	0.708128
O	0.094553	2.26615	0.544713
O	-1.507204	1.0531	1.410609
Br	3.45232	0.0	0.0
