14

C	-0.351279	0.064724	-1.486453
C	0.0	0.0	0.0
Cl	-0.106317	-1.692436	-2.095218
H	1.088841	0.0	0.0
H	-0.443735	-0.862974	0.483959
C	-1.77074	0.327708	-1.752172
N	-2.90849	0.533916	-1.958478
N	0.468506	1.000204	-2.121592
H	1.438661	0.905011	-1.821415
H	0.384518	0.979225	-3.126457
N	-0.511322	1.206452	0.701043
O	-1.531036	1.054368	1.381753
O	0.094038	2.262762	0.557375
Br	3.450648	0.0	0.0
