14

C	-0.37149	-0.175356	-1.474301
C	0.0	0.0	0.0
Cl	-2.101317	-0.76583	-1.638622
H	1.100861	0.0	0.0
H	-0.425484	0.903315	0.426673
C	-0.398965	1.167061	-2.088141
N	-0.39063	2.219128	-2.613075
N	0.513357	-1.080827	-2.11608
H	1.447327	-1.024589	-1.709409
H	0.54474	-0.938054	-3.116051
N	-0.458527	-1.131749	0.837876
O	-0.091661	-2.259334	0.526258
O	-1.1675	-0.853177	1.807256
Br	3.417379	0.0	0.0
