14

C	-0.557835	-0.188131	-1.408741
C	0.0	0.0	0.0
Cl	-0.052702	1.280212	-2.399831
H	1.100805	0.0	0.0
H	-0.378491	-0.810372	0.628715
C	0.107866	-1.337507	-2.035753
N	0.528636	-2.294169	-2.571876
N	-1.960558	-0.43075	-1.437593
H	-2.438635	0.324787	-0.961403
H	-2.286442	-0.51419	-2.392255
N	-0.483274	1.266401	0.628742
O	0.317019	1.917439	1.28289
O	-1.677455	1.560631	0.492361
Br	3.481267	0.0	0.0
