14

C	-0.603305	0.02374	-1.41579
C	0.0	0.0	0.0
Cl	-0.10564	1.546238	-2.223491
H	1.087965	0.0	0.0
H	-0.377834	-0.89223	0.504546
C	-0.034794	-1.107088	-2.161292
N	0.336536	-2.056612	-2.743635
N	-2.04611	-0.079363	-1.510226
H	-2.458209	0.570231	-0.848263
H	-2.319709	-1.015445	-1.228212
N	-0.519221	1.154259	0.778587
O	-1.693636	1.073089	1.168298
O	0.216508	2.113147	0.973817
Br	3.472936	0.0	0.0
