14

C	-0.349936	-0.0667	-1.494052
C	0.0	0.0	0.0
Cl	-2.096607	-0.507161	-1.701858
H	1.092316	0.0	0.0
H	-0.423949	0.864482	0.505076
C	-0.206804	1.296517	-2.026735
N	-0.102082	2.389177	-2.444208
N	0.453096	-0.965523	-2.284477
H	0.372611	-1.88278	-1.85615
H	1.426516	-0.679706	-2.151773
N	-0.450873	-1.198038	0.739587
O	-0.243315	-2.300575	0.233658
O	-0.986964	-1.017931	1.831079
Br	3.399488	0.0	0.0
