14

C	-0.401777	0.003115	-1.472195
C	0.0	0.0	0.0
Cl	0.106855	-1.521296	-2.257265
H	1.091322	0.0	0.0
H	-0.330797	0.936743	0.457595
C	-1.84955	0.174556	-1.659265
N	-2.995457	0.399616	-1.783457
N	0.294782	1.078891	-2.158843
H	0.007109	1.963984	-1.749931
H	1.291729	0.959898	-1.967301
N	-0.5666	-1.074282	0.851265
O	-1.372757	-1.860611	0.354363
O	-0.215837	-1.065172	2.027662
Br	3.426667	0.0	0.0
