14

C	-0.355278	0.128131	-1.492149
C	0.0	0.0	0.0
Cl	-0.205515	-1.548042	-2.145856
H	1.100862	0.0	0.0
H	-0.427934	-0.871299	0.48691
C	-1.750109	0.543947	-1.696413
N	-2.870452	0.863125	-1.842416
N	0.52598	0.971437	-2.256824
H	1.480044	0.670506	-2.047882
H	0.433594	1.908978	-1.880237
N	-0.448984	1.187124	0.765861
O	-0.376287	2.289542	0.218292
O	-0.842653	1.000563	1.913937
Br	3.414278	0.0	0.0
