14

C	-0.347331	-0.068382	-1.486799
C	0.0	0.0	0.0
Cl	-0.105868	-1.820063	-2.045688
H	1.101862	0.0	0.0
H	-0.380965	0.937694	0.408435
C	-1.74185	0.241691	-1.824705
N	-2.833109	0.535465	-2.145511
N	0.520146	0.850136	-2.11981
H	1.487219	0.696485	-1.829274
H	0.439544	0.8201	-3.126334
N	-0.601825	-1.094207	0.792377
O	0.125964	-1.751771	1.527144
O	-1.819751	-1.240123	0.674093
Br	3.473951	0.0	0.0
