15

C	0.0	0.0	0.0
C	-0.207701	0.403868	-1.487072
Cl	1.795956	0.0	0.0
H	0.14392	1.424898	-1.62551
H	0.399371	-0.283335	-2.075227
C	-0.403565	1.068247	0.918358
N	-0.575568	1.948587	1.676622
C	-0.563837	-1.350367	0.372658
H	-0.211103	-2.103641	-0.334867
H	-1.658291	-1.275068	0.33051
H	-0.245069	-1.621318	1.380555
N	-1.546166	0.327069	-2.150468
O	-1.905219	-0.794063	-2.494954
O	-2.092767	1.38833	-2.422612
Cl	-3.733286	0.0	0.0
