15

C	0.0	0.0	0.0
C	-0.551693	-0.31592	-1.37927
Cl	1.793877	0.0	0.0
H	-1.642887	-0.164295	-1.329172
H	-0.310204	-1.341177	-1.654996
C	-0.378204	1.332286	0.489831
N	-0.588645	2.373331	0.991258
C	-0.494825	-1.060244	0.977751
H	-0.115151	-0.843121	1.976779
H	-1.587834	-1.030786	0.975654
H	-0.133858	-2.042398	0.664798
N	0.004957	0.541081	-2.456897
O	0.064701	1.750602	-2.254262
O	0.344345	-0.024524	-3.497804
Cl	-3.646191	0.0	0.0
