15

C	0.0	0.0	0.0
C	-0.56444	0.173216	-1.395494
Cl	1.792634	0.0	0.0
H	-1.656654	0.286047	-1.281627
H	-0.323721	-0.690594	-2.012316
C	-0.387069	1.073914	0.923401
N	-0.606111	1.87827	1.75077
C	-0.481114	-1.339976	0.552812
H	-1.574686	-1.325897	0.572159
H	-0.090133	-1.482004	1.561442
H	-0.118196	-2.147315	-0.087642
N	-0.031046	1.355668	-2.117881
O	0.048664	2.417156	-1.506409
O	0.271454	1.192905	-3.300653
Cl	-3.64464	0.0	0.0
