15

C	0.0	0.0	0.0
C	-0.553743	-0.010998	-1.424631
Cl	1.794187	0.0	0.0
H	-0.309332	0.911998	-1.945097
H	-1.643071	-0.148789	-1.338163
C	-0.384983	1.290994	0.586037
N	-0.596359	2.341471	1.067492
C	-0.486374	-1.140447	0.886424
H	-0.129242	-2.090441	0.494602
H	-1.578942	-1.116415	0.888392
H	-0.104105	-0.993287	1.898098
N	0.016723	-1.104223	-2.252465
O	0.600464	-0.777914	-3.286892
O	-0.140523	-2.262202	-1.871232
Cl	-3.644883	0.0	0.0
