15

C	0.0	0.0	0.0
C	-0.552149	0.070691	-1.423672
Cl	1.792116	0.0	0.0
H	-0.301321	1.019798	-1.891713
H	-1.642279	-0.067244	-1.347842
C	-0.386684	1.255729	0.657797
N	-0.602723	2.275232	1.19993
C	-0.487755	-1.188512	0.8196
H	-0.104619	-1.100868	1.837824
H	-1.58038	-1.162824	0.82314
H	-0.133194	-2.11494	0.372905
N	0.015567	-0.977861	-2.310373
O	0.607392	-0.59765	-3.320602
O	-0.1521	-2.154339	-1.997555
Cl	-3.642791	0.0	0.0
