15

C	0.0	0.0	0.0
C	-0.562232	-0.274862	-1.380317
Cl	1.79416	0.0	0.0
H	-1.655764	-0.140522	-1.308637
H	-0.315064	-1.286817	-1.69637
C	-0.390084	1.308691	0.539395
N	-0.610828	2.328302	1.079085
C	-0.48346	-1.099391	0.943154
H	-1.576661	-1.0776	0.951302
H	-0.096462	-0.919126	1.946958
H	-0.120425	-2.066921	0.588369
N	-0.037031	0.624517	-2.438446
O	0.084157	1.817293	-2.173999
O	0.212852	0.10934	-3.529274
Cl	-3.636356	0.0	0.0
