15

C	-0.452066	0.100309	-1.42667
C	0.0	0.0	0.0
F	-1.840065	0.348504	-1.545765
H	1.10378	0.0	0.0
H	0.055406	0.937088	-1.916272
C	-0.182361	-1.125425	-2.195816
N	0.004769	-2.060427	-2.877444
N	-0.448374	-1.260308	0.594826
H	0.326214	-1.623645	1.13745
H	-1.23764	-1.116319	1.216584
C	-0.426635	1.234193	0.784193
H	-0.107176	2.151731	0.27909
H	0.06827	1.210773	1.757822
H	-1.512581	1.28278	0.933802
F	2.64099	0.0	0.0
