15

C	-0.568009	-0.018165	-1.394164
C	0.0	0.0	0.0
F	-0.124393	-1.139709	-2.098741
H	1.101953	0.0	0.0
H	-1.662476	-0.104187	-1.354186
C	-0.205346	1.176962	-2.176872
N	0.061218	2.124261	-2.81814
N	-0.523297	-1.227716	0.651911
H	-0.145153	-1.207002	1.594348
H	-0.024421	-1.997185	0.208756
C	-0.508415	1.217546	0.749571
H	-0.152962	2.139293	0.28279
H	-0.099516	1.199349	1.764122
H	-1.604927	1.236317	0.818864
F	2.672106	0.0	0.0
