15

C	-0.468479	0.012176	-1.440741
C	0.0	0.0	0.0
F	-0.182085	1.219	-2.077075
H	1.100356	0.0	0.0
H	0.050781	-0.786674	-1.975495
C	-1.931494	-0.199635	-1.552445
N	-3.092868	-0.353646	-1.640262
N	-0.391725	-1.317207	0.520986
H	-1.190912	-1.247024	1.140624
H	0.397209	-1.669104	1.048994
C	-0.539195	1.173509	0.794562
H	-1.631094	1.129738	0.920122
H	-0.283582	2.117767	0.307149
H	-0.071534	1.172112	1.782899
F	2.659713	0.0	0.0
