15

C	-0.324227	0.065051	-1.469846
C	0.0	0.0	0.0
F	-1.709174	0.217132	-1.725248
H	1.096475	0.0	0.0
H	0.179382	0.920998	-1.926632
C	0.086004	-1.16104	-2.176486
N	0.370882	-2.131408	-2.770235
N	-0.486683	-1.212373	0.655938
H	0.197388	-1.94559	0.508402
H	-1.373918	-1.514269	0.26404
C	-0.505364	1.243124	0.713154
H	-0.133132	1.217367	1.738612
H	-1.600693	1.295922	0.73851
H	-0.119836	2.148946	0.233913
F	2.64346	0.0	0.0
