15

C	-0.426554	0.045571	-1.43854
C	0.0	0.0	0.0
F	-1.813959	0.274689	-1.592655
H	1.096393	0.0	0.0
H	0.083435	0.869523	-1.947445
C	-0.128517	-1.205292	-2.156233
N	0.073083	-2.163158	-2.803188
N	-0.458414	-1.237885	0.630846
H	-1.273418	-1.076629	1.211076
H	0.295693	-1.570381	1.218959
C	-0.440066	1.262432	0.729808
H	-1.529918	1.32205	0.845029
H	-0.099193	2.160053	0.204109
H	0.024381	1.269057	1.719326
F	2.641379	0.0	0.0
