15

C	-0.317703	0.033582	-1.472801
C	0.0	0.0	0.0
F	-1.706364	0.123071	-1.737173
H	1.096518	0.0	0.0
H	0.150261	0.905381	-1.937917
C	0.149591	-1.184535	-2.156908
N	0.467986	-2.17283	-2.703725
N	-0.473866	-1.210941	0.669421
H	0.239194	-1.922731	0.561992
H	-1.333702	-1.552248	0.252839
C	-0.525253	1.246637	0.690446
H	-0.139351	2.150653	0.208064
H	-0.170917	1.235689	1.722355
H	-1.620785	1.290272	0.697719
F	2.64134	0.0	0.0
