15

C	-0.475299	-0.021014	-1.441523
C	0.0	0.0	0.0
F	-0.031285	-1.165352	-2.100285
H	1.095943	0.0	0.0
H	-1.576597	-0.056511	-1.48944
C	-0.038098	1.152321	-2.219364
N	0.289912	2.077741	-2.862065
N	-0.422958	-1.220785	0.692624
H	-1.300227	-1.576279	0.321935
H	0.291262	-1.915903	0.51202
C	-0.535115	1.231319	0.70821
H	-0.177735	1.200968	1.738324
H	-1.635074	1.261167	0.729254
H	-0.165735	2.151423	0.247316
F	2.648071	0.0	0.0
