18

C	0.0	0.0	0.0
C	-0.18959	-0.063212	-1.546114
F	1.41071	0.0	0.0
H	0.387413	0.811686	-1.890712
C	-0.50643	1.299962	0.568913
H	-0.195485	1.390615	1.613825
H	-1.600603	1.297626	0.519364
H	-0.107632	2.151481	0.00981
C	-0.518014	-1.20799	0.731958
H	-0.209163	-1.157867	1.780444
H	-1.611536	-1.196203	0.678845
H	-0.137035	-2.122867	0.278859
C	-1.498542	0.09561	-2.191918
N	-2.316617	0.241175	-3.022976
N	0.387755	-1.321436	-2.044141
H	0.298198	-1.344344	-3.0534
H	1.373856	-1.313075	-1.812569
Br	-4.0847	0.0	0.0
