18

C	0.0	0.0	0.0
C	-0.329611	0.196585	-1.509017
F	1.402956	0.0	0.0
H	0.074025	-0.693054	-2.011816
C	-0.497619	1.142305	0.853488
H	-1.590603	1.141788	0.86809
H	-0.133865	1.018331	1.876957
H	-0.131337	2.098432	0.471032
C	-0.494396	-1.339669	0.493967
H	-0.110922	-2.145937	-0.137411
H	-1.587893	-1.354214	0.490756
H	-0.147827	-1.504815	1.517485
C	0.457053	1.337677	-2.015733
N	1.068185	2.24886	-2.432434
N	-1.702864	0.372602	-1.925412
H	-2.312957	-0.344508	-1.543485
H	-2.084858	1.232557	-1.549568
Br	-4.382464	0.0	0.0
