18

C	0.0	0.0	0.0
C	-0.477002	0.208185	-1.439186
F	1.407484	0.0	0.0
H	-1.57538	0.230918	-1.383225
C	-0.456594	1.146429	0.876648
H	-1.548635	1.16808	0.89341
H	-0.081524	0.987044	1.890952
H	-0.075874	2.090824	0.489559
C	-0.457671	-1.33874	0.53874
H	-0.097637	-1.453453	1.564444
H	-1.549896	-1.372182	0.534164
H	-0.056634	-2.157256	-0.063499
C	-0.07329	-0.928661	-2.294107
N	0.266317	-1.776686	-3.034335
N	0.010791	1.479697	-1.970679
H	1.009794	1.406012	-2.125536
H	-0.433713	1.661583	-2.862472
Br	-3.961448	0.0	0.0
