18

C	0.0	0.0	0.0
C	-0.476936	0.20806	-1.439264
F	1.407325	0.0	0.0
H	-1.575326	0.230526	-1.383507
C	-0.456532	1.146614	0.876496
H	-0.074855	2.090821	0.48988
H	-0.082373	0.986804	1.891071
H	-1.548556	1.169037	0.892534
C	-0.457953	-1.338591	0.538832
H	-0.057458	-2.157257	-0.063543
H	-0.097644	-1.453475	1.564429
H	-1.550174	-1.37156	0.534553
C	-0.072909	-0.928758	-2.294066
N	0.266115	-1.777117	-3.034131
N	0.010588	1.47968	-1.970726
H	1.009639	1.406242	-2.125485
H	-0.433916	1.661424	-2.862585
Br	-3.961457	0.0	0.0
