18

C	0.0	0.0	0.0
C	-0.475463	0.189393	-1.442178
F	1.407293	0.0	0.0
H	-1.57379	0.215469	-1.388174
C	-0.458028	1.157231	0.861437
H	-0.08215	1.012815	1.877774
H	-1.549998	1.176454	0.877936
H	-0.079765	2.097522	0.461041
C	-0.458411	-1.331682	0.555134
H	-1.55047	-1.366626	0.545324
H	-0.104281	-1.431327	1.584844
H	-0.052686	-2.157933	-0.033183
C	-0.073363	-0.960677	-2.27988
N	0.266317	-1.81879	-3.007611
N	0.0168	1.451733	-1.991465
H	1.01665	1.377396	-2.133975
H	-0.41655	1.615123	-2.890204
Br	-3.961055	0.0	0.0
