18

C	0.0	0.0	0.0
C	-0.470653	-0.188533	-1.453085
F	1.405628	0.0	0.0
H	-1.568006	-0.251885	-1.408414
C	-0.462659	1.331522	0.549815
H	-0.049048	2.158617	-0.030964
H	-0.1168	1.434592	1.581087
H	-1.555158	1.365566	0.530779
C	-0.457227	-1.150653	0.870961
H	-0.045988	-2.094038	0.505929
H	-1.549142	-1.192422	0.868157
H	-0.105604	-0.992666	1.894218
C	0.048477	-1.460185	-1.984607
N	0.486235	-2.464324	-2.40692
N	-0.097795	0.877933	-2.380666
H	-0.723667	1.660826	-2.237704
H	0.846727	1.179225	-2.167467
Br	-3.933122	0.0	0.0
