18

C	0.0	0.0	0.0
C	-0.196996	0.083805	-1.540814
F	1.410518	0.0	0.0
H	0.403272	0.970585	-1.80564
C	-0.504497	1.242056	0.688002
H	-0.191516	1.23766	1.735665
H	-1.599056	1.246324	0.640287
H	-0.105846	2.140983	0.208722
C	-0.517094	-1.269748	0.619093
H	-1.61047	-1.260381	0.555
H	-0.125595	-2.140719	0.095169
H	-0.219756	-1.308545	1.671573
C	-1.503336	0.348136	-2.156023
N	-2.316214	0.611865	-2.962294
N	0.342541	-1.135931	-2.159562
H	1.32746	-1.179436	-1.927971
H	0.256154	-1.057627	-3.16601
Br	-4.090114	0.0	0.0
