18

C	0.0	0.0	0.0
C	-0.2384	-0.157941	-1.573734
F	1.397582	0.0	0.0
H	0.665486	0.304212	-1.986091
C	-0.37362	1.351769	0.599991
H	0.09591	2.155173	0.025136
H	0.092614	1.377586	1.587493
H	-1.445416	1.529053	0.658509
C	-0.408726	-1.217222	0.813757
H	0.059826	-2.103753	0.383525
H	-0.057932	-1.089937	1.841494
H	-1.487741	-1.334912	0.814251
C	-1.416819	0.557802	-2.250504
N	-2.247011	0.978793	-2.988798
N	-0.281425	-1.575843	-1.94378
H	-1.21664	-1.916312	-1.714434
H	-0.191897	-1.629133	-2.954628
Br	-3.761557	0.0	0.0
