18

C	0.0	0.0	0.0
C	-0.473224	0.162302	-1.446835
F	1.40739	0.0	0.0
H	-1.571656	0.187805	-1.395741
C	-0.459609	1.172558	0.838771
H	-0.088465	1.045157	1.859144
H	-1.551858	1.193603	0.850763
H	-0.077866	2.104756	0.424016
C	-0.458251	-1.32134	0.57896
H	-1.550598	-1.356501	0.572506
H	-0.100839	-1.403999	1.608541
H	-0.054712	-2.157812	0.003771
C	-0.067654	-1.001985	-2.262945
N	0.273758	-1.875057	-2.971947
N	0.018472	1.415407	-2.016725
H	-0.418017	1.566366	-2.918489
H	1.018925	1.3361	-2.16022
Br	-3.96097	0.0	0.0
