9
Coordinates from ORCA-job run
  C   0.80058698218287     -0.24391179223690      0.19116476016577
  C   -0.51632952799473      0.04874391730856      0.30262023797733
  H   1.50528470380670      0.00309873006124      0.97945382759476
  H   -1.19415292491111     -0.22034890914582     -0.50300260226027
  C   1.30527077950810     -0.90056569007411     -0.96460518539186
  N   1.73237983567373     -1.43619013075089     -1.92114321179424
  N   -1.12357424062927      0.60218469849654      1.40118391901071
  H   -1.98770010788501      1.08916807688437      1.23554996998127
  H   -0.52176549975128      1.05782109945702      2.06877828471654
