9
Coordinates from ORCA-job run
  C   0.75127848163404     -0.37086541708633      0.19978172673938
  C   -0.49496207397820      0.15223824737120      0.27583109697208
  H   1.39967338636626     -0.41993342159222      1.06965021981187
  H   -1.11967009068026      0.17755770522237     -0.61336198010960
  C   1.25087820872667     -0.88819323417846     -1.02667638885493
  N   1.67468953115810     -1.31409113018967     -2.03824705605960
  N   -1.10590513469557      0.60076407424957      1.41884121598172
  H   -1.84888240913431      1.26727222787009      1.29760492244078
  H   -0.50809989939674      0.79425094833344      2.20657624307830
