9
Coordinates from ORCA-job run
  C   0.18472095107362     -0.45730246683690     -0.37598312671313
  C   -0.00111127778208      0.22992436518805      0.77540959367781
  H   -0.65251743616164     -0.75219447795642     -1.00174315430333
  H   0.85961675127079      0.50133919649408      1.38124764254232
  C   1.48978026454542     -0.82910500687162     -0.80026543195110
  N   2.56625190865731     -1.13697705377214     -1.16183273922728
  N   -1.21432141962709      0.56598617531193      1.31956098452755
  H   -1.22090141896897      1.34928071840071      1.94991254809773
  H   -2.01251832300736      0.52904855004232      0.70569368334942
