9
Coordinates from ORCA-job run
  C   0.44661539140964     -0.95865003116014      0.14941999020177
  C   -0.64109626422784     -0.33969738812711      0.67334497811831
  H   0.55662261694010     -2.03195357718196      0.22219912677252
  H   -1.39935714124404     -0.93789396158606      1.17056106493603
  C   1.45587287512480     -0.19777666409596     -0.50144103128199
  N   2.25692495761913      0.49069025540380     -1.02188415477788
  N   -0.93377480278220      0.99093045066908      0.56905886241653
  H   -1.55652171231412      1.38078554469302      1.25453272497005
  H   -0.18728592052547      1.60356537138533      0.27620843864467
