9
Coordinates from ORCA-job run
  C   0.79585619807456     -0.20456115644517      0.11093659522716
  C   -0.51161306640684      0.08416074800947      0.31021575905209
  H   1.58069809172532      0.31247354000664      0.65569304331525
  H   -1.26953555905324     -0.44896692822601     -0.25772352308795
  C   1.18776624122092     -1.19057153285651     -0.83555038161290
  N   1.52061050339782     -2.00907070105685     -1.61244854028499
  N   -0.99778689991177      1.06920849926729      1.13126527557184
  H   -0.36487063149442      1.43533166817712      1.82454058700405
  H   -1.94012487755236      0.95199586312403      1.46207118481545
