9
Coordinates from ORCA-job run
  C   0.73748216420519     -0.40202527375062      0.21320300761295
  C   -0.44618911385438      0.25441579145685      0.23996423434132
  H   1.41483770300433     -0.38614379473187      1.06197339510366
  H   -1.09446650602127      0.22343424546215     -0.63180991908779
  C   1.14232333961057     -1.12576275858595     -0.94185394436417
  N   1.48221477360812     -1.73170972636431     -1.89137004949314
  N   -0.89771686380175      1.04909933663696      1.26235783793852
  H   -1.89298229355697      1.17904727283788      1.32255519245924
  H   -0.44550320319384      0.93964490703892      2.15598024548940
