9
Coordinates from ORCA-job run
  C   0.79548531213317     -0.13903415228964      0.05608562424145
  C   -0.50684306322596     -0.02868161007152      0.40958671846904
  H   1.57895718093895      0.36887497398992      0.61083200862862
  H   -1.26254144740380     -0.55903752289654     -0.16400192583335
  C   1.18305987980668     -0.94512317624033     -1.04901016281397
  N   1.51076372296937     -1.60663807646083     -1.96516230595197
  N   -0.98615519228330      0.64806842940371      1.50119954159226
  H   -1.94574722829178      0.94516319137367      1.46026895085983
  H   -0.36697916464332      1.31640794319157      1.93120155080810
