9
Coordinates from ORCA-job run
  C   0.77442995609696     -0.10647606316145     -0.01269046676792
  C   -0.51114766186891      0.03465002612382      0.38803212451656
  H   1.58623387839202      0.40920300370250      0.49137955863494
  H   -1.29846033284985     -0.49004230187321     -0.14673805260757
  C   1.10326111295455     -0.92498751747672     -1.12788508057169
  N   1.38514018325653     -1.60321193162069     -2.04700279881704
  N   -0.95122770180004      0.86046206900814      1.38993852967427
  H   -0.25819282411949      1.19807840636381      2.03880571959443
  H   -1.83003661006178      0.62232430893381      1.81616046634401
