9
Coordinates from ORCA-job run
  C   0.74554719516492     -0.37752513488280      0.18138256533881
  C   -0.45252670961925      0.24762160921626      0.26096504980755
  H   1.43013959067340     -0.40300652841095      1.02407538254631
  H   -1.10745512616350      0.26039722617374     -0.60632220666900
  C   1.15780688322341     -1.00909811071812     -1.02407442238940
  N   1.50438405909033     -1.53891198178760     -2.01588795995765
  N   -0.91465482579574      0.95943438804016      1.33803320891010
  H   -0.45100397068135      0.80276988535185      2.21873107722136
  H   -1.91223709589222      1.05931864701746      1.41409730519192
