9
Coordinates from ORCA-job run
  C   0.44171448351121     -0.96272024867634      0.16208465691894
  C   -0.64771351889416     -0.33204512736007      0.66812009898965
  H   0.54093857001030     -2.03657013651720      0.24186961380442
  H   -1.41661970158360     -0.91958269714504      1.16089309652915
  C   1.46414618408088     -0.21560973747756     -0.48401640057523
  N   2.27869079084110      0.45991218817007     -1.00063233140414
  N   -0.92738552992487      1.00033280261075      0.55307163277244
  H   -0.17382806423236      1.60640814702560      0.26542700065956
  H   -1.55994321380849      1.39887480936979      1.22418263230521
