9
Coordinates from ORCA-job run
  C   0.41554276348126     -0.96765424260374      0.12725490665635
  C   -0.64688664746284     -0.32578967035431      0.67501224744259
  H   0.49309510911183     -2.04493576126395      0.18183067010443
  H   -1.41627432780541     -0.90876456213291      1.17288700009249
  C   1.44093981488683     -0.22812508545926     -0.52276652204878
  N   2.26001164447139      0.44112139024342     -1.04033608157927
  N   -0.90110854910337      1.01449427775608      0.59655765299901
  H   -1.50359494268589      1.41078055059247      1.29626269175625
  H   -0.14072486489380      1.60987310322219      0.30429743457693
