9
Coordinates from ORCA-job run
  C   0.28893632178492     -0.92021164422217     -0.15227783682481
  C   -0.76072145585054     -0.26564701548105      0.40512155344376
  H   0.17919911798416     -1.93719116968857     -0.50310057781180
  H   -1.71267754437458     -0.77966359032192      0.50142854854490
  C   1.54682905058228     -0.27110894987857     -0.28375477625499
  N   2.56330574862942      0.31894794972555     -0.35718294285323
  N   -0.76990960453221      1.04159204732015      0.80251899263858
  H   0.12422079853257      1.49932666680445      0.89786161009802
  H   -1.45918243275602      1.31295570574213      1.48138542901957
