9
Coordinates from ORCA-job run
  C   0.61726463647543     -0.55181807107969      0.14082432047986
  C   -0.31021764746039      0.41548626204987      0.33296196652866
  H   0.79188430014212     -1.32500661382862      0.88334689490154
  H   -0.45183094012251      1.17922376119025     -0.42721433434927
  C   1.41055647599823     -0.57762989362807     -1.03871704425951
  N   2.06855365810638     -0.61158741239789     -2.01339487492023
  N   -1.06790326828389      0.58367321951567      1.46318626158175
  H   -1.93079788120076      1.08819093014858      1.35618986485767
  H   -1.12650933365459     -0.20053218197011      2.09281694517953
