9
Coordinates from ORCA-job run
  C   0.43863581261332     -0.96316496681608      0.16126784514746
  C   -0.61263881273640     -0.32370192871716      0.73253318812858
  H   0.51401611318683     -2.04113770221668      0.20157317923865
  H   -1.38259045624624     -0.91084988343872      1.22455657626680
  C   1.45596459629696     -0.21898464391884     -0.49646116425484
  N   2.26141226026477      0.45329759271841     -1.03119674968680
  N   -0.77345571279577      1.03089064652421      0.82440260979532
  H   -0.19148184468565      1.60006497402013      0.22794985772116
  H   -1.71086195589780      1.37258591184473      0.94537465764366
