20

C	-0.233822	0.020843	-1.508007
C	0.0	0.0	0.0
Br	-2.200601	0.285923	-1.923537
H	1.102909	0.0	0.0
N	0.455983	1.162565	-2.051996
H	0.498502	1.086933	-3.063677
H	1.410684	1.143729	-1.684845
C	0.152266	-1.290212	-2.178669
H	1.199454	-1.486194	-1.921906
H	0.06224	-1.194551	-3.26411
H	-0.469405	-2.126301	-1.856693
C	-0.500692	-1.251466	0.702859
H	0.020671	-2.149395	0.366515
H	-0.317307	-1.156748	1.777085
H	-1.577862	-1.384727	0.551185
C	-0.486761	1.26089	0.70226
H	-0.241695	2.149725	0.121004
H	-0.001213	1.3394	1.679521
H	-1.570899	1.230059	0.852111
Br	3.609147	0.0	0.0
