20

C	-0.430407	0.083639	-1.471526
C	0.0	0.0	0.0
Br	-0.208872	-1.685357	-2.360512
H	1.096354	0.0	0.0
N	-1.857055	0.375478	-1.582671
H	-2.001084	1.317795	-1.230012
H	-2.110674	0.380685	-2.565896
C	0.4758	1.030644	-2.252111
H	0.218485	1.019301	-3.315165
H	1.524906	0.756697	-2.115976
H	0.338052	2.049925	-1.875803
C	-0.531255	-1.220404	0.742085
H	-1.605517	-1.336362	0.571323
H	-0.355074	-1.100545	1.815205
H	-0.022233	-2.129198	0.42348
C	-0.434969	1.269056	0.748182
H	-0.161913	2.188173	0.223977
H	-1.512788	1.272487	0.943342
H	0.081894	1.293457	1.710225
Br	3.711561	0.0	0.0
