20

C	-0.442766	0.070784	-1.463347
C	0.0	0.0	0.0
Br	0.18814	-1.664239	-2.397982
H	1.094993	0.0	0.0
N	-1.85434	0.186998	-1.598775
H	-2.319988	-0.595244	-1.154844
H	-2.11503	0.196717	-2.577908
C	0.275844	1.164666	-2.232041
H	0.073343	1.083318	-3.303072
H	-0.07969	2.138232	-1.884231
H	1.351199	1.082787	-2.060456
C	-0.521304	-1.209122	0.767644
H	-0.262648	-2.146087	0.274668
H	-1.609515	-1.167145	0.909535
H	-0.063631	-1.219068	1.760319
C	-0.416318	1.284825	0.73101
H	-0.086789	1.213829	1.771312
H	-1.499617	1.431003	0.709928
H	0.067917	2.165276	0.306145
Br	3.681622	0.0	0.0
