20

C	-0.222347	0.011699	-1.517347
C	0.0	0.0	0.0
Br	-2.179058	0.244139	-1.928745
H	1.102116	0.0	0.0
N	0.463248	1.093602	-2.198182
H	0.215207	1.977077	-1.766976
H	1.457811	0.950279	-2.016845
C	0.222046	-1.284631	-2.171338
H	-0.387844	-2.132975	-1.860826
H	0.159751	-1.172265	-3.253676
H	1.264346	-1.460547	-1.882132
C	-0.508689	-1.247719	0.707311
H	-0.005542	-2.150002	0.356882
H	-1.58916	-1.366626	0.570153
H	-0.30797	-1.166048	1.779722
C	-0.48216	1.251631	0.719562
H	-1.574776	1.284894	0.769171
H	-0.086251	1.251214	1.738832
H	-0.129144	2.170288	0.246384
Br	3.617234	0.0	0.0
