20

C	-0.472008	0.033836	-1.463519
C	0.0	0.0	0.0
Br	0.225056	-1.585505	-2.382102
H	1.096208	0.0	0.0
N	-1.91525	-0.003901	-1.680214
H	-2.307153	-0.799718	-1.187629
H	-2.312089	0.83945	-1.274396
C	0.109925	1.222636	-2.210876
H	1.186933	1.2795	-2.035455
H	-0.360102	2.14563	-1.854071
H	-0.096403	1.126063	-3.277199
C	-0.50101	-1.201947	0.79342
H	-1.584914	-1.159814	0.960998
H	-0.255844	-2.143683	0.30171
H	-0.015204	-1.206193	1.772249
C	-0.408893	1.289811	0.723284
H	-1.494055	1.45454	0.712816
H	-0.097598	1.218225	1.768999
H	0.08923	2.165813	0.305681
Br	3.678027	0.0	0.0
