15

C	0.0	0.0	0.0
C	-0.349207	-0.184501	-1.51469
Br	2.008085	0.0	0.0
H	0.468215	0.247977	-2.095102
C	-0.29141	1.383861	0.38911
N	-0.431158	2.494607	0.746636
N	-0.613484	-0.93447	0.854799
H	-1.146445	-0.48874	1.588859
H	-1.224539	-1.57005	0.357179
N	-1.551804	0.535994	-1.837526
H	-2.359801	0.252112	-1.268021
H	-1.789447	0.400431	-2.812866
C	-0.348644	-1.63645	-1.826472
N	-0.403231	-2.766752	-2.147713
Br	-4.199133	0.0	0.0
