11
Coordinates from ORCA-job run
  C   0.97681140740036      0.37178154955150     -0.54121669350417
  C   -0.23021630879961      0.15329245279494     -0.00985366662061
  H   1.13720828502072      1.27971990823766     -1.11436783610553
  C   2.04300797902334     -0.55376235342298     -0.37079099385505
  N   2.93989038368536     -1.30616995893946     -0.24348573292211
  N   -0.57773545376890     -1.02293203346838      0.78011421071502
  O   -1.02455733839598     -1.97539809265030      0.15015301182423
  O   -0.39394113629518     -0.92787457595688      1.98879254268518
  N   -1.34747157358377      1.09867496685955     -0.17502906908419
  O   -1.12590116393796      2.10044858411237     -0.83948111591826
  O   -2.39709508034839      0.78221955288198      0.37516534278548
