11
Coordinates from ORCA-job run
  C   1.04454196031708     -0.49508109135255     -0.22205840394805
  C   -0.22467235539669     -0.15880741417712      0.02872305305928
  H   1.29118613629063     -1.54550861739350     -0.34175990806272
  C   2.06616846319481      0.48786664771719     -0.33350377473698
  N   2.92771673422450      1.28476219313568     -0.43036420932369
  N   -1.29734993838274     -1.16109269918644      0.14736897255872
  O   -0.97674914907807     -2.33020192007244     -0.00928402439204
  O   -2.41424188770756     -0.71754767509955      0.39306295573825
  N   -0.68919256336804      1.21198329590039      0.21136992162674
  O   -1.06461872525472      1.78756601300816     -0.80424118268278
  O   -0.66278867483920      1.63606126752019      1.36168660016326
