11
Coordinates from ORCA-job run
  C   0.95333806081621      0.30274661926890     -0.62232811742257
  C   -0.23059588538472      0.15231989083148     -0.01985576302614
  H   1.09119646071474      1.13782767272450     -1.30206252752412
  C   2.02642862309174     -0.59974983425066     -0.38441411043435
  N   2.92777662967976     -1.33360656251429     -0.19490341001620
  N   -0.54377263147589     -0.92342173058987      0.91467634718703
  O   -1.00349963888841     -1.94545494079780      0.41691905549027
  O   -0.32196129665648     -0.68462797684022      2.09688208558555
  N   -1.35535198519379      1.07533873703385     -0.24792246722194
  O   -2.38108852421941      0.82785506227416      0.37757166866169
  O   -1.16346981248374      1.99177306285993     -1.03356276127922
