11
Coordinates from ORCA-job run
  C   1.06858393102881      0.39432184092124     -0.25870749766658
  C   -0.22835860309723      0.15231421250418     -0.04364870839904
  H   1.34951165474060      1.34513204854437     -0.70143652035950
  C   2.08143174488091     -0.55078020711811      0.06100846483398
  N   2.94359923691132     -1.31484758614341      0.30540155442102
  N   -0.75753634630565     -1.10185861028176      0.48560676505388
  O   -0.40989392623983     -1.42273739730843      1.61628102011111
  O   -1.49189840332063     -1.71153984107402     -0.28536618941030
  N   -1.26486311134397      1.15477532375949     -0.33330865869817
  O   -0.96872389522002      2.04604096973420     -1.11601432341331
  O   -2.32185228203430      1.00917924646223      0.27118409352691
