11
Coordinates from ORCA-job run
  C   1.04918245591754     -0.50417325647576     -0.09606333588925
  C   -0.23541773256064     -0.14795814576031      0.00388764762461
  H   1.28566843540931     -1.55920417366172     -0.19723374732549
  C   2.10473594650909      0.44832465086847     -0.08699543008815
  N   3.00169576370890      1.21134932193543     -0.09195186107786
  N   -1.31733443330895     -1.14341448300518      0.04344191498497
  O   -1.06261084182690     -2.25489813755774     -0.39778350553748
  O   -2.36640573198365     -0.76113740629261      0.55050785061764
  N   -0.70557933397152      1.23254638486290      0.08213718060256
  O   -0.34377384936663      1.89283968645347      1.04916053389049
  O   -1.41016067852654      1.58572555863304     -0.85810724780204
