11
Coordinates from ORCA-job run
  C   1.05135590448637     -0.48438370628679     -0.21466235554494
  C   -0.22226922219456     -0.16193298975507      0.03189546589749
  H   1.31255238140714     -1.53311551366261     -0.31763735737637
  C   2.05844463277355      0.51151134896980     -0.34207227331013
  N   2.90572041485793      1.32211918746738     -0.44971609199052
  N   -1.28307234436816     -1.17651140298578      0.15332638544511
  O   -2.41942788351902     -0.74146714040716      0.30838642620935
  O   -0.93555065849578     -2.34627676799760      0.08139997029310
  N   -0.70306901592082      1.20452940615426      0.20535018374147
  O   -0.79044665803107      1.58961378037241      1.36625832006169
  O   -0.97423755099558      1.81591379813117     -0.82252867342626
