11
Coordinates from ORCA-job run
  C   1.05318773155558     -0.48370721780442     -0.20725885992969
  C   -0.22247952920901     -0.16194007588338      0.02987927542989
  H   1.31615470488032     -1.53245023883765     -0.30543411265094
  C   2.05969084997692      0.51290692055796     -0.33279534610016
  N   2.90642991167318      1.32408528593796     -0.44053476001625
  N   -0.71073991999497      1.20579404442497      0.16913142984221
  O   -0.60302111626519      1.70666948586704      1.28328662277172
  O   -1.18444648824687      1.70288003811377     -0.84679108970787
  N   -1.27765988345937     -1.17899094456565      0.17764553888700
  O   -0.94612389530935     -2.34335532319087      0.00852643760011
  O   -2.39099236560123     -0.75189197461972      0.46534486387399
