11
Coordinates from ORCA-job run
  C   1.04836838407400     -0.48082329680695     -0.17886996573048
  C   -0.22598304220702     -0.15143323580862      0.05603904571792
  H   1.32037369554000     -1.53197917440074     -0.15403749867355
  C   2.05126437574466      0.49320877138884     -0.43894999781219
  N   2.90774961564480      1.27260299680513     -0.65154113965530
  N   -1.26416940143618     -1.17173861771293      0.27060869195025
  O   -0.88379029523358     -2.28283917165621      0.61267428949265
  O   -2.41437872540397     -0.80956423574143      0.04790381691818
  N   -0.72620913895279      1.21942956862489      0.12037254477703
  O   -0.60705760886045      1.90611105510955     -0.88794926399565
  O   -1.20516785890947      1.53802534019845      1.20374947701112
