11
Coordinates from ORCA-job run
  C   1.02048207934656     -0.49957060157645     -0.22453124930720
  C   -0.23424061432274     -0.14023289793634      0.07008257379446
  H   1.25906486000731     -1.56060494578091     -0.23449541106760
  C   2.04822893085276      0.43767411957181     -0.51616040187791
  N   2.92003289696468      1.19552076330760     -0.74249711450528
  N   -1.28162079702015     -1.14737493714744      0.28691267402025
  O   -2.41537615170631     -0.79787735694353     -0.02817146751973
  O   -0.92781619795614     -2.23878349410433      0.71167903939640
  N   -0.69168399565160      1.24504118055406      0.18630155573065
  O   -0.41469889783946      1.99912312262134     -0.73854097133018
  O   -1.28237211267493      1.50708504743420      1.23042077266613
