11
Coordinates from ORCA-job run
  C   0.94666836951084     -0.42035838665370     -0.53832392901378
  C   -0.23335677289634     -0.14790273586906      0.02826583375340
  H   1.08380531506873     -1.39464506604608     -0.99797493357058
  C   2.01073243768096      0.52250246076579     -0.57115070247593
  N   2.91247143125268      1.27822934547025     -0.61488765741738
  N   -0.58482733521879      1.13696441782146      0.62715749395404
  O   -1.52958927093075      1.70882827032622      0.09334799273685
  O   0.09322323262121      1.51551879113235      1.57557963258513
  N   -1.30784193850664     -1.15045238581689      0.10341168403793
  O   -2.14239288585170     -0.96469248506780      0.98247994891989
  O   -1.24889258273020     -2.08299222606253     -0.68590536350959
