11
Coordinates from ORCA-job run
  C   1.04464409494044     -0.50064291297085     -0.14558955720069
  C   -0.23736373712755     -0.16082012002482      0.01999888477542
  H   1.30069418645521     -1.54995801253705     -0.26547107564315
  C   2.07470986940438      0.47901994881302     -0.20549651585497
  N   2.96073739957119      1.25366541161495     -0.25325560914699
  N   -1.31293885003398     -1.15676046114988      0.11479455960157
  O   -1.01509128535649     -2.31292418550542     -0.15153806712522
  O   -2.40203719862094     -0.73298535948031      0.48955047951159
  N   -0.69622998128981      1.22277575310957      0.11612104313575
  O   -1.30319063224234      1.63588865899911     -0.86536351274507
  O   -0.41593386570012      1.82374127913169      1.14724937069177
