11
Coordinates from ORCA-job run
  C   1.02419229278902      0.35728202471411     -0.40380157173781
  C   -0.22419897705688      0.16212670447163      0.03543539613675
  H   1.28798644672090      1.34343058664940     -0.77479175261773
  C   2.01758617313951     -0.66080072192723     -0.40199327834973
  N   2.86865492257696     -1.47299508231505     -0.43960631055820
  N   -0.71452080882793     -1.08034486585398      0.62684190999150
  O   -1.27868747980448     -0.94680336009874      1.70878883691264
  O   -0.50489082767673     -2.11677501870355      0.00731069904379
  N   -1.24019195658895      1.21713193863714     -0.07308433950177
  O   -0.84639163044584      2.37560700942926     -0.04681529440476
  O   -2.38953815482559      0.82114078499698     -0.23828429491469
