11
Coordinates from ORCA-job run
  C   0.95523999272793      0.25576392447581     -0.61962976071341
  C   -0.22232107643187      0.16736818048036      0.00735993367085
  H   1.14965858456794      1.13189879487909     -1.23052325316275
  C   1.95660719163085     -0.74688396559364     -0.50326835532985
  N   2.80975910519324     -1.55464692618058     -0.42577276180193
  N   -0.59717115118538     -0.91896366261077      0.90919717774674
  O   -0.82616283742830     -0.56995380549509      2.06241026211598
  O   -0.62980991381456     -2.05021345934046      0.43806351435881
  N   -1.27044103847831      1.18549028604824     -0.16287613288348
  O   -2.41174891155978      0.81734413397903      0.09248318927198
  O   -0.91360994522176      2.28279649935802     -0.56944381327294
