11
Coordinates from ORCA-job run
  C   0.96172729150011     -0.43708511697957     -0.49646534904758
  C   -0.23515019822616     -0.14579733651549      0.02349665658398
  H   1.10607829498008     -1.42014135682647     -0.93472364475621
  C   2.03412227975924      0.49674705655089     -0.50786078035996
  N   2.94013266016217      1.24783642614847     -0.54299120107216
  N   -1.31992937943987     -1.13853380851646      0.07644931316546
  O   -1.23939136753450     -2.08583587641368     -0.69315468177111
  O   -2.18499402090634     -0.93102673643113      0.92044747078759
  N   -0.59644449880491      1.15142216909550      0.58902927117175
  O   0.05169314953413      1.54052986865225      1.55389912747091
  O   -1.51684421102393      1.72188471123571      0.01287381782733
