11
Coordinates from ORCA-job run
  C   0.98263894984533      0.41038138806270     -0.50400477881538
  C   -0.23141784334079      0.15054121440236     -0.00839424315200
  H   1.14231034275008      1.34812486537721     -1.02697474377262
  C   2.05686513313517     -0.50968144916326     -0.35537438925042
  N   2.95792416410181     -1.25902314827072     -0.24030434876042
  N   -0.57714149241574     -1.06458610207621      0.72090155664878
  O   -0.46874543326887     -1.00061721518876      1.94071609889950
  O   -0.94814288467763     -2.01311985270428      0.03782820061638
  N   -1.35943528363479      1.08640140859736     -0.15369709263769
  O   -2.42565498554125      0.71215906273210      0.32348510616551
  O   -1.13020066695333      2.13741982823149     -0.73418136594164
