11
Coordinates from ORCA-job run
  C   1.03883783043954     -0.46750540398073     -0.25247115353974
  C   -0.22452738880612     -0.15470716519644      0.05354494093019
  H   1.30869745532716     -1.51754304136680     -0.31457946752786
  C   2.03484774888116      0.52191867945165     -0.47951325885940
  N   2.88619988649263      1.31313658026823     -0.66755353244468
  N   -1.25701005527186     -1.18719382505477      0.23493204596303
  O   -0.86720331210344     -2.32036992492085      0.48051759329585
  O   -2.41396269247938     -0.80946779524016      0.08502061008281
  N   -0.71742828015592      1.20830490806018      0.23398810904241
  O   -1.15378288413884      1.45019458012641      1.35456330945764
  O   -0.63466830818494      1.96423240785328     -0.72744919640025
