11
Coordinates from ORCA-job run
  C   0.99593508522385     -0.46970515013239     -0.38604382486954
  C   -0.23262095907578     -0.14856991882230      0.03239208568466
  H   1.18793778206585     -1.49777548302459     -0.67838299083999
  C   2.04415946022497      0.48717108737237     -0.47635047458773
  N   2.93342212678332      1.25311853894745     -0.56974305031217
  N   -0.65457506486436      1.20151280415611      0.39646263176497
  O   -1.55980853828467      1.65807696872928     -0.29397491575574
  O   -0.06497670046599      1.73931328873447      1.32693518079764
  N   -1.29361638378849     -1.15860785616601      0.17049957903246
  O   -1.15133431242046     -2.19806832266495     -0.45848875579047
  O   -2.20452249539825     -0.86646595712945      0.93769453487591
