11
Coordinates from ORCA-job run
  C   1.05508525032406     -0.49511765708175     -0.06311582212929
  C   -0.23490760337723     -0.14816772670302     -0.00689051461972
  H   1.30108408576228     -1.54942925168546     -0.14801818597284
  C   2.10441995772882      0.46248878983341      0.00154762252994
  N   2.99840332666659      1.22651279104722      0.05802278256081
  N   -1.31179871342291     -1.14341227058494     -0.12796098078720
  O   -2.39862631616847     -0.70443730406267     -0.48833141784275
  O   -1.01665283450960     -2.30725761772804      0.10567548052562
  N   -0.71527400158635      1.21981308886442      0.17018395415317
  O   -0.40801441375085      2.03574320331378     -0.69145959919439
  O   -1.37271873766632      1.40326395478704      1.18934668077665
