11
Coordinates from ORCA-job run
  C   1.08632553216943      0.39285593070186     -0.16696798713259
  C   -0.22422735990707      0.15739735352039     -0.04592403203951
  H   1.40362492969508      1.37586016932584     -0.50211974146787
  C   2.06781956963172     -0.58840842365844      0.14298436132435
  N   2.90759368820162     -1.37394725148797      0.39567407446153
  N   -0.79658375720467     -1.09094054772513      0.45158026014097
  O   -0.54853758131827     -2.11074767295762     -0.18171038845777
  O   -1.46193264206554     -0.97632483487820      1.47565027214008
  N   -1.23083529440424      1.16319764763338     -0.42005880196055
  O   -2.34619453982610      0.72365315002239     -0.67798112137465
  O   -0.85605254497197      2.32640447950349     -0.47212689563399
