11
Coordinates from ORCA-job run
  C   1.03978433978537      0.39957171834525     -0.34285530731827
  C   -0.22536448425115      0.16613484904433      0.02080981807358
  H   1.31913735651846      1.41079172510153     -0.62404337766604
  C   2.02717991550985     -0.62366775702575     -0.36496549543050
  N   2.87529149288231     -1.44000504461375     -0.38736647034944
  N   -0.72168484425634     -1.12917112207764      0.48105224529816
  O   -1.16221449325075     -1.12766059637522      1.62552542942963
  O   -0.63435928716941     -2.07179684329871     -0.29710637788901
  N   -1.25137117122389      1.21719273862321     -0.01355757904826
  O   -2.40991760403726      0.82228641437445     -0.09414997945295
  O   -0.85648122050719      2.37532391790230     -0.00234290564691
