11
Coordinates from ORCA-job run
  C   0.94916951214697     -0.41875632958206     -0.53283102176719
  C   -0.23708327005685     -0.14308892954400      0.01882362123755
  H   1.07959575913934     -1.38279465294151     -1.01557192878198
  C   2.02915540022660      0.50620490172683     -0.52221905127800
  N   2.94480000246614      1.24628476829613     -0.53516644518420
  N   -1.32560553502920     -1.13283457008291      0.04962071671887
  O   -2.16868277963025     -0.96302669330018      0.92377217470576
  O   -1.26811271738355     -2.04226452042135     -0.76630942085455
  N   -0.58086961682852      1.12948067365962      0.64757418344779
  O   -1.51341226159012      1.72598141051189      0.11938244400084
  O   0.09104550653946      1.47481394167754      1.61292472775511
