11
Coordinates from ORCA-job run
  C   1.00380811201458     -0.45068356167249     -0.19138090670980
  C   -0.27026271409301     -0.09109568880292      0.02191407165897
  H   1.17911007824719     -1.51712128456904     -0.31767075547059
  C   2.13515167397193      0.41103668031090     -0.23339808633132
  N   3.13896844435331      1.02572084346868     -0.21869875882391
  N   -1.29098139951152     -1.14447125131962     -0.02759909706659
  O   -1.14463595106523     -2.05739014519807      0.78564876709015
  O   -2.13134256272941     -1.05627496803943     -0.91364652970695
  N   -0.76128973984803      1.29085040001925      0.28790881281809
  O   -1.96306467429578      1.43574404968764      0.47623256636331
  O   0.10353873295596      2.15468492611512      0.33068991617865
