11
Coordinates from ORCA-job run
  C   0.93945921345990     -0.43193496668639     -0.53659323490014
  C   -0.23920876693373     -0.13774731628379      0.02140545664324
  H   1.04169368589074     -1.38570260710688     -1.04618334644402
  C   2.04047108947907      0.46787032421131     -0.52132169358789
  N   2.96990617137873      1.19057821530219     -0.54007826923720
  N   -1.35151327019668     -1.10196243887226      0.02982335163920
  O   -2.17676545658561     -0.94737560305577      0.92330394685823
  O   -1.32817456836417     -1.97952785450362     -0.82199174357058
  N   -0.55292544147313      1.12855996714027      0.67870619405038
  O   0.15022506962826      1.45417499829713      1.62856405827523
  O   -1.49216772628338      1.74306728155782      0.18436528027356
