11
Coordinates from ORCA-job run
  C   1.05829580641618     -0.42023709533355     -0.29809858157768
  C   -0.21953724489682     -0.16948157193830      0.00416515129687
  H   1.33824629060458     -1.43039307709639     -0.58098604270957
  C   2.04555265735578      0.60268382410311     -0.25791648138967
  N   2.87874998518831      1.43417140633865     -0.22748348593280
  N   -0.72946292701512      1.14415033345305      0.38226972303924
  O   -1.21573303067004      1.80273818523841     -0.53074566919374
  O   -0.62320261385976      1.44553896213310      1.56604414087941
  N   -1.25524936438090     -1.21615922168445     -0.01801523959741
  O   -0.90908301616998     -2.32391913261287     -0.40211199521668
  O   -2.36857654257224     -0.87009261260078      0.36287848040202
