11
Coordinates from ORCA-job run
  C   1.08237787983430      0.35582424982694     -0.24062625565445
  C   -0.22351879513648      0.16908983070430     -0.02308132520916
  H   1.41298567102533      1.34030323137054     -0.55901342542092
  C   2.03722693829268     -0.68400858528334     -0.07717247397728
  N   2.85559151023106     -1.52145152086615      0.04573550087858
  N   -0.81012067112871     -1.10925992602771      0.35702831989204
  O   -0.44934125231286     -1.59242236483892      1.42470551752950
  O   -1.61290570544402     -1.56834920377051     -0.44817713759761
  N   -1.19443256485653      1.26616402703304     -0.14388433404636
  O   -2.25098878481208      1.10313855496542      0.45731255263462
  O   -0.84787422569270      2.24297170688639     -0.79382693902896
