11
Coordinates from ORCA-job run
  C   1.03104036078443     -0.45452411044965     -0.30667624897154
  C   -0.22322102000572     -0.15812804922270      0.04923522254223
  H   1.29668679090121     -1.49988707163180     -0.43299890990496
  C   2.02219271742859      0.54621346226401     -0.50264366864155
  N   2.86819562941197      1.34956142395298     -0.66235558494941
  N   -0.70806387808110      1.19350056177891      0.31642968886119
  O   -0.65010467092286      2.00008578206212     -0.60475933478128
  O   -1.11302995700294      1.37489547736021      1.45995301958675
  N   -1.25257857042803     -1.19809258517512      0.20287481596846
  O   -0.85891616786697     -2.34265779833928      0.37903791824485
  O   -2.41220123421857     -0.81196709259969      0.10390308204528
