11
Coordinates from ORCA-job run
  C   1.03975538054582     -0.38564631560752     -0.36465300935086
  C   -0.21893715647008     -0.16833870467385      0.03095477269961
  H   1.32797395452131     -1.39854040342104     -0.62963725333824
  C   2.00666308484138      0.65531799355664     -0.42902810121471
  N   2.83160571563665      1.49320875898214     -0.48991919314967
  N   -0.73402230322939      1.12480431457661      0.47278204063571
  O   -1.13556412247252      1.14762254182380      1.63162581887938
  O   -0.70095173733495      2.04488047225604     -0.33668325475641
  N   -1.22292421620166     -1.24371307697896      0.04566074422549
  O   -0.80105565403794     -2.39191840340341      0.06189996682040
  O   -2.39254294579862     -0.87667717711045      0.00599746854930
