11
Coordinates from ORCA-job run
  C   0.99107809687439      0.21485990696184     -0.57785032896914
  C   -0.22435633874116      0.16226299950872     -0.02314184615825
  H   1.20658422211531      1.02467259619074     -1.26854473703049
  C   1.99359268509564     -0.75679939215224     -0.30724426733252
  N   2.84428427928459     -1.54685246283275     -0.11136741908442
  N   -1.23511182499124      1.20263856216418     -0.27005896485292
  O   -2.11327969082094      1.29832189578874      0.58050276353615
  O   -1.08651372855439      1.89013474819439     -1.27084079212638
  N   -0.67872121047406     -0.89883686504127      0.87170091059574
  O   -1.63712198615643     -1.54216003791873      0.45673607798995
  O   -0.06143450363172     -1.04824195086360      1.92010860343228
