11
Coordinates from ORCA-job run
  C   0.89712797406572     -0.44300338579832     -0.60128372309663
  C   -0.21698506274515     -0.15428114813371      0.07925608458714
  H   1.04016089756174     -1.46325425557350     -0.94468569963316
  C   1.88158281540141      0.53852686460038     -0.90097246764362
  N   2.71331188075992      1.32644201087416     -1.17234663219276
  N   -0.57577021659118      1.18159342880830      0.54814072053367
  O   -1.61802950461512      1.62570728212198      0.07794310807673
  O   0.19127660094553      1.72172233434889      1.33706544369129
  N   -1.20244875189250     -1.18953226488120      0.42857132734182
  O   -1.18078466490054     -2.21804252879791     -0.23325446763720
  O   -1.92944196798983     -0.92687833756907      1.38056630597273
