11
Coordinates from ORCA-job run
  C   0.96781982722644     -0.45190616922291     -0.47082072492749
  C   -0.23282346696044     -0.14627755682450      0.03205080093063
  H   1.12392814697277     -1.45505438588824     -0.85666984957218
  C   2.03008364215491      0.49202609659782     -0.53277689687314
  N   2.93008309923946      1.24773872610772     -0.60458201972710
  N   -0.60968393189278      1.17467713473130      0.52734495896167
  O   -1.52635562895023      1.70937621030860     -0.08733143370851
  O   0.02001252369634      1.61202894209052      1.48360570814989
  N   -1.30782733105874     -1.14635865684530      0.13359469924422
  O   -1.20746922429830     -2.13821428064338     -0.57494381748918
  O   -2.18676765612943     -0.89703606041164      0.95152857501119
