11
Coordinates from ORCA-job run
  C   1.04834586885316     -0.51287968914356     -0.01779706493457
  C   -0.23666156066299     -0.14321664281290     -0.01339885473751
  H   1.27853450977156     -1.57287286525225     -0.07309101587464
  C   2.11158036891335      0.42822472931620      0.06641089044603
  N   3.01669706066573      1.17766544242289      0.13966918343522
  N   -1.32562412729319     -1.12400903369684     -0.14904094029983
  O   -1.05313883178213     -2.28935123599075      0.10316011771590
  O   -2.39786317490934     -0.67360449881522     -0.53780920766777
  N   -0.69981929963518      1.23515077677544      0.12016759684818
  O   -0.36544746152560      2.02312414808644     -0.75705778368070
  O   -1.37760335239537      1.45276886911054      1.11878707874968
