11
Coordinates from ORCA-job run
  C   1.05260777858519      0.28332971478334     -0.40637440021244
  C   -0.21539838805126      0.17374760566705      0.00424519567856
  H   1.37871999232788      1.23931423936835     -0.80604572569572
  C   1.97974633979030     -0.79230568054801     -0.33461112183026
  N   2.77776488446546     -1.65591282951219     -0.28016064817068
  N   -1.16539029281533      1.28969278455610     -0.13092867683296
  O   -0.69199296855413      2.41714442510340     -0.17196305818425
  O   -2.34473043699174      0.96797889361171     -0.22488591997572
  N   -0.78761675948551     -1.01913555346015      0.62317509343642
  O   -1.28669249118199     -0.83197997849798      1.72754690019652
  O   -0.69701765808888     -2.07087362107160      0.00100236159052
