11
Coordinates from ORCA-job run
  C   1.09886058405135      0.31730595387111     -0.23234856164163
  C   -0.21896881535782      0.15370290039701     -0.07592235740674
  H   1.44947359279433      1.21025337978406     -0.74138724380336
  C   2.04600196188276     -0.62286039527180      0.25898410056193
  N   2.85764568865858     -1.37702064879680      0.65740162464704
  N   -0.83299054727218     -0.96034250182026      0.64162426169528
  O   -1.49302318717567     -0.63489484756761      1.62302139317353
  O   -0.62000096150376     -2.08801178217003      0.21071735552498
  N   -1.19047315901039      1.10741973890693     -0.63350994815140
  O   -2.32112540414627      0.66707679184706     -0.81105281842808
  O   -0.77539975292092      2.22737141082034     -0.89752780617154
