11
Coordinates from ORCA-job run
  C   0.98965426104268      0.24417800137464     -0.57110381528594
  C   -0.22494396249399      0.16124299140255     -0.01834676540653
  H   1.20302130979251      1.08443418258458     -1.22499681443050
  C   1.99841564527266     -0.73158301071815     -0.34097153375610
  N   2.85066564918553     -1.52637002423984     -0.17392985697363
  N   -1.24135429542187      1.20602393378820     -0.21783477637386
  O   -1.10592154272122      1.92920299319022     -1.19518583620462
  O   -2.10838572564212      1.26991819369162      0.64691571681820
  N   -0.67383558348948     -0.93922467034080      0.83143857081385
  O   -0.04487413873540     -1.14062385063802      1.86423793542631
  O   -1.64144161678929     -1.55719874009500      0.39977717537282
