15
Coordinates from ORCA-job run
  C   1.01943380763479      0.05615999947198     -0.50757244092927
  C   -0.38506920351023     -0.49846864000219     -0.19066656378353
  H   1.23207288186399     -0.10664460224481     -1.56828946160127
  H   -0.39036824909507     -1.56603014904455     -0.43600984519941
  C   2.01630474056744     -0.65851899223709      0.29494122906299
  N   2.79019774782807     -1.25959604763871      0.94154918685189
  C   1.07870286203000      1.49836252858831     -0.24455241657592
  N   1.09818186512574      2.65121774375701     -0.02321966869626
  N   -1.36055279922825      0.11797028075799     -1.17626110400204
  O   -2.53031269787822      0.19966190234476     -0.82254017717559
  O   -0.91806086310524      0.43734981658802     -2.27706995094452
  C   -0.83117512325516     -0.26000944464424      1.23564005053892
  H   -1.80757621208288     -0.70845822052719      1.40634029560664
  H   -0.11335343479889     -0.71268470655705      1.92250082420844
  H   -0.89942532209608      0.80868853138776      1.44621004263894
