15
Coordinates from ORCA-job run
  C   0.99857506332635      0.08074926610164     -0.54344489849419
  C   -0.38099572243797     -0.50456210910493     -0.17593682870824
  H   1.17161333213821     -0.07127843068563     -1.61303389265379
  H   -0.37078131766014     -1.57189233141612     -0.42219446864826
  C   2.04004051700946     -0.62155327081857      0.21180890670942
  N   2.84861788281646     -1.22045300999891      0.81685826771909
  C   1.03920583708112      1.52193210471095     -0.27275847782913
  N   1.04109853865488      2.67343797045268     -0.04434090952792
  N   -1.40420112501289      0.08985335082334     -1.12628584620676
  O   -2.55886392354040      0.16528046633069     -0.72447236956981
  O   -1.01108720975080      0.40109877986859     -2.24794311592925
  C   -0.78043553312073     -0.27580524704573      1.26555192240738
  H   -0.02514662705909     -0.70717340287633      1.92554957991568
  H   -1.73713266643666     -0.75062383520569      1.47309566321247
  H   -0.87050704600781      0.79098969886400      1.47754646760332
