15
Coordinates from ORCA-job run
  C   0.86775655501564      0.60947953860182      0.01640952957189
  C   -0.27390173448181     -0.40368799846387     -0.19060675578062
  H   0.43866776118287      1.52674866382822      0.43466462086150
  H   0.09579495054079     -1.28784835594197     -0.71246899661322
  C   1.50818962501237      0.94178162860023     -1.26100355081171
  N   2.00034770651376      1.18841851681964     -2.29795357694325
  C   1.84828009715824      0.06205272932358      0.95778262696547
  N   2.60548308487231     -0.40005933015608      1.72690802102334
  N   -1.27528898182149      0.21876104730354     -1.12411744200405
  O   -1.80864868704727     -0.53151008959554     -1.93407378361117
  O   -1.51879508562419      1.41279146203753     -0.96452865351712
  C   -0.98812222165183     -0.76389069105436      1.09985026796454
  H   -1.82279432861393     -1.43277924664511      0.88224904908414
  H   -0.30495305819704     -1.27507711234762      1.77975889627030
  H   -1.37201568285840      0.13581923768999      1.58612974753995
