15
Coordinates from ORCA-job run
  C   0.86915489262961      0.60632880059752      0.03163416000488
  C   -0.27183758134199     -0.40315725391774     -0.19576905700436
  H   0.43617789960036      1.52388570180947      0.44541529123239
  H   0.10355944116128     -1.28707054944711     -0.71386291131925
  C   1.53071137549248      0.93980110912057     -1.23470753628346
  N   2.03911122610727      1.18658675879332     -2.26383990752094
  C   1.83368535553480      0.05485063008376      0.98703677553700
  N   2.57827214587747     -0.40822064517905      1.76789620518756
  N   -1.25649466707893      0.22461902184002     -1.14332084100620
  O   -1.77542774721140     -0.52065605945296     -1.96710399292574
  O   -1.50206495533792      1.41802422810077     -0.98097099007312
  C   -1.00800753007961     -0.76373100500219      1.08211988199077
  H   -1.83591705241915     -1.43602435741118      0.85047070576430
  H   -1.40389421518521      0.13555899439782      1.55907138649003
  H   -0.33602858774905     -1.27079537433301      1.77593082992613
