15

C	0.0	0.0	0.0
C	-0.581364	0.078358	-1.398651
Cl	1.782039	0.0	0.0
H	-1.685935	0.021329	-1.250781
H	-0.319798	-0.95325	0.418505
C	-0.480088	1.159775	0.854563
H	-0.110456	2.106714	0.454758
H	-1.571332	1.157766	0.87004
H	-0.100973	1.041277	1.871018
N	-0.2038	-1.127773	-2.219068
O	0.055079	-0.961319	-3.408061
O	-0.229694	-2.205371	-1.636699
C	-0.215704	1.296276	-2.106062
N	0.068218	2.31508	-2.616085
Br	-3.748487	0.0	0.0
