15

C	0.0	0.0	0.0
C	-0.280466	0.084708	-1.528482
Cl	1.784318	0.0	0.0
H	0.281857	-0.734984	-1.980992
H	-0.340665	-0.98747	0.314205
C	-0.563103	1.07121	0.90014
H	-0.157806	2.050838	0.65546
H	-1.652165	1.065315	0.791031
H	-0.310502	0.824881	1.934299
N	0.377745	1.320221	-2.120886
O	-0.010309	2.410761	-1.717728
O	1.229368	1.131898	-2.984588
C	-1.604644	0.050871	-2.161267
N	-2.375492	0.011724	-3.050571
Br	-3.857615	0.0	0.0
