15

C	0.0	0.0	0.0
C	-0.287906	0.157081	-1.520291
Cl	1.784302	0.0	0.0
H	0.399795	-0.52082	-2.027693
H	-0.333586	-1.004527	0.267037
C	-0.573906	1.021186	0.947641
H	-0.317605	0.734497	1.969962
H	-1.662094	1.010622	0.833817
H	-0.182765	2.017571	0.745524
N	0.159648	1.521779	-2.009828
O	-0.468223	2.496139	-1.611525
O	1.10947	1.54265	-2.78976
C	-1.587719	-0.087681	-2.153205
N	-2.359862	-0.2962	-3.016017
Br	-3.898973	0.0	0.0
