15

C	0.0	0.0	0.0
C	-0.292703	0.384854	-1.478119
Cl	1.784282	0.0	0.0
H	0.402074	-0.198436	-2.084335
H	-0.33189	-1.033302	0.117027
C	-0.563438	0.872563	1.093874
H	-0.154501	1.880888	1.049503
H	-1.651774	0.897616	0.984252
H	-0.31135	0.428948	2.059701
N	0.13425	1.813608	-1.748803
O	-0.513498	2.705997	-1.213492
O	1.091887	1.969222	-2.503855
C	-1.590308	0.216623	-2.140719
N	-2.342335	0.119215	-3.040267
Br	-3.873829	0.0	0.0
