15

C	0.0	0.0	0.0
C	-0.579882	0.086611	-1.397985
Cl	1.782041	0.0	0.0
H	-1.684969	0.02145	-1.25331
H	-0.32097	-0.954402	0.414667
C	-0.4794	1.156616	0.858713
H	-0.092572	1.038062	1.872699
H	-0.114819	2.105797	0.458739
H	-1.570543	1.152129	0.882284
N	-0.189675	-1.112161	-2.226382
O	0.088402	-0.933817	-3.408168
O	-0.221996	-2.195762	-1.653341
C	-0.221293	1.311054	-2.098468
N	0.038744	2.325289	-2.63062
Br	-3.742771	0.0	0.0
