15
Coordinates from ORCA-job run
  C   -0.76952000472434     -0.17410539247740     -0.20025253609391
  C   0.51584966131601      0.21797216945742     -0.88381052398287
  F   -1.79698585458269     -0.12464021340313     -1.14862643486220
  H   0.34695587794437      1.17839969853212     -1.37122397592404
  H   0.66734726445093     -0.52051661458384     -1.67892473460681
  N   -0.70250564506442     -1.39146594631196      0.48298562704001
  H   -1.58004536176277     -1.61514692386749      0.93311712395042
  H   -0.40388420008531     -2.13726388707720     -0.12988081939041
  N   -1.23071117907535      0.88168882487746      0.81030551780535
  O   -0.81020139678539      2.02470681723945      0.67028567718834
  O   -2.05044024068108      0.51155368058462      1.64453469807371
  C   1.72218559161383      0.27205334912752      0.04524954462416
  H   1.87966401232079     -0.68274858735021      0.54677829576116
  H   1.59253289630765      1.04249456175103      0.80578979186282
  H   2.62075857880776      0.51501846350161     -0.52532725144574
