15
Coordinates from ORCA-job run
  C   -0.71785449381811     -0.01456874714953     -0.20646258334088
  C   0.63066059804733      0.59096026052597      0.14985957929102
  F   -0.90489446033399      0.09460860129000     -1.54714099326399
  H   0.71775867242485      0.59723775145728      1.23937966281214
  H   0.62118467095235      1.63161338847755     -0.18998583137476
  N   -1.00796969189763     -1.35691346438997      0.16737134718998
  H   -0.38184053038673     -1.99481628848208     -0.30528323231189
  H   -0.94081857098083     -1.47230140571348      1.16928734268499
  N   -1.78292169587328      0.84275820560893      0.47745780533316
  O   -1.87851931327566      0.67147946368074      1.68990710905430
  O   -2.41211021257560      1.63701214851811     -0.20385014330742
  C   1.78812715353497     -0.16623987482296     -0.49067561330409
  H   1.86692134815772     -1.18386062602723     -0.10205193756700
  H   2.73231225870525      0.33712735297827     -0.27655087255901
  H   1.67096426731935     -0.21409676595160     -1.57426163933653
