15
Coordinates from ORCA-job run
  C   -0.83274584396184     -0.17568659936885     -0.32602178991912
  C   0.49185041675535      0.21072247394836     -0.93907775993800
  F   -1.84700782394812      0.03645586913640     -1.21643081456926
  H   0.65720564555430     -0.48203620575699     -1.76774570677257
  H   0.36220174048791      1.21144839492017     -1.35502037264062
  N   -0.90210263954787     -1.49748713655948      0.13016186270776
  H   -1.78324774022977     -1.67765270582194      0.59479112723645
  H   -0.14793753270447     -1.71171204584549      0.76588807911941
  N   -1.12992167574563      0.86955642096341      0.80028758799438
  O   -1.24631666340327      2.03623512746737      0.44627615776754
  O   -1.18643186636225      0.45164746417147      1.95460688716129
  C   1.65743833926014      0.18382668037858      0.04433811500868
  H   1.48871307370210      0.85287436202713      0.89073117417633
  H   1.84779524740374     -0.81999985571154      0.43110517781001
  H   2.57050732273967      0.51180775605139     -0.45488972514228
