15
Coordinates from ORCA-job run
  C   -0.61721147887744     -0.09865646636790     -0.22857921342741
  C   0.65986858913163      0.59720414568494      0.18848299983029
  F   -0.79256200491473     -0.02902383912485     -1.57309226046308
  H   0.56528354376459      1.64629362338023     -0.10815997583950
  H   0.71964336167074      0.57070979377366      1.28014223289178
  N   -0.68440066248657     -1.45184585147962      0.16350484311201
  H   -0.66081555536865     -1.53116596780425      1.17103871077679
  H   -1.52639244738587     -1.88802339626316     -0.19267863415346
  N   -1.78597365070729      0.73363171714143      0.37511772036853
  O   -1.95831478087141      0.56531368067601      1.58075611200875
  O   -2.40344659424313      1.50110252128174     -0.34963822438744
  C   1.88776499638576     -0.03691761590134     -0.45392852341623
  H   1.81258478502508     -0.00242836271320     -1.54135093343702
  H   2.78767982997094      0.50551506569198     -0.15775297128233
  H   1.99329206890634     -1.07870904797565     -0.15286188258170
