15
Coordinates from ORCA-job run
  C   -0.79252044476079     -0.22846234996143     -0.38246165130991
  C   0.55301868602337      0.21527646727334     -0.90386484315590
  F   -1.74225945298433     -0.10417536967380     -1.35600517423662
  H   0.40478781028097      1.19904388564747     -1.35299375404863
  H   0.81526274864254     -0.48496474626835     -1.70065233617041
  N   -0.82542990375232     -1.53808835487996      0.11289401196297
  H   -1.73828553157922     -1.76080218506244      0.48977690140490
  H   -0.13234628534729     -1.68057394477356      0.83284133935235
  N   -1.23447398015572      0.83199754846212      0.68098665691697
  O   -1.33773227716000      0.45042131641342      1.84470765573945
  O   -1.40492567404705      1.97511766153276      0.27591748958617
  C   1.64035165500921      0.26777148324305      0.16436268314224
  H   2.57005732992256      0.63710086515037     -0.27115909304750
  H   1.37256922896410      0.93909000669730      0.98301044500072
  H   1.85292609094395     -0.71875228380027      0.58263966886324
