14

C	-0.410594	-0.110872	-1.462658
C	0.0	0.0	0.0
Br	-2.358298	-0.359836	-1.674911
H	1.099717	0.0	0.0
H	0.023089	-1.050281	-1.813764
C	0.020402	0.946298	-2.368485
N	0.3512	1.704533	-3.202818
N	-0.416862	-1.085038	0.813931
H	0.365685	-1.676633	1.055111
H	-1.215851	-1.593741	0.466131
N	-0.463698	1.315308	0.60099
O	-0.849261	2.196705	-0.167451
O	-0.387687	1.423439	1.81504
Cl	3.199429	0.0	0.0
