14

C	-0.406827	-0.01186	-1.478096
C	0.0	0.0	0.0
Br	-2.361436	-0.217656	-1.690693
H	1.092574	0.0	0.0
H	0.019201	-0.923287	-1.901155
C	0.008178	1.118197	-2.297094
N	0.296374	1.970593	-3.051394
N	-0.403332	-1.132671	0.7476
H	-1.297232	-1.520857	0.486846
H	0.333425	-1.821459	0.7676
N	-0.520283	1.272599	0.624365
O	-0.055876	2.317647	0.173618
O	-1.379585	1.19319	1.498258
Cl	3.216762	0.0	0.0
