14

C	-0.396797	-0.008919	-1.481684
C	0.0	0.0	0.0
Br	-2.343391	-0.254897	-1.716224
H	1.092615	0.0	0.0
H	0.053709	-0.905953	-1.909813
C	0.001356	1.142262	-2.279902
N	0.287057	2.015294	-3.015026
N	-0.407157	-1.131449	0.748879
H	0.328372	-1.822365	0.763544
H	-1.298901	-1.518946	0.482479
N	-0.528908	1.270585	0.620596
O	-0.014264	2.316327	0.228678
O	-1.448487	1.185327	1.431032
Cl	3.21954	0.0	0.0
