14

C	-0.490617	-0.068339	-1.43693
C	0.0	0.0	0.0
Br	-2.463867	-0.059753	-1.498855
H	1.095482	0.0	0.0
H	-0.205338	-1.057489	-1.796087
C	-0.002977	0.935286	-2.369283
N	0.359852	1.656278	-3.223916
N	-0.426901	-1.140646	0.733523
H	0.237506	-1.315202	1.474903
H	-1.343507	-1.001842	1.136524
N	-0.432366	1.316826	0.625894
O	-0.91592	1.281218	1.755225
O	-0.248914	2.334691	-0.032069
Cl	3.210077	0.0	0.0
