13
Coordinates from ORCA-job run
  C   0.79304977164690     -0.15187221266141     -0.01514981572606
  C   -0.48601229501580      0.20788398268168      0.17442826298571
  N   1.18358512216714     -0.80278954197351     -1.29522743411566
  O   1.95789612725721     -1.74357544320814     -1.18431902421166
  O   0.70138465638670     -0.33366123679109     -2.31743304687425
  C   1.84048119329010     -0.00110387437896      0.92661776827831
  N   2.75322344360319      0.11013713581800      1.66459608917708
  N   -1.54431984803817      0.01431823633086     -0.81681732947180
  O   -1.80876800857277     -1.13884320471244     -1.12807068969511
  O   -2.06464208314763      1.05365918585131     -1.20280852940434
  N   -0.98233619540881      0.79357415714622      1.42645678618189
  O   -2.13001045728100      0.47617856923741      1.72032240282295
  O   -0.21353142688703      1.51609424666005      2.04740456005297
