13
Coordinates from ORCA-job run
  C   0.64855437907382     -0.46230980297143     -0.13183453379262
  C   -0.53029182537131      0.13247743115187      0.10868067159707
  N   1.78439270973202      0.35408234856163     -0.64063256835515
  O   1.52318668727644      1.17271501455064     -1.51183571365200
  O   2.86880492562998      0.11000729844723     -0.12950179103358
  C   0.94392297177900     -1.82982340844896      0.09007552593026
  N   1.25028999512001     -2.95542279067914      0.26120504039675
  N   -0.78553439181793      1.55582861861240     -0.11315683729071
  O   -1.66001093031329      1.78520648812951     -0.93928904269659
  O   -0.13127500038125      2.34676856853871      0.55254706523993
  N   -1.68937879975731     -0.57099944354675      0.67337373371985
  O   -2.39507963596856      0.11169318095396      1.40827765497783
  O   -1.82758108500162     -1.74922350329971      0.37109079495896
