13
Coordinates from ORCA-job run
  C   0.76911744708741     -0.24417928473195      0.05194424640791
  C   -0.48644262622057      0.21933292038170      0.15207212137178
  N   1.15470311726435     -1.05411730296511     -1.13507681349220
  O   2.25600985884671     -0.79718116545719     -1.60255106063271
  O   0.34545761007044     -1.88937480312587     -1.51547889672924
  C   1.81126861120804     -0.00565154033313      0.98151654339410
  N   2.69555779929664      0.15530311796308      1.74450697512800
  N   -0.94434694339614      1.07907770145179      1.25111863262707
  O   -1.76794860953632      1.92807009609294      0.92687366654588
  O   -0.46096567027580      0.87558933025480      2.35737507885337
  N   -1.53149198144018     -0.03105955423937     -0.84065658595470
  O   -1.34469887579867      0.40814647764248     -1.96698060488690
  O   -2.49821973710590     -0.64395599293417     -0.40466330263235
