13
Coordinates from ORCA-job run
  C   0.76834935487443     -0.21257846824679     -0.12946823857436
  C   -0.44188334658590      0.22102962909863      0.25634850107810
  N   0.95479487280620     -0.70698804588579     -1.52062658849001
  O   1.63993731655215     -1.71517144059320     -1.62590931297383
  O   0.41578428494627     -0.06000750811849     -2.40857756742368
  C   1.91977305258817     -0.28244220923467      0.69278956756072
  N   2.90849251832328     -0.35985833685180      1.33037666782669
  N   -1.61383587587236      0.25563717156444     -0.61862054334772
  O   -2.06878562602971      1.37803181341792     -0.80116957029301
  O   -2.02066974789670     -0.81665714685608     -1.04426025480730
  N   -0.74186010642350      0.66476544284690      1.62368785087525
  O   0.15551013550776      1.22906331830613      2.23616421384012
  O   -1.87660683279007      0.40417578055280      2.00926527472904
