13
Coordinates from ORCA-job run
  C   0.64470700469701     -0.47294070383651     -0.11610556885955
  C   -0.52874502458221      0.14142724860544      0.10049757057443
  N   1.79726869523409      0.31959880165948     -0.62448715996455
  O   1.55709810835978      1.12911940212080     -1.51019025896921
  O   2.87280654199206      0.06740477270232     -0.09863116297642
  C   0.91817846267426     -1.84060335463166      0.13138496555976
  N   1.19924917392523     -2.96966054411012      0.32193937397620
  N   -1.70351153495639     -0.53703249157756      0.66268202801409
  O   -1.85824848027601     -1.71624011709497      0.37238888848636
  O   -2.40422691268504      0.16540710662674      1.38369612834491
  N   -0.76234042416286      1.56415834364811     -0.14746036652249
  O   -0.10598808200442      2.35769396030777      0.51288695031047
  O   -1.62424752821550      1.79066757558016     -0.98760138797400
