13
Coordinates from ORCA-job run
  C   0.71137152857218     -0.38125663858829     -0.01534954226305
  C   -0.44212074891124      0.26730441418345      0.20832503821720
  N   0.94681137904270     -1.01031125147525     -1.34341669831543
  O   2.07376302116484     -0.86194447540674     -1.79600032714690
  O   0.00275302203779     -1.61004863218695     -1.84005368237064
  C   1.78096706878597     -0.50288203419380      0.90549000784718
  N   2.70448929543765     -0.63409324985524      1.62658507503039
  N   -1.51431881958632      0.38999424353727     -0.77915902132205
  O   -2.57315952251002     -0.11983537251519     -0.43427905656580
  O   -1.25323959376888      0.99643347204610     -1.80906749699355
  N   -0.73955553211682      0.97565715065404      1.45990672894768
  O   -0.28068359173080      0.50236806175865      2.49138992655554
  O   -1.41807750641703      1.98861431204194      1.32562904837945
