13
Coordinates from ORCA-job run
  C   0.61690698950964     -0.46998410964934     -0.22605761984979
  C   -0.48209869414299      0.14649353048487      0.23615896541127
  N   1.72932355946400      0.34636950549341     -0.78305255316051
  O   2.02188787209057      1.36429560574408     -0.16998121803429
  O   2.23969651860250     -0.09814218483978     -1.80233982846636
  C   0.81864990202020     -1.87143626524354     -0.27135493849189
  N   1.04092280219432     -3.02815704878456     -0.32277755011655
  N   -0.66083951044044      1.59830493557745      0.24438906714296
  O   -0.80145736505431      2.07892809025728      1.36211399791404
  O   -0.67652804744513      2.16165808916905     -0.84145315896893
  N   -1.65847557669602     -0.57254315641767      0.74206409712427
  O   -1.45742036802597     -1.63027459012616      1.32471329249529
  O   -2.73156808207636     -0.02651240166509      0.50857744700050
