13
Coordinates from ORCA-job run
  C   0.63522986946591     -0.48002567026418     -0.13812473448237
  C   -0.52275946550739      0.14840156010956      0.11866843480658
  N   1.78160360818329      0.29912828618120     -0.67892859258666
  O   2.87083354715486      0.02491167710597     -0.19361366590614
  O   1.52390086669617      1.12151729167211     -1.54777740827490
  C   0.89707610833322     -1.85265479863896      0.09467729193007
  N   1.16375184216344     -2.98916993603395      0.25980825473142
  N   -0.74631143100527      1.57493907730651     -0.11554188698311
  O   -1.62873222928366      1.81532731540891     -0.93027524007233
  O   -0.06305173279051      2.35768201752081      0.53011974890624
  N   -1.68791498271848     -0.51729533990411      0.71511863858193
  O   -2.35496436962957      0.19072330498371      1.46218583771747
  O   -1.86866163106201     -1.69248478544755      0.42368332163179
