13
Coordinates from ORCA-job run
  C   0.61001047689796     -0.51139131878195     -0.13741910320473
  C   -0.51588209430848      0.17466616972176      0.11378220278923
  N   1.80463329347758      0.21311561058083     -0.65020020461502
  O   2.87040793537022     -0.12743033306691     -0.15517119331199
  O   1.60364347747147      1.06177157336820     -1.50858107409974
  C   0.79456115177434     -1.89962122737123      0.07606178280533
  N   1.00064375004710     -3.05106358857490      0.22362860763327
  N   -1.72327120570591     -0.43712784572705      0.68373793265100
  O   -2.36196905541061      0.29332797535946      1.43390540304046
  O   -1.96239830991621     -1.59614286595050      0.37021264600197
  N   -0.65987339743155      1.61496413123277     -0.09889117014067
  O   -1.51721529196102      1.91617773369645     -0.91997423483695
  O   0.05570926969508      2.34875398551308      0.56890840528782
