13
Coordinates from ORCA-job run
  C   0.63990363879963     -0.47221550181073     -0.13903764650934
  C   -0.52510880152943      0.14170181030455      0.11988504683143
  N   1.77427774808481      0.32060403405511     -0.68677041948723
  O   2.86747331179473      0.06747879352176     -0.19922259308797
  O   1.50352888577093      1.13123242726641     -1.56256213646556
  C   0.92219064168299     -1.84033254733540      0.09598584231737
  N   1.20894657242997     -2.97078880702173      0.26886940022865
  N   -1.67917774551937     -0.53777545113130      0.72200471524982
  O   -2.35337389795768      0.16321141881812      1.46923416815734
  O   -1.84464101659728     -1.71623753119814      0.43453380625444
  N   -0.76725619182839      1.56489507916408     -0.11748207822518
  O   -0.08815243736849      2.35699634517109      0.52133493724150
  O   -1.65761070776242      1.79322993019617     -0.92677304250526
