13
Coordinates from ORCA-job run
  C   0.59169669856909     -0.49159336875207     -0.24661310825988
  C   -0.47478425297938      0.16203907375445      0.24024510845892
  N   1.76098252649663      0.28614464077508     -0.73899097604906
  O   2.09558796833427      1.25450818661079     -0.06967965872064
  O   2.26991022403652     -0.13594761571364     -1.76850031857247
  C   0.70644578426329     -1.89770695602700     -0.37563226494632
  N   0.85343489262793     -3.05943019654753     -0.51299645049060
  N   -1.69864912894700     -0.51415025661632      0.68900772950911
  O   -2.73435516828914      0.10702736393554      0.47496688121778
  O   -1.56881173618790     -1.61360024758923      1.21169346973308
  N   -0.56892577601942      1.61890643740094      0.33468423314275
  O   -0.69193224754745      2.03923872816869      1.47837999370223
  O   -0.54259978435741      2.24556421060032     -0.71556463872488
