13
Coordinates from ORCA-job run
  C   0.56693541771763     -0.49884841458719     -0.28678775005731
  C   -0.49228189663157      0.16832140017074      0.19738446665011
  N   1.73320029895308      0.26568704747223     -0.80680719634730
  O   1.48229683968982      1.24831494509365     -1.49163510859394
  O   2.82825800460287     -0.18110673370940     -0.49370897851381
  C   0.70761254962715     -1.90800012353581     -0.32281390513871
  N   0.87716353027348     -3.07361169017758     -0.37457875101323
  N   -0.58931014852169      1.62750999356040      0.23818550876293
  O   -1.51468384963831      2.08625753259490     -0.41988648036274
  O   0.22884210131673      2.21854115655520      0.92947846335425
  N   -1.66059743752191     -0.49427155290542      0.79164232849066
  O   -2.18186327861099      0.11973513850878      1.71654729251189
  O   -1.98557213125632     -1.57752869904048      0.32298011025719
