13
Coordinates from ORCA-job run
  C   0.62433305876666     -0.49448649780419     -0.13292492712958
  C   -0.49336773828236      0.17460675140297      0.19013541897257
  N   1.77182326209713      0.24769475425605     -0.72228859345507
  O   2.33260459427704     -0.31655401619747     -1.65182084399828
  O   2.03888380329490      1.33126011925819     -0.22029359197341
  C   0.81767668799696     -1.89122320830546      0.00286445134767
  N   1.03761818394166     -3.04580553869696      0.09590315004724
  N   -1.70084396992088     -0.47687442270942      0.71370388174201
  O   -1.53985927563072     -1.45769450272895      1.42848170947687
  O   -2.75564217304792      0.03869095429041      0.35889760420748
  N   -0.66152268012929      1.61706361561385      0.01313392141273
  O   -0.86011053221840      2.22930440981270      1.05509587462790
  O   -0.61259322114479      2.04501758180830     -1.13188805527811
