13
Coordinates from ORCA-job run
  C   0.63506548846449     -0.47994171735160     -0.13568344942145
  C   -0.52472153718012      0.14834261608332      0.11265629342837
  N   1.78983735360728      0.30207883950457     -0.65506327280254
  O   2.87303504359318      0.01917271731840     -0.16146367761390
  O   1.54361503844462      1.13509732082984     -1.51705214328160
  C   0.89156005480392     -1.85523841085992      0.08702539850714
  N   1.16449122083329     -2.99018019147126      0.25285701875613
  N   -0.74310000530562      1.57780466432793     -0.10861448040425
  O   -1.61447720886660      1.82904223361058     -0.93181133715060
  O   -0.06695113699773      2.35179505030907      0.55483470474546
  N   -1.69838301036270     -0.52203286658840      0.68714517236559
  O   -2.37603036408031      0.17984491180987      1.43051987695484
  O   -1.87494093695366     -1.69478516752239      0.38364989591683
