13
Coordinates from ORCA-job run
  C   0.61584433335869     -0.49837032702988     -0.15586830214813
  C   -0.51593906517655      0.16333869913594      0.13130492335358
  N   1.77463496436981      0.25077156139554     -0.71349934510193
  O   2.86392997387516     -0.05758359883831     -0.24956341390682
  O   1.52468456285505      1.08499485234738     -1.57316835824653
  C   0.84005566353485     -1.88082650365115      0.05689586886628
  N   1.08169271880646     -3.02564914926831      0.20204220716449
  N   -1.68843631519589     -0.47258721576110      0.74601731665207
  O   -2.31807757724334      0.24753652434294      1.51358617552900
  O   -1.91065624802449     -1.63890853352003      0.44753080657000
  N   -0.69942993131018      1.59875833322152     -0.08342093137376
  O   0.02526229811866      2.35207439417839      0.55213931201820
  O   -1.59356537796825      1.87645096344704     -0.87299625937643
