13
Coordinates from ORCA-job run
  C   0.60385043860291     -0.51353949700365     -0.15412329802979
  C   -0.51255856991961      0.17632182632273      0.12704714788819
  N   1.78870194549802      0.20836259794677     -0.69262121639166
  O   2.86430726547921     -0.13521249687557     -0.22152120410794
  O   1.57091555817360      1.05816583650337     -1.54578450872444
  C   0.78815629893803     -1.90333143238682      0.04867157144348
  N   0.99601723677345     -3.05557121395756      0.18737223751556
  N   -1.70873955958829     -0.43262256422642      0.72308682910378
  O   -2.32738142167329      0.29764288794542      1.48996546198330
  O   -1.95898960871645     -1.58986246530578      0.41159449219364
  N   -0.65449297486015      1.61801876563888     -0.07632581714986
  O   0.08287649848422      2.34535623835131      0.57478814325342
  O   -1.53166310719165      1.92727151704731     -0.87314983897768
