13
Coordinates from ORCA-job run
  C   0.65610270365363     -0.47048366924359     -0.03630728000582
  C   -0.51553294135157      0.16266827653390      0.13095128754431
  N   1.81608361701744      0.28160624227431     -0.58711434015433
  O   2.48100574530694     -0.32427738653240     -1.41635080341953
  O   1.98891570259818      1.41390444834687     -0.15638888024646
  C   0.90001319614047     -1.83932010603119      0.23431059945864
  N   1.16332329937011     -2.96813451327649      0.45010176647209
  N   -1.73504929776617     -0.50695254390448      0.60189805875951
  O   -1.59496107581837     -1.41962750486554      1.40573584617279
  O   -2.77592142981388     -0.07509166858334      0.11794321834796
  N   -0.73239219763167      1.57549548432160     -0.18073597632260
  O   -0.60215938111043      1.91227646204593     -1.34957200299908
  O   -1.04942794059467      2.25793647891442      0.78552850639251
