13
Coordinates from ORCA-job run
  C   0.75227517871690     -0.28709889698056     -0.08120227790048
  C   -0.44643213396161      0.22346564548382      0.24106954788992
  N   0.92355416969911     -0.97361411277664     -1.39031292111999
  O   0.01865531931031     -1.71887345790870     -1.74126606349388
  O   1.96742462548978     -0.71954572956495     -1.97606103882437
  C   1.92337533294066     -0.20523984783720      0.71173211056590
  N   2.90734012999517     -0.17281065430518      1.36056183468573
  N   -1.62847065629616      0.13663381398136     -0.61677105402949
  O   -2.56375574684752     -0.47748632003025     -0.11861003606922
  O   -1.56769765884130      0.69480139748631     -1.70363349323223
  N   -0.69827635907553      0.97591877088223      1.47655249399804
  O   -1.51033423819873      1.88807724966146      1.36282606712976
  O   -0.07865796293110      0.63277214190830      2.47511483040030
