13
Coordinates from ORCA-job run
  C   0.64782518369168     -0.42970646916101     -0.12535140000852
  C   -0.51759406809873      0.19533360349162      0.09719775523096
  N   1.88641097262355      0.28741140663952     -0.50978386020733
  O   2.68955483081958      0.44179543151303      0.39828512489623
  O   1.98896507582916      0.58839877571196     -1.68880101819697
  C   0.79022121883459     -1.83207454956483      0.02964064983019
  N   0.91155260330940     -2.99687494742001      0.16557795677229
  N   -1.70850235028196     -0.56059544994050      0.49181476945879
  O   -2.33898185445922     -1.08697118839457     -0.41733596602427
  O   -1.93889078235528     -0.57342264656372      1.69501738564676
  N   -0.74479306540566      1.63761841104374     -0.01733604827444
  O   0.25427053268721      2.34055180923409     -0.10017559246271
  O   -1.92003829719431      1.98853581341068     -0.01974975666098
