13
Coordinates from ORCA-job run
  C   0.73108365910854     -0.34393890655948      0.00281054403973
  C   -0.41608392100920      0.33676999027752      0.15166768638867
  N   0.92891819069233     -1.17927648820525     -1.21277426565293
  O   0.56233586313143     -0.69521713102407     -2.27528847200034
  O   1.44794427080922     -2.26945533945664     -1.01513675463105
  C   1.79707662444191     -0.37668994470282      0.93514315399601
  N   2.71215418009019     -0.44187284362138      1.67572812276833
  N   -1.50502944117098      0.32554424360983     -0.82504069504474
  O   -2.05074689692983     -0.74897787746490     -1.03533806445288
  O   -1.75892755611510      1.42374342790834     -1.30413478194476
  N   -0.73194917768361      1.13429729702006      1.34355403174371
  O   0.20145819942991      1.69718093653462      1.90106551210426
  O   -1.91723399479479      1.13689263568418      1.65874398268600
