13
Coordinates from ORCA-job run
  C   0.64551346738671     -0.48396930293082     -0.03094616827900
  C   -0.52329990892170      0.16262053436101      0.09912849886356
  N   1.87381367002330      0.29161041188951     -0.35493051578779
  O   2.61115628526712     -0.22540543690818     -1.18304164766320
  O   2.02311012383155      1.35243162402971      0.23661247117415
  C   0.83037833961352     -1.88420170665981      0.07805622956260
  N   1.04541532176493     -3.04067235939692      0.15819244499791
  N   -1.79917942106805     -0.51973815409510      0.35111784916314
  O   -2.77374832007357      0.00629084033256     -0.17597541433511
  O   -1.76384879268782     -1.53247619603307      1.03795848687524
  N   -0.67540614880289      1.61052900949883     -0.04378270835469
  O   -1.07925821084723      2.17372442144147      0.96596450593580
  O   -0.41364640548585      2.09025631447081     -1.13835403215260
