13
Coordinates from ORCA-job run
  C   0.62795044635636     -0.49208621104272     -0.12401107384810
  C   -0.49349078646017      0.17552844058830      0.18889347753787
  N   1.76303436493169      0.24346490077663     -0.74505187144962
  O   2.02301535793550      1.34434013192246     -0.27825406812150
  O   2.32212495197337     -0.34300854635668     -1.66176925902599
  C   0.83690628954015     -1.88215514990655      0.05116521354745
  N   1.07079632123579     -3.03045412789889      0.18068278830487
  N   -1.69008646206395     -0.47241606611446      0.74145252937481
  O   -2.75288543625612      0.02190809040007      0.38046892150518
  O   -1.51327091441016     -1.43024824044022      1.48311215211211
  N   -0.67767396361273      1.61028361434579     -0.02862682928304
  O   -0.64222032983620      2.00533164807884     -1.18589544963030
  O   -0.87419983933354      2.25051151564743      0.99683346897627
