13
Coordinates from ORCA-job run
  C   0.63294899862476     -0.48853480028973     -0.11399795291219
  C   -0.52850832013041      0.15510398436265      0.08125799217403
  N   1.84032017991818      0.29072633683879     -0.50138723081074
  O   1.67960510541665      1.17008620511937     -1.33710775952878
  O   2.87499344168711     -0.04131531095358      0.06080952541984
  C   0.84264664327683     -1.87981854558764      0.05027845493347
  N   1.07265766452111     -3.02950398198764      0.17431620456403
  N   -1.75650213095967     -0.51383315088530      0.52895484890365
  O   -2.47082559501774      0.16364309582708      1.26050749593741
  O   -1.93721736222370     -1.66247359369007      0.14592017844260
  N   -0.69745264275431      1.59964616831739     -0.07736414157195
  O   -0.05430995401280      2.32011729346807      0.67333169751016
  O   -1.50035602834599      1.91615629946061     -0.94651931306154
