13
Coordinates from ORCA-job run
  C   0.68647840095657     -0.42489648226661      0.01980253010147
  C   -0.52446277096819      0.14582353912452      0.11697743271340
  N   1.78947266876195      0.31657283097953     -0.65006157130117
  O   1.88061722952013      1.51001756812038     -0.39529288310717
  O   2.49640068694884     -0.35764859666213     -1.38668576867484
  C   1.02476195524839     -1.72250586704367      0.47661232526390
  N   1.36260483132674     -2.79628524266749      0.82724513597372
  N   -0.84122736284325      1.48091194940424     -0.39043554007601
  O   -1.19522454516162      2.27342506087556      0.47363873344947
  O   -0.74652189452541      1.65255034611062     -1.59789893014941
  N   -1.69010802307679     -0.52986619894987      0.70101575643918
  O   -1.48016365580223     -1.30532541254579      1.62482670959782
  O   -2.76262752038515     -0.24377349447929      0.17925606976964
