13
Coordinates from ORCA-job run
  C   0.64390682914844     -0.47247894085210     -0.12390228185433
  C   -0.52651387236060      0.14181220809950      0.10923251513684
  N   1.78993365477115      0.32022448316642     -0.64592849631640
  O   2.87209893556110      0.06609908181038     -0.13465811893973
  O   1.53894209854350      1.13181382058968     -1.52672451027763
  C   0.92020052483640     -1.84072939903430      0.11751009057298
  N   1.19076880769590     -2.97623227128611      0.28326215924698
  N   -1.69383744919686     -0.53627562289686      0.68692411613846
  O   -1.85365432434174     -1.71525344804255      0.39857701796037
  O   -2.38424507213036      0.16666791863554      1.41747103413882
  N   -0.76339700786490      1.56480948906171     -0.13506604098048
  O   -0.10018023105932      2.35766329055043      0.51919057256251
  O   -1.63402289360273      1.79187939019829     -0.96588805738838
