13
Coordinates from ORCA-job run
  C   0.62569534329841     -0.49525462859015     -0.12442511334420
  C   -0.49739801077751      0.17341503976074      0.18004054442171
  N   1.79071937233177      0.25137236377427     -0.67267325113853
  O   2.37277143068190     -0.30135894545279     -1.59612447831145
  O   2.04916449383569      1.32602047871334     -0.14773367761747
  C   0.81094802316894     -1.89461965074811     -0.00543168258483
  N   1.02171009871922     -3.05169153280849      0.07714406320045
  N   -1.72061684195752     -0.48099858843409      0.66161431239961
  O   -2.76368579241887      0.04451375240941      0.28704953826161
  O   -1.58244427061494     -1.47346677121047      1.36492973202536
  N   -0.65505496122571      1.61925943373002      0.02181593932391
  O   -0.87725180687187      2.21554643008450      1.06829493523886
  O   -0.57555707816952      2.06526261877182     -1.11450086187499
