13
Coordinates from ORCA-job run
  C   0.62967916261507     -0.48431067941167     -0.14535631286143
  C   -0.52548676274882      0.15239073035198      0.10289766678022
  N   1.81921410073600      0.30440197245197     -0.56707512366758
  O   1.62392546282909      1.19610663164608     -1.38209622608682
  O   2.87572032299375     -0.03289609827628     -0.05045071104973
  C   0.84952281643628     -1.87696357036902     -0.00798335023356
  N   1.08922336235820     -3.02707021374697      0.09139032269239
  N   -1.73334712147968     -0.52795336967687      0.58733712887337
  O   -1.92446704338948     -1.67164556008424      0.19462058895223
  O   -2.42180450081685      0.13591092920076      1.35518116522551
  N   -0.70531553268545      1.59827017327058     -0.02778472778777
  O   -1.54158642559491      1.92517094446607     -0.86075505528892
  O   -0.03627784125320      2.30958811017760      0.70907463445209
