13
Coordinates from ORCA-job run
  C   0.77846184020479     -0.21483473176071      0.05284731497860
  C   -0.49732963891262      0.18881035730625      0.15684690898884
  N   1.20504251455956     -0.97679646327972     -1.15160593730666
  O   0.43495667805097     -1.83775116972190     -1.55590234969831
  O   2.29502355179915     -0.65965496464623     -1.60814566511808
  C   1.80493553395731      0.05278806771739      0.99189172898647
  N   2.69123302111820      0.27738382446336      1.73624040125857
  N   -0.99832070519515      0.99892247937740      1.27463973096207
  O   -0.50570378920108      0.79483521482939      2.37662046435328
  O   -1.86329780639633      1.81292062427334      0.96872934164152
  N   -1.52543345755749     -0.08308866280079     -0.84785338929976
  O   -1.35422454923059      0.39449233891401     -1.96094407088999
  O   -2.46534319319672     -0.75002691467183     -0.43336447885655
