13
Coordinates from ORCA-job run
  C   0.61175305889873     -0.50296727627559     -0.15765552574015
  C   -0.51706421041965      0.16666215856058      0.12292979117240
  N   1.79558171731760      0.24606281839479     -0.66019809585488
  O   1.58085036470135      1.11075689124799     -1.49902407235565
  O   2.86742963235586     -0.09325896388309     -0.17764136216149
  C   0.81000486628697     -1.89490015923666      0.01478815243096
  N   1.03428500482701     -3.04542577178190      0.14168874265152
  N   -1.71482906923013     -0.47023872022068      0.68481642835229
  O   -1.94582126466114     -1.62280177191967      0.34259917661512
  O   -2.35478818413953      0.23454733941351      1.45811951599016
  N   -0.67238112387904      1.61116113735755     -0.04872669901507
  O   -1.53998579345075      1.92906923676623     -0.85262464535907
  O   0.04596500139276      2.33133308157692      0.63092859327387
