13
Coordinates from ORCA-job run
  C   0.74115370257256     -0.31798596998964     -0.04552833746873
  C   -0.45125582176150      0.23533287866096      0.22558770756164
  N   0.95228946750969     -0.98473078098934     -1.35930897771008
  O   2.03318033762068     -0.76120321818501     -1.88718646310160
  O   0.03733946364024     -1.68513709993976     -1.77135339973403
  C   1.87111040436735     -0.30121417648409      0.80865945307981
  N   2.84599212508692     -0.30129718647051      1.47183010446079
  N   -1.58748157492874      0.21738826564270     -0.69548763302642
  O   -1.44667087406229      0.79961030954658     -1.76213905966735
  O   -2.57153766514417     -0.37080819235321     -0.26445205869485
  N   -0.73669110246118      0.97065132758757      1.46430146293250
  O   -0.17345127102054      0.58890378429708      2.48197801273226
  O   -1.51397719141903      1.91049005867668      1.33409918863607
