13
Coordinates from ORCA-job run
  C   0.60217789806721     -0.48210371643267     -0.24004702011345
  C   -0.51128942217891      0.15286495425759      0.15804851979473
  N   1.77893761226786      0.31760646569620     -0.67644111347159
  O   2.86128540409479     -0.09153976020396     -0.27889527018299
  O   1.54879086308043      1.28842727147491     -1.38506634762180
  C   0.79049839346020     -1.88603135703372     -0.25461134510086
  N   1.00367670401580     -3.04530713936518     -0.28161066639250
  N   -1.69910305981890     -0.54419452656408      0.66805207384437
  O   -1.95213025658601     -1.64046711619416      0.18548793858199
  O   -2.30875229972370      0.05781330856350      1.54562682287855
  N   -0.65703869437124      1.60826415341927      0.18074497076276
  O   0.08643860735718      2.22888528638571      0.92817667223939
  O   -1.54349174966469      2.03378217599658     -0.54946523521861
