13
Coordinates from ORCA-job run
  C   0.65940169283170     -0.46463887878996     -0.03537538010785
  C   -0.52182426103120      0.15351836464303      0.11937674446589
  N   1.83962086396980      0.32289650967110     -0.48399889000883
  O   2.54735838921924     -0.22940283011207     -1.31524557112337
  O   1.98461664027557      1.42777139990874      0.02186434994886
  C   0.89733908550080     -1.84758634419335      0.15871691374927
  N   1.15221736318025     -2.99077148015138      0.29384117238944
  N   -1.75623542857398     -0.54831750258198      0.49436113892674
  O   -2.77696761029364     -0.09311216920552     -0.01093769295371
  O   -1.64642247897658     -1.50584484556079      1.24903950751370
  N   -0.73256922964212      1.58202963863426     -0.11454638603100
  O   -1.09782573733313      2.20273708488431      0.87608856582189
  O   -0.55070928912668      1.99072105285360     -1.25318447259101
