13
Coordinates from ORCA-job run
  C   0.63351102785156     -0.47920423570564     -0.14788501879607
  C   -0.52477585072017      0.14729139524872      0.11176955008112
  N   1.80376176243432      0.31704353734990     -0.60824526612832
  O   1.58049386547996      1.19062635506779     -1.43548354202179
  O   2.87468161503601      0.00283108584012     -0.10700667265987
  C   0.87502611305952     -1.86595445069628      0.01087131132721
  N   1.12829637409229     -3.01200912499905      0.12262908018977
  N   -1.71477594624060     -0.53786721679262      0.63250060600564
  O   -1.89562507134419     -1.69351079570682      0.27123790649721
  O   -2.40040601090736      0.13484376115519      1.39520338455382
  N   -0.72585442020123      1.58799588886969     -0.04417812546771
  O   -0.05528826276873      2.32206740658744      0.66865206116211
  O   -1.57904519577139      1.88784639378155     -0.87006527474315
