13
Coordinates from ORCA-job run
  C   0.71203023538319     -0.38055657657110      0.00360897758108
  C   -0.45355734116815      0.25572069547262      0.19772799014716
  N   1.02445000687202     -0.93129183364590     -1.34337814194694
  O   2.17519236464009     -0.75818943814376     -1.72105365776827
  O   0.11165356769812     -1.49975508417850     -1.92747133927864
  C   1.72722131988796     -0.55805936132099      0.97548902371934
  N   2.60665940130996     -0.73574071159715      1.74041174646476
  N   -1.46719299454483      0.43750692756551     -0.84124457048099
  O   -1.14803602631924      1.10357833253298     -1.81660226410462
  O   -2.54307740538649     -0.09056708678216     -0.58940308089890
  N   -0.82443642588837      0.89035945256258      1.46922053536344
  O   -0.42257785371641      0.35820727184243      2.49589287670626
  O   -1.49832884876786      1.90878741226345      1.35580190449631
