13
Coordinates from ORCA-job run
  C   0.56476804661688     -0.51334226719372     -0.26526543458004
  C   -0.45233729904538      0.18091537112798      0.26854395383346
  N   1.69388665797289      0.22133385402001     -0.89792263878198
  O   2.10240693269941     -0.25787997904556     -1.94691079864813
  O   2.09859209494705      1.21515367444753     -0.30961438211454
  C   0.66029171858099     -1.92559909345953     -0.32065952694789
  N   0.78962019399822     -3.09505217141174     -0.39632013515014
  N   -1.64104028191547     -0.45198121776363      0.85431070324772
  O   -2.68483143926575      0.17167123710598      0.69340600226101
  O   -1.47900641746332     -1.52373590378280      1.42338639895489
  N   -0.52450285068718      1.64174316038377      0.28545927143722
  O   -0.55263171543493      2.12778420913561      1.40935418398387
  O   -0.57421564100342      2.20798912643608     -0.79776759749543
