13
Coordinates from ORCA-job run
  C   0.66452940621204     -0.45017558607093     -0.09120002697903
  C   -0.50797772426392      0.14734687532102      0.17252106982592
  N   1.75956720712761      0.33972058700416     -0.71655912407684
  O   1.93194017656495      1.47249418826773     -0.28679648355018
  O   2.37895617260844     -0.23920458882641     -1.59870859423222
  C   0.96467213829696     -1.81479333876369      0.14222483015815
  N   1.26415027442163     -2.94232896480316      0.31260039644701
  N   -0.78712256232598      1.55617316110468     -0.10543467748838
  O   -1.05456822324478      2.21886685617787      0.88926841949390
  O   -0.74973418666318      1.90908511332869     -1.27618455758547
  N   -1.66825494348524     -0.56210004865237      0.72638708185886
  O   -1.44197796606195     -1.47115196825445      1.51454772483746
  O   -2.75417976918658     -0.16293228583314      0.31933394129085
