13
Coordinates from ORCA-job run
  C   0.79831366674595     -0.11574655199975     -0.04309821855563
  C   -0.48709781951754      0.19887642351548      0.18143618828767
  N   1.16301870885887     -0.84035554286621     -1.29083197960632
  O   0.61279071647858     -0.47057009939922     -2.31946152318312
  O   1.98730328403869     -1.73354400974763     -1.15062748424369
  C   1.87820603250590      0.15155670606767      0.83395828608504
  N   2.81116305832813      0.34770027417804      1.52766102059774
  N   -1.57781522765435     -0.11607664879606     -0.74091646035393
  O   -2.16482255565317      0.86687670236418     -1.17614727839518
  O   -1.79925355608412     -1.30010857638465     -0.95458415004610
  N   -0.95489981911715      0.85272992724983      1.41070733413921
  O   -2.07381113027826      0.51058023192828      1.77852831038272
  O   -0.19309535865152      1.64908116389006      1.94337595489156
