13
Coordinates from ORCA-job run
  C   0.63058605366145     -0.48709746126604     -0.13223894583863
  C   -0.52524584900929      0.15326670288877      0.10350576258058
  N   1.81102545040883      0.29070764746707     -0.59836474099328
  O   1.60072473346550      1.15398309425482     -1.43980683568468
  O   2.87642837120419     -0.02590574672207     -0.08683713794733
  C   0.86095175000359     -1.87193999965970      0.05728211183407
  N   1.10788485623100     -3.01652770321860      0.19517159432885
  N   -1.72509235976752     -0.51221996458572      0.62767251784726
  O   -2.41630316445283      0.18311438836871      1.36449080732714
  O   -1.90738279391359     -1.67589824529338      0.29403352459457
  N   -0.71362676691487      1.59202525207493     -0.08287836777796
  O   -0.04777537678901      2.33483755326983      0.62516611650653
  O   -1.55317490412745      1.88165448242139     -0.92619640677714
