13
Coordinates from ORCA-job run
  C   0.64196117035448     -0.48125981777546     -0.09165336494783
  C   -0.50274793550958      0.16888355636545      0.16961191271482
  N   1.78444613187246      0.26646429694303     -0.68369876357702
  O   2.00537308606745      1.38002147595879     -0.22677158512286
  O   2.38849236633680     -0.32351808910748     -1.56909690228746
  C   0.87028205560526     -1.86409396950058      0.11425767991494
  N   1.11445280776574     -3.00916689327913      0.25311994297277
  N   -1.70520620584605     -0.49315168758485      0.69188967228579
  O   -2.76399568614528     -0.02559748670244      0.28610971169363
  O   -1.53607799025991     -1.43481382104761      1.45560563102509
  N   -0.70664949390476      1.59561763918317     -0.08081347640344
  O   -0.95036725754205      2.25059452946247      0.92497469205707
  O   -0.63896304879455      1.97002026708465     -1.24353515032550
