13
Coordinates from ORCA-job run
  C   0.62160992185381     -0.49214478808934     -0.15447139467103
  C   -0.51978316591768      0.15904012598398      0.11856107875570
  N   1.79751032262103      0.27467938060688     -0.64777503273367
  O   2.87225084516961     -0.05364510172767     -0.16400573182150
  O   1.57441235537575      1.14202849538252     -1.48180659942672
  C   0.83810805409887     -1.88145494187356      0.01806061044565
  N   1.07786607775547     -3.02863946869653      0.14675754807867
  N   -1.71100467813332     -0.49922544928808      0.66981781774556
  O   -2.36133731397677      0.18895672282457      1.44942858690508
  O   -1.92711678410942     -1.65048818908176      0.31375101002189
  N   -0.69846227122317      1.60138767970172     -0.04915032500302
  O   0.00560534584784      2.33085370321724      0.63550872984029
  O   -1.56865870936202      1.90765183104004     -0.85467629813689
