13
Coordinates from ORCA-job run
  C   0.60919762347450     -0.50405214418708     -0.16491412960282
  C   -0.51426001834020      0.16820924106975      0.13064882516044
  N   1.78052003300379      0.23774698420587     -0.70612067206390
  O   1.54469599947073      1.09456677846531     -1.54739365991248
  O   2.86448262749542     -0.09844974359872     -0.24912104833816
  C   0.81202638413191     -1.89315219221374      0.02489589910433
  N   1.04317141782613     -3.03946059469811      0.17542082487336
  N   -1.69803722077666     -0.46275706745988      0.72788514084345
  O   -1.93702843732972     -1.61896878461141      0.40394960815376
  O   -2.31951689906393      0.25052905290617      1.50854546389164
  N   -0.67656211534787      1.60992646471357     -0.05660612608938
  O   0.05551607906793      2.34024379038672      0.59708624561850
  O   -1.56320547361203      1.91561821502153     -0.84427637163876
