13
Coordinates from ORCA-job run
  C   0.62758485047226     -0.49504424344607     -0.11788974839425
  C   -0.49188205075085      0.17853083930796      0.18978865776008
  N   1.75699874223368      0.22832611288290     -0.76334377582371
  O   2.01668741597654      1.34120588398151     -0.32578217395570
  O   2.31327615263495     -0.37955433389676     -1.66784427095853
  C   0.83912133038512     -1.88106087994922      0.08401823516271
  N   1.06768965649735     -3.02815666494154      0.23235341760094
  N   -1.68442056173075     -0.45612235088582      0.76553000747878
  O   -2.74951529535566      0.03865959670794      0.41208540112204
  O   -1.50230872731951     -1.40431267115362      1.51827863982202
  N   -0.67703593142522      1.60862340216902     -0.05752858335195
  O   -0.85271953883457      2.27342338830581      0.95581834763592
  O   -0.66347604278334      1.97548192091790     -1.22448415409835
