13
Coordinates from ORCA-job run
  C   0.76429557151728     -0.26080072059150     -0.00597768803481
  C   -0.44706194456323      0.29543983187810      0.15077159606227
  N   1.02569791372779     -1.11193073646507     -1.19842459090695
  O   0.58336640411440     -0.70930418067565     -2.26602576018097
  O   1.66694029029203     -2.13059101839913     -0.97903952586093
  C   1.84809417278041     -0.14318670428946      0.89866853579280
  N   2.77903360894358     -0.09407199509945      1.62050289602788
  N   -1.55091704884192      0.13013968993041     -0.79481188875709
  O   -1.93633747850675      1.17645567208348     -1.30151235453587
  O   -1.97858020045629     -1.00459398879659     -0.95601448643300
  N   -0.82069461321321      1.09608201349657      1.32389827053442
  O   0.05765467474188      1.77697866537557      1.83728659151577
  O   -1.99149135053592      0.98038347155271      1.67067840477647
