12

C	-0.381536	-0.012744	-1.460085
C	0.0	0.0	0.0
Cl	-2.150799	-0.029307	-1.715207
H	1.095226	0.0	0.0
H	0.038052	-0.900308	-1.925758
H	0.021495	0.883189	-1.929239
N	-0.41328	-1.273547	0.680995
O	-0.747356	-1.211013	1.859572
O	-0.327976	-2.298895	0.013445
C	-0.518676	1.149284	0.723545
N	-0.913187	2.116412	1.259933
Br	3.312199	0.0	0.0
