12

C	-0.520951	0.033871	-1.428391
C	0.0	0.0	0.0
Cl	-0.04513	-1.433508	-2.307942
H	1.090906	0.0	0.0
H	-0.065641	0.887539	-1.930178
H	-1.60707	0.101204	-1.444992
N	-0.541746	-1.218595	0.704154
O	-1.755173	-1.401885	0.6053
O	0.245634	-1.923055	1.319449
C	-0.499709	1.171628	0.71389
N	-0.914146	2.133724	1.245523
Br	3.398599	0.0	0.0
