12

C	-0.373528	-0.084155	-1.461203
C	0.0	0.0	0.0
Cl	-2.139485	-0.127264	-1.725945
H	1.093029	0.0	0.0
H	0.057939	-0.988667	-1.880446
H	0.026462	0.79207	-1.968594
N	-0.418742	-1.241132	0.736018
O	-0.799749	-1.124483	1.894656
O	-0.29833	-2.296835	0.126858
C	-0.526828	1.181797	0.661655
N	-0.978451	2.144844	1.158477
Br	3.317015	0.0	0.0
