12

C	-0.483645	-0.01049	-1.445303
C	0.0	0.0	0.0
Cl	-0.187848	1.571102	-2.203259
H	1.093539	0.0	0.0
H	0.085224	-0.755068	-1.995194
H	-1.550086	-0.222562	-1.507855
N	-0.370939	-1.302295	0.660013
O	-0.580301	-2.260825	-0.082235
O	-0.379587	-1.332658	1.88442
C	-0.549658	1.091298	0.788039
N	-1.027963	1.978909	1.38981
Br	3.321151	0.0	0.0
