12

C	-0.519594	0.029702	-1.429314
C	0.0	0.0	0.0
Cl	-0.049587	-1.443792	-2.302853
H	1.090967	0.0	0.0
H	-1.60544	0.101502	-1.447934
H	-0.059681	0.87884	-1.934074
N	-0.543811	-1.216879	0.705345
O	0.244106	-1.930641	1.308674
O	-1.75957	-1.390051	0.617614
C	-0.498487	1.173608	0.710875
N	-0.891332	2.139085	1.252399
Br	3.398539	0.0	0.0
