12

C	-0.523212	-0.017709	-1.427755
C	0.0	0.0	0.0
Cl	-0.059408	-1.520809	-2.252707
H	1.090931	0.0	0.0
H	-0.063956	0.813609	-1.96219
H	-1.608994	0.05613	-1.445267
N	-0.545212	-1.192719	0.744208
O	-1.765812	-1.345819	0.690798
O	0.246511	-1.911654	1.336544
C	-0.496816	1.198354	0.670074
N	-0.899043	2.182484	1.169394
Br	3.398359	0.0	0.0
