15

C	-0.360563	0.129668	-1.500646
C	0.0	0.0	0.0
F	-1.664296	0.483171	-1.640811
H	1.095699	0.0	0.0
N	0.456126	1.025961	-2.226011
H	0.283198	1.966021	-1.885628
H	1.434408	0.795204	-2.049424
N	-0.2141	-1.258275	-2.132763
O	-1.225328	-1.947569	-2.183356
O	0.908621	-1.562874	-2.510796
C	-0.552049	-1.173384	0.663727
N	-0.997538	-2.117795	1.201912
C	-0.431545	1.227218	0.665561
N	-0.772116	2.233455	1.16661
Cl	3.141485	0.0	0.0
