15

C	-0.510415	0.001676	-1.440188
C	0.0	0.0	0.0
F	-1.892728	-0.224425	-1.426565
H	1.093786	0.0	0.0
N	-0.134522	1.136366	-2.145331
H	-0.361448	1.996823	-1.668455
H	-0.475155	1.110796	-3.09608
N	0.009006	-1.205249	-2.215834
O	0.561135	-2.103085	-1.597009
O	-0.226634	-1.179663	-3.421538
C	-0.516171	-1.134927	0.763586
N	-0.951613	-2.009286	1.414092
C	-0.449266	1.244783	0.627821
N	-0.808919	2.268527	1.07762
Cl	3.143811	0.0	0.0
