15

C	-0.515208	0.060657	-1.439216
C	0.0	0.0	0.0
F	0.102444	-0.94762	-2.142314
H	1.093856	0.0	0.0
N	-1.917156	0.032953	-1.539948
H	-2.188937	0.014627	-2.515603
H	-2.29382	-0.769824	-1.051849
N	-0.070149	1.341584	-2.136319
O	0.562974	2.170561	-1.495935
O	-0.416136	1.422062	-3.313293
C	-0.459113	-1.272135	0.561911
N	-0.872183	-2.295118	0.965233
C	-0.521057	1.101303	0.806502
N	-0.969043	1.939786	1.493827
Cl	3.144734	0.0	0.0
