15

C	-0.357574	0.142428	-1.501864
C	0.0	0.0	0.0
F	-1.641832	0.554993	-1.642506
H	1.095781	0.0	0.0
N	0.501518	0.996305	-2.231828
H	1.467886	0.730696	-2.036751
H	0.364762	1.947214	-1.906869
N	-0.265368	-1.251481	-2.127653
O	0.86533	-1.638891	-2.391349
O	-1.315529	-1.863167	-2.287713
C	-0.556839	-1.181378	0.645194
N	-1.002507	-2.136172	1.164758
C	-0.430076	1.220017	0.679514
N	-0.768007	2.220837	1.192942
Cl	3.147915	0.0	0.0
