15

C	-0.338184	-0.054425	-1.504938
C	0.0	0.0	0.0
F	0.047104	1.232206	-1.993293
H	1.094264	0.0	0.0
N	0.444031	-1.073677	-2.089014
H	1.415391	-0.960484	-1.79727
H	0.400088	-1.008145	-3.099263
N	-1.729239	-0.24088	-1.745095
H	-2.218615	0.621651	-1.536946
H	-1.887485	-0.479178	-2.716701
C	-0.48286	-1.19544	0.686867
N	-0.86507	-2.138506	1.272046
C	-0.543476	1.203303	0.619837
N	-1.026669	2.1572	1.105091
Br	3.380885	0.0	0.0
