15

C	-0.210402	-0.003874	-1.526635
C	0.0	0.0	0.0
F	-1.54653	-0.007819	-1.873965
H	1.098231	0.0	0.0
N	0.331238	1.238209	-2.014549
H	1.316946	1.275214	-1.763944
H	0.253573	1.256846	-3.026149
N	0.342458	-1.244878	-2.00924
H	1.322835	-1.289316	-1.732286
H	0.295765	-1.255674	-3.023677
C	-0.520105	-1.201337	0.642493
N	-0.930165	-2.153474	1.192899
C	-0.522726	1.203463	0.637164
N	-0.93637	2.155253	1.18622
Br	3.359598	0.0	0.0
