15

C	-0.338023	-0.041517	-1.505789
C	0.0	0.0	0.0
F	0.046248	1.248551	-1.983141
H	1.094723	0.0	0.0
N	0.444502	-1.05549	-2.09878
H	1.415125	-0.944726	-1.805974
H	0.399904	-0.984973	-3.108475
N	-1.729081	-0.22698	-1.746984
H	-1.887794	-0.444159	-2.724207
H	-2.219743	0.6313	-1.521292
C	-0.483447	-1.200134	0.677839
N	-0.8669	-2.147325	1.255313
C	-0.542757	1.198731	0.629725
N	-1.0295	2.146442	1.123537
Br	3.380568	0.0	0.0
