15

C	-0.341773	0.217965	-1.489232
C	0.0	0.0	0.0
F	0.044189	-1.005605	-2.117017
H	1.094191	0.0	0.0
N	-1.734429	0.426616	-1.703134
H	-1.896297	0.76868	-2.642586
H	-2.221371	-0.454555	-1.589003
N	0.435819	1.297911	-1.959816
H	0.39089	1.344001	-2.971014
H	1.407646	1.15942	-1.682435
C	-0.541856	-1.264055	0.485552
N	-1.02094	-2.266916	0.864282
C	-0.482073	1.112558	0.814489
N	-0.86065	1.984762	1.502639
Br	3.380259	0.0	0.0
