15

C	-0.337581	-0.111864	-1.502604
C	0.0	0.0	0.0
F	0.046775	1.155577	-2.039383
H	1.094152	0.0	0.0
N	0.445658	-1.152119	-2.046491
H	1.416331	-1.029581	-1.756817
H	0.401851	-1.129885	-3.059128
N	-1.72844	-0.30871	-1.734755
H	-2.219111	0.560498	-1.557385
H	-1.886807	-0.580914	-2.698355
C	-0.482713	-1.168686	0.731712
N	-0.862785	-2.089798	1.352362
C	-0.544406	1.225852	0.572535
N	-1.033233	2.194456	1.021809
Br	3.381667	0.0	0.0
