15

C	-0.352827	-0.010255	-1.506077
C	0.0	0.0	0.0
F	-0.124371	-1.321023	-1.948888
H	1.098064	0.0	0.0
N	-1.756	0.21554	-1.742178
H	-1.921096	1.212249	-1.796296
H	-2.014301	-0.219797	-2.618919
N	0.502713	0.926304	-2.133852
H	1.473838	0.777868	-1.855304
H	0.415578	0.862399	-3.140844
C	-0.542441	-1.164146	0.689588
N	-0.98283	-2.098436	1.246807
C	-0.484192	1.237282	0.605856
N	-0.885256	2.237681	1.071922
Br	3.39379	0.0	0.0
