15

C	-0.333966	0.062432	-1.506339
C	0.0	0.0	0.0
F	-1.682824	0.44644	-1.660512
H	1.095031	0.0	0.0
N	0.4628	1.104679	-2.05886
H	0.340718	1.154228	-3.063227
H	1.442727	0.9337	-1.833612
N	-0.131995	-1.224003	-2.087412
H	-0.825308	-1.886088	-1.757836
H	-0.182844	-1.157726	-3.095862
C	-0.525945	-1.210665	0.619737
N	-0.982369	-2.191329	1.076706
C	-0.492554	1.188542	0.692685
N	-0.899745	2.123327	1.274159
Br	3.378618	0.0	0.0
