15

C	-0.330709	0.072961	-1.506218
C	0.0	0.0	0.0
F	-1.673815	-0.312704	-1.699117
H	1.092942	0.0	0.0
N	-0.148817	1.411663	-1.963651
H	-0.18172	1.436744	-2.974864
H	-0.865086	2.023091	-1.589422
N	0.48185	-0.901226	-2.149154
H	0.375919	-0.850725	-3.154844
H	1.457255	-0.751827	-1.892519
C	-0.490097	-1.24605	0.584756
N	-0.895869	-2.226411	1.086488
C	-0.522344	1.148587	0.731045
N	-0.965881	2.082126	1.289002
Br	3.381059	0.0	0.0
