17

C	-0.003243	-0.017707	0.016274
C	-0.467062	-0.072708	-1.451777
F	1.411478	0.072267	-0.01429
H	-1.573238	-0.05246	-1.323054
N	-0.52792	1.140075	0.670506
H	-0.332221	1.921815	0.04959
H	-1.553875	0.974451	0.584522
C	-0.413366	-1.260071	0.766943
H	-0.089208	-1.158193	1.804325
H	-1.503829	-1.289754	0.710623
H	0.032269	-2.156199	0.329617
C	-0.031294	-1.299254	-2.134415
N	0.335014	-2.246329	-2.728846
N	-0.012586	1.130563	-2.153106
H	-0.522595	1.225294	-3.022012
H	0.972996	1.039146	-2.370276
F	-2.893528	0.167676	-0.160764
