17

C	-0.01312	-0.003361	-0.031794
C	-0.24247	-0.007552	-1.556885
F	1.381835	0.158393	0.142489
H	0.49186	-0.718154	-1.958297
N	-0.666314	1.122293	0.561229
H	-1.686966	0.906034	0.479907
H	-0.448619	1.108459	1.553989
C	-0.40009	-1.340634	0.575511
H	-0.031804	-1.373143	1.605446
H	-1.491859	-1.370012	0.57832
H	0.027852	-2.186531	0.025908
C	0.134594	1.30732	-2.115799
N	0.465151	2.308969	-2.630579
N	-1.576214	-0.386917	-2.006307
H	-1.602771	-1.399386	-2.034655
H	-2.270724	-0.118374	-1.275685
F	-3.071336	0.041414	0.173151
