17

C	-0.055168	-0.100349	0.033405
C	-0.550228	-0.178638	-1.432082
F	1.339413	0.131086	-0.031179
H	-1.623147	-0.386298	-1.368109
N	-0.645283	0.996691	0.751995
H	-1.560945	1.219969	0.285196
H	-0.053627	1.801698	0.578696
C	-0.255998	-1.400838	0.782137
H	0.211523	-2.244444	0.269362
H	-1.327074	-1.584592	0.892682
H	0.176409	-1.284234	1.77709
C	0.1329	-1.273582	-2.140886
N	0.680817	-2.153283	-2.694396
N	-0.455533	1.065654	-2.178909
H	0.388897	1.549635	-1.893807
H	-1.291005	1.5701	-1.838678
F	-2.71613	1.465848	-0.827164
