16

C	0.0	0.0	0.0
C	-0.305473	0.01243	-1.567025
Cl	1.790019	0.0	0.0
H	0.599168	0.452633	-1.996339
C	-0.52588	1.212223	0.632223
N	-0.597822	2.26825	1.160317
C	-0.537317	-1.179183	0.671973
N	-0.576514	-2.231767	1.214643
C	-1.45511	0.85822	-2.114951
H	-1.232991	1.040552	-3.179363
H	-1.542797	1.822702	-1.609029
H	-2.411375	0.349685	-2.022106
N	-0.328647	-1.378266	-2.002155
H	-0.427201	-1.389509	-3.01173
H	-1.16814	-1.802632	-1.615922
H	-2.069415	0.0	0.0
