16

C	0.0	0.0	0.0
C	-0.291133	0.260232	-1.587084
Cl	1.795052	0.0	0.0
H	0.620291	-0.104199	-2.065448
C	-0.507469	1.028548	0.892817
N	-0.577244	1.942495	1.64123
C	-0.485667	-1.325558	0.368899
N	-0.55061	-2.483076	0.600605
C	-0.413838	1.755865	-1.813788
H	-1.342765	2.115359	-1.366077
H	0.421871	2.300649	-1.367145
H	-0.439346	1.947226	-2.889186
N	-1.376078	-0.439128	-2.235212
H	-1.192969	-1.438184	-2.182168
H	-2.188226	-0.280319	-1.631165
H	-2.167689	0.0	0.0
