16

C	0.0	0.0	0.0
C	-0.223495	-0.034531	-1.583074
Cl	1.798122	0.0	0.0
H	0.542186	0.672737	-1.936327
C	-0.56062	1.234378	0.544797
N	-0.61356	2.33227	0.990558
C	-0.563274	-1.158239	0.683677
N	-0.584145	-2.158158	1.322584
C	-1.52936	0.43105	-2.205761
H	-1.838938	1.397109	-1.807775
H	-1.346601	0.543692	-3.288232
H	-2.325798	-0.291158	-2.044259
N	0.032053	-1.4022	-2.031135
H	0.944931	-1.696834	-1.705449
H	0.056117	-1.403987	-3.044709
H	-1.990521	0.0	0.0
