16

C	0.0	0.0	0.0
C	-0.35491	-0.017956	-1.543834
Cl	1.787233	0.0	0.0
H	-1.401945	-0.321717	-1.552906
C	-0.630052	1.143218	0.668636
N	-0.637941	2.181636	1.248026
C	-0.480198	-1.249554	0.609202
N	-0.528469	-2.330071	1.084907
C	0.457642	-1.010297	-2.358452
H	-0.053374	-1.171877	-3.314508
H	0.530191	-1.974011	-1.850532
H	1.462052	-0.638434	-2.561871
N	-0.161222	1.333942	-2.059929
H	-0.335176	1.310454	-3.059883
H	-0.879352	1.92525	-1.647325
H	-2.223693	0.0	0.0
