16

C	0.0	0.0	0.0
C	-0.297173	-0.003351	-1.577585
Cl	1.794858	0.0	0.0
H	-1.38206	-0.050196	-1.623769
C	-0.637923	1.177164	0.598195
N	-0.615572	2.272433	1.065711
C	-0.488654	-1.222939	0.636719
N	-0.547306	-2.289151	1.145385
C	0.277295	-1.220454	-2.284222
H	0.02257	-2.141085	-1.754648
H	1.363108	-1.168012	-2.387103
H	-0.156339	-1.25714	-3.287182
N	0.119921	1.215399	-2.238993
H	1.108765	1.371465	-2.07895
H	-0.376599	1.997267	-1.823271
H	-2.14569	0.0	0.0
