16

C	0.0	0.0	0.0
C	-0.301082	0.040962	-1.548747
Cl	1.802735	0.0	0.0
H	-1.383285	0.150301	-1.581428
C	-0.45873	1.231121	0.654063
N	-0.52953	2.259378	1.228796
C	-0.637006	-1.162587	0.627845
N	-0.62901	-2.23087	1.152665
C	0.084028	-1.264	-2.238304
H	-0.28298	-1.232023	-3.269757
H	-0.364303	-2.126689	-1.73946
H	1.168225	-1.403478	-2.266609
N	0.28541	1.238822	-2.134235
H	-0.261896	1.508491	-2.940927
H	1.23723	1.066889	-2.434894
H	-2.196894	0.0	0.0
