16

C	0.0	0.0	0.0
C	-0.360086	-0.191999	-1.54018
Cl	1.786653	0.0	0.0
H	0.592214	-0.430062	-2.018695
C	-0.523545	1.244771	0.55981
N	-0.569307	2.336548	1.014515
C	-0.432077	-1.130706	0.825437
N	-0.502055	-2.056144	1.553091
C	-0.867015	1.103862	-2.171558
H	-0.166738	1.932277	-2.020601
H	-0.976914	0.942909	-3.250559
H	-1.833519	1.366798	-1.742118
N	-1.194035	-1.369282	-1.756778
H	-1.359523	-1.449085	-2.756573
H	-2.072561	-1.162316	-1.276353
H	-2.21265	0.0	0.0
