18

C	0.0	0.0	0.0
C	-0.428829	0.178821	-1.48643
Cl	1.801405	0.0	0.0
H	0.429802	-0.119218	-2.098659
C	-0.431703	1.124728	0.832912
N	-0.568153	2.045316	1.551095
C	-0.354873	-1.314443	0.712234
H	0.108201	-2.15306	0.196859
H	0.04707	-1.251983	1.7273
H	-1.439878	-1.37596	0.715073
C	-0.841555	1.600143	-1.797295
H	-0.070394	2.29529	-1.456096
H	-0.98873	1.732247	-2.869045
H	-1.776161	1.770593	-1.264381
N	-1.480235	-0.78664	-1.982888
O	-2.340696	-0.359302	-2.740512
O	-1.270215	-1.980686	-1.781308
F	-2.487624	0.0	0.0
