18

C	0.0	0.0	0.0
C	-0.614136	0.093472	-1.395448
Cl	1.794788	0.0	0.0
H	-1.703443	0.271493	-1.104137
C	-0.394269	1.127063	0.859578
N	-0.588804	1.972184	1.652016
C	-0.463041	-1.281918	0.699999
H	-0.106551	-1.271751	1.731707
H	-0.047714	-2.155273	0.196144
H	-1.558443	-1.239789	0.65459
C	-0.479364	-1.164524	-2.220336
H	0.552042	-1.521708	-2.283678
H	-1.114294	-1.929576	-1.774483
H	-0.836557	-0.977841	-3.232297
N	-0.062488	1.27278	-2.116986
O	0.39721	1.116496	-3.253773
O	-0.114354	2.359944	-1.54356
F	-2.824496	0.0	0.0
