18

C	0.0	0.0	0.0
C	-0.26905	-0.132232	-1.551528
Cl	1.797004	0.0	0.0
H	0.471497	0.51191	-2.024895
C	-0.411325	1.358944	0.371055
N	-0.636544	2.469959	0.680045
C	-0.640826	-1.010937	0.91902
H	-0.312812	-2.02028	0.678822
H	-0.373419	-0.770888	1.951337
H	-1.732428	-0.866322	0.748263
C	-1.640743	0.159777	-2.125566
H	-1.801144	1.239521	-2.078762
H	-2.443815	-0.270579	-1.504835
H	-1.630739	-0.146606	-3.177688
N	0.146508	-1.499384	-2.015383
O	-0.497112	-2.469652	-1.621975
O	1.076129	-1.558968	-2.824196
F	-3.113317	0.0	0.0
