18

C	0.0	0.0	0.0
C	-0.386801	-0.032457	-1.536961
Cl	1.796999	0.0	0.0
H	0.547898	0.114042	-2.079686
C	-0.406958	1.290097	0.564725
N	-0.594255	2.342944	1.051534
C	-0.542868	-1.132615	0.854377
H	-0.14485	-2.085708	0.507301
H	-0.239049	-0.970986	1.891384
H	-1.639747	-1.034448	0.734601
C	-1.425052	0.948635	-2.03371
H	-1.052357	1.963223	-1.868849
H	-1.562611	0.800486	-3.108534
H	-2.341165	0.767756	-1.45136
N	-0.738954	-1.448039	-1.918023
O	-1.861971	-1.705202	-2.334563
O	0.178665	-2.26952	-1.819229
F	-2.836337	0.0	0.0
