18

C	0.0	0.0	0.0
C	-0.646016	-0.021973	-1.376505
Cl	1.798186	0.0	0.0
H	-1.753253	0.124434	-1.049476
C	-0.390027	1.191482	0.773092
N	-0.600277	2.084372	1.506921
C	-0.456886	-1.22045	0.80614
H	-0.046363	-2.132292	0.375533
H	-0.098249	-1.124309	1.832322
H	-1.553803	-1.186955	0.765474
C	-0.487188	-1.331261	-2.123663
H	-0.871196	-1.216551	-3.13453
H	-1.080975	-2.093039	-1.620986
H	0.557724	-1.653307	-2.177876
N	-0.217848	1.127943	-2.215994
O	-0.370811	1.041576	-3.437657
O	0.210341	2.136025	-1.652608
F	-2.846413	0.0	0.0
