18

C	0.0	0.0	0.0
C	-0.393575	-0.09253	-1.489567
F	1.417276	0.0	0.0
H	-1.479689	-0.223985	-1.532427
C	-0.449041	1.325504	0.572693
H	-1.531384	1.417616	0.469827
H	-0.178518	1.331333	1.630511
H	0.043108	2.14604	0.055045
N	-0.454637	-1.061425	0.833287
H	-0.389361	-1.948517	0.348656
H	-1.446541	-0.898395	1.009532
N	0.208646	-1.389828	-2.054971
O	1.176203	-1.295337	-2.809908
O	-0.303736	-2.456757	-1.714733
N	0.044461	1.041151	-2.224626
H	-0.276654	0.991711	-3.182233
H	1.056406	1.067096	-2.223481
Br	-3.83495	0.0	0.0
