18

C	0.0	0.0	0.0
C	-0.28747	0.06565	-1.52718
F	1.392811	0.0	0.0
H	0.212536	-0.812731	-1.93421
C	-0.474011	1.173977	0.829371
H	-1.563916	1.23118	0.784018
H	-0.18197	0.997123	1.869643
H	-0.038595	2.112678	0.491813
N	-0.494219	-1.277691	0.441161
H	-1.506852	-1.252992	0.304374
H	-0.347806	-1.34943	1.4432
N	0.515755	1.221817	-2.101671
O	1.498751	0.949808	-2.788903
O	0.109486	2.358135	-1.873065
N	-1.610967	0.165926	-2.026374
H	-2.273631	0.615152	-1.400041
H	-1.987913	-0.749065	-2.224944
Br	-4.202219	0.0	0.0
