18

C	0.0	0.0	0.0
C	-0.345986	0.34465	-1.475383
F	1.403751	0.0	0.0
H	0.236005	-0.356413	-2.078429
C	-0.558663	0.958947	1.017729
H	-0.263427	1.986004	0.799873
H	-1.651022	0.886537	1.006522
H	-0.183119	0.682424	2.006311
N	-0.464221	-1.340532	0.20629
H	0.300443	-1.994467	0.121495
H	-0.947567	-1.459272	1.084602
N	0.236556	1.696806	-1.799833
O	1.391609	1.741565	-2.223409
O	-0.480427	2.676775	-1.601942
N	-1.704956	0.327513	-1.882211
H	-2.311246	0.864704	-1.269237
H	-2.057672	-0.619068	-1.820084
Br	-4.482993	0.0	0.0
