18

C	0.0	0.0	0.0
C	-0.464345	0.12109	-1.45616
F	1.382763	0.0	0.0
H	-1.553896	0.22989	-1.442416
C	-0.443544	1.243295	0.749061
H	-0.085195	1.145894	1.775424
H	-1.532238	1.311515	0.744814
H	-0.016708	2.129293	0.283064
N	-0.467833	-1.157924	0.700265
H	-0.274823	-1.991296	0.161101
H	-1.477117	-1.063747	0.811198
N	-0.234375	-1.161684	-2.267504
O	0.536643	-2.031821	-1.860532
O	-0.806944	-1.197244	-3.357646
N	0.161734	1.217	-2.13224
H	-0.212482	1.312493	-3.066399
H	1.162849	1.072724	-2.167815
Br	-3.84235	0.0	0.0
