18

C	0.0	0.0	0.0
C	-0.425887	-0.083902	-1.489477
F	1.392682	0.0	0.0
H	-1.505857	-0.2576	-1.507163
C	-0.443668	1.317881	0.60356
H	0.073477	2.15008	0.12236
H	-0.174673	1.297666	1.66185
H	-1.526332	1.429346	0.50765
N	-0.465035	-1.075431	0.820082
H	-0.383292	-1.952858	0.315749
H	-1.464989	-0.921212	0.960726
N	0.226533	-1.314345	-2.069003
O	1.27803	-1.171851	-2.686916
O	-0.311275	-2.402254	-1.839382
N	-0.074585	1.022833	-2.32988
H	0.854291	1.355034	-2.098466
H	-0.747568	1.76374	-2.187702
Br	-3.804989	0.0	0.0
