18

C	0.0	0.0	0.0
C	-0.469291	-0.077315	-1.461249
F	1.40344	0.0	0.0
H	-1.560419	-0.146832	-1.456602
C	-0.425944	1.307893	0.639087
H	-0.065707	1.316069	1.672298
H	-1.516132	1.370021	0.636751
H	0.008982	2.166759	0.122866
N	-0.437418	-1.182138	0.680794
H	-0.281768	-1.062703	1.675266
H	-1.446572	-1.260282	0.545934
N	0.036742	-1.371215	-2.044881
O	1.200482	-1.384311	-2.44149
O	-0.738708	-2.323067	-2.083766
N	-0.023057	0.985154	-2.317965
H	0.92033	1.256421	-2.071357
H	-0.64686	1.774711	-2.223433
Br	-3.818773	0.0	0.0
