18

C	0.0	0.0	0.0
C	-0.370665	0.12563	-1.453209
F	1.396369	0.0	0.0
H	-0.039179	-0.776328	-1.971338
C	-0.393477	1.168657	0.879306
H	0.064264	2.082694	0.504001
H	-1.478915	1.258523	0.902216
H	-0.011051	0.975981	1.886014
C	-0.419444	-1.340365	0.55722
H	0.008347	-2.150954	-0.044905
H	-1.511381	-1.385485	0.553973
H	-0.036271	-1.422607	1.5796
N	0.479214	1.192805	-2.059166
O	1.455935	0.845307	-2.721694
O	0.175272	2.369103	-1.841114
C	-1.84854	0.332899	-1.744504
N	-2.433145	0.581802	-2.762974
H	-2.69922	0.0	0.0
