18

C	0.0	0.0	0.0
C	-0.623474	-0.027601	-1.391073
F	1.391318	0.0	0.0
H	-1.754355	-0.050062	-1.1251
C	-0.462575	1.278223	0.67074
H	-0.070962	2.15373	0.147067
H	-1.560972	1.277586	0.665075
H	-0.097101	1.290754	1.700651
C	-0.444729	-1.214193	0.790737
H	-1.540326	-1.25205	0.76414
H	-0.099353	-1.102103	1.821677
H	-0.019415	-2.129561	0.376403
N	-0.259549	-1.269681	-2.135611
O	-0.934319	-2.272782	-1.907788
O	0.697701	-1.224484	-2.912746
C	-0.260793	1.123071	-2.200874
N	-0.016651	2.087647	-2.826902
H	-3.06688	0.0	0.0
