17

C	0.0	0.0	0.0
C	-0.223519	-0.019076	-1.56612
Br	1.9676	0.0	0.0
H	0.471378	-0.783872	-1.923898
N	-0.515644	1.215925	0.555677
H	-1.544572	1.088794	0.44224
H	-0.335414	1.212999	1.556455
N	-0.492616	-1.24876	0.52471
H	-0.247057	-1.296169	1.511055
H	-1.523671	-1.106504	0.482382
C	0.221087	1.253017	-2.147867
N	0.523038	2.239047	-2.709973
C	-1.58522	-0.383702	-2.17011
H	-1.444865	-0.442618	-3.257021
H	-2.364052	0.326245	-1.912953
H	-1.911744	-1.351735	-1.794495
H	-3.082047	0.0	0.0
