17

C	0.0	0.0	0.0
C	-0.435839	-0.142638	-1.460124
F	1.401723	0.0	0.0
H	-1.527337	-0.21786	-1.393093
H	-0.019404	-1.078965	-1.853848
N	-0.52129	1.172794	0.651202
H	-0.324547	1.980568	0.067339
H	-1.545646	0.984696	0.5794
C	-0.453728	-1.207904	0.797127
H	-1.547211	-1.193729	0.7555
H	-0.047277	-2.124786	0.358978
H	-0.095715	-1.105997	1.824929
C	0.001527	1.018602	-2.348021
H	1.075852	1.204479	-2.25723
H	-0.531288	1.937221	-2.08995
H	-0.218159	0.809257	-3.399729
F	-2.938149	0.0	0.0
