17

C	0.0	0.0	0.0
C	-0.227395	-0.484111	-1.462673
F	1.425986	0.0	0.0
H	-0.055555	-1.571088	-1.464426
H	0.615971	-0.043944	-2.005145
N	-0.546002	1.31498	0.166338
H	-0.406982	1.584223	1.138812
H	-1.565793	1.109499	0.070017
C	-0.473324	-0.983191	1.046859
H	-1.565073	-0.979823	0.948425
H	-0.183534	-0.629723	2.043581
H	-0.049512	-1.978539	0.88856
C	-1.508281	-0.151308	-2.21853
H	-1.474835	-0.641453	-3.200859
H	-2.390808	-0.420517	-1.638381
H	-1.561729	0.929533	-2.383549
F	-3.031435	0.0	0.0
