17

C	0.0	0.0	0.0
C	-0.54465	0.038146	-1.410064
F	1.427698	0.0	0.0
H	-1.637368	0.10319	-1.227366
H	-0.186416	0.961345	-1.888009
N	-0.36468	1.226015	0.662916
H	0.009149	1.999697	0.12417
H	0.084189	1.235424	1.57245
C	-0.548274	-1.158576	0.790971
H	-1.645147	-1.020145	0.696417
H	-0.206639	-2.115381	0.38701
H	-0.226544	-1.089398	1.836597
C	-0.145604	-1.166821	-2.253929
H	-0.42876	-1.016747	-3.300877
H	-0.654145	-2.070127	-1.909048
H	0.935098	-1.342192	-2.217218
F	-3.074328	0.0	0.0
