17

C	0.0	0.0	0.0
C	-0.455267	0.124976	-1.448586
F	1.406134	0.0	0.0
H	-0.102749	1.103637	-1.792801
H	-1.549102	0.134796	-1.38509
N	-0.52355	1.137398	0.709221
H	-0.352683	0.984593	1.700843
H	-1.547188	0.984973	0.566611
C	-0.42917	-1.319142	0.627517
H	-0.092847	-1.343421	1.670856
H	-0.000529	-2.183268	0.111617
H	-1.522803	-1.311046	0.576645
C	0.061235	-0.975622	-2.367891
H	-0.168517	-0.742758	-3.412912
H	1.145313	-1.090664	-2.278632
H	-0.405323	-1.937374	-2.141163
F	-2.936923	0.0	0.0
