17

C	0.0	0.0	0.0
C	-0.192574	-0.134126	-1.535593
F	1.399626	0.0	0.0
H	0.448704	0.668833	-1.919514
H	0.312208	-1.07258	-1.795538
N	-0.528036	1.248041	0.469334
H	-0.328224	1.302914	1.467724
H	-1.552248	1.064744	0.372647
C	-0.447	-1.205365	0.804712
H	-0.059035	-1.106722	1.826133
H	-1.540733	-1.183315	0.802398
H	-0.055706	-2.135968	0.378381
C	-1.534904	-0.070281	-2.247653
H	-2.084435	0.829185	-1.992937
H	-2.193539	-0.886242	-1.968499
H	-1.33721	-0.094553	-3.329846
F	-2.963627	0.0	0.0
