14

C	0.0	0.0	0.0
C	-0.529983	0.00882	-1.409588
Cl	1.767401	0.0	0.0
H	-1.60037	0.239175	-1.275836
H	-0.378648	-0.821171	0.60208
H	-0.021289	0.794621	-1.972955
N	-0.383273	1.253187	0.754032
O	-0.469397	1.152981	1.972998
O	-0.469127	2.292397	0.109663
C	-0.389939	-1.360173	-2.060194
H	-0.652832	-1.30277	-3.119977
H	0.622579	-1.767918	-1.988658
H	-1.089348	-2.05093	-1.582878
H	-3.01834	0.0	0.0
