14

C	0.0	0.0	0.0
C	-0.46617	-0.329498	-1.41067
Cl	1.758934	0.0	0.0
H	-1.54951	-0.462296	-1.335205
H	-0.347463	-0.778498	0.696738
H	-0.021232	-1.295501	-1.679173
N	-0.615339	1.226848	0.52896
O	-0.378	1.466271	1.740348
O	-1.773791	1.424375	-0.043036
C	-0.12528	0.723509	-2.456813
H	-0.517075	0.420223	-3.434291
H	0.952298	0.870257	-2.558384
H	-0.589653	1.668385	-2.179994
H	-2.842315	0.0	0.0
