14

C	0.0	0.0	0.0
C	-0.485307	0.059657	-1.428198
Cl	1.767416	0.0	0.0
H	0.044071	0.865023	-1.943411
H	-0.388564	-0.842941	0.562634
H	-1.557043	0.28199	-1.329129
N	-0.38946	1.224695	0.792391
O	-0.477871	2.286139	0.184999
O	-0.458003	1.086308	2.009472
C	-0.299313	-1.28249	-2.121763
H	-0.942933	-2.025643	-1.643418
H	0.735735	-1.636013	-2.093927
H	-0.599445	-1.210213	-3.170637
H	-2.901959	0.0	0.0
