14

C	0.0	0.0	0.0
C	-0.245579	-0.200103	-1.523933
Cl	1.765655	0.0	0.0
H	0.189631	-1.179104	-1.757474
H	-0.309308	-0.802583	0.655233
H	0.405521	0.538946	-1.996081
N	-0.624655	1.225578	0.513142
O	-0.624997	2.20517	-0.278928
O	-0.636303	1.359956	1.760954
C	-1.603338	-0.076902	-2.205883
H	-2.067714	0.872949	-1.949888
H	-1.420421	-0.101808	-3.292559
H	-2.289833	-0.879743	-1.946856
H	-2.084785	0.0	0.0
