20

C	-0.504488	-0.0857	-1.461772
C	0.0	0.0	0.0
F	-0.509063	1.244794	-1.935482
H	1.091194	0.0	0.0
C	0.449496	-0.85128	-2.353655
H	0.473096	-1.904704	-2.07482
H	0.125823	-0.751427	-3.394296
H	1.45973	-0.454213	-2.234632
C	-1.939851	-0.571373	-1.568622
H	-2.279372	-0.444373	-2.598743
H	-2.014512	-1.627628	-1.306716
H	-2.599491	0.001771	-0.913683
N	-0.425648	-1.253038	0.699593
O	-1.236638	-1.170113	1.624906
O	0.033558	-2.316338	0.285251
C	-0.488052	1.222537	0.747417
H	-1.575573	1.31252	0.751435
H	-0.05303	2.101504	0.273901
H	-0.138706	1.179635	1.778848
Br	3.551545	0.0	0.0
