20

C	-0.469766	0.029696	-1.461485
C	0.0	0.0	0.0
F	-0.102968	-1.200071	-2.030802
H	1.091891	0.0	0.0
C	-1.971889	0.137977	-1.647568
H	-2.196252	0.059607	-2.714273
H	-2.484552	-0.666957	-1.119679
H	-2.351901	1.09311	-1.281883
C	0.296919	1.104477	-2.210589
H	1.366694	0.993455	-2.015979
H	0.107804	0.988425	-3.281118
H	-0.022096	2.104973	-1.90927
N	-0.481466	-1.268104	0.626769
O	-1.613046	-1.258729	1.129486
O	0.248851	-2.250754	0.581637
C	-0.464214	1.184695	0.82868
H	-0.020356	2.097365	0.426632
H	-0.093937	1.069796	1.849334
H	-1.549212	1.278638	0.862654
Br	3.572602	0.0	0.0
