20

C	-0.388278	-0.085772	-1.478844
C	0.0	0.0	0.0
F	-1.795081	-0.014961	-1.596243
H	1.091726	0.0	0.0
C	0.200982	1.106195	-2.213822
H	-0.009262	1.013309	-3.281786
H	1.282426	1.131298	-2.055037
H	-0.238069	2.040283	-1.859382
C	0.058555	-1.38511	-2.119583
H	1.127591	-1.529764	-1.946909
H	-0.140172	-1.340555	-3.192642
H	-0.482749	-2.235526	-1.701419
N	-0.481546	-1.229349	0.698912
O	-1.582623	-1.178076	1.255214
O	0.22731	-2.234038	0.650032
C	-0.528927	1.228055	0.714487
H	-0.366486	1.127748	1.788726
H	0.027557	2.103333	0.379763
H	-1.593925	1.368801	0.53301
Br	3.531936	0.0	0.0
