14

C	-0.529396	0.007013	-1.417834
C	0.0	0.0	0.0
Br	0.256238	-1.709445	-2.239198
H	1.088707	0.0	0.0
H	-0.406117	-0.841959	0.560972
C	-1.973839	-0.201632	-1.516747
N	-3.134251	-0.364586	-1.618034
N	-0.166832	1.185558	-2.092433
H	0.830226	1.363829	-2.053834
H	-0.515921	1.23453	-3.040158
N	-0.455844	1.257548	0.657694
O	0.381457	2.144828	0.809675
O	-1.623972	1.304391	1.052808
Br	2.758124	0.0	0.0
