14

C	-0.493178	0.006213	-1.431332
C	0.0	0.0	0.0
Br	-2.583594	0.222647	-1.33849
H	1.092052	0.0	0.0
H	-0.377057	-0.883545	0.5152
C	-0.085715	1.1388	-2.259968
N	0.260976	1.965353	-3.019882
N	-0.125165	-1.186127	-2.051774
H	-0.38287	-1.244104	-3.026365
H	-0.381376	-2.013046	-1.534336
N	-0.460284	1.168393	0.77951
O	-0.366886	2.272351	0.252884
O	-0.871008	0.954143	1.918064
Br	3.41706	0.0	0.0
