14

C	-0.349844	-0.157196	-1.481189
C	0.0	0.0	0.0
Br	-2.269184	-0.780172	-1.683793
H	1.091132	0.0	0.0
H	-0.430744	0.898357	0.432358
C	-0.382343	1.182184	-2.089052
N	-0.354996	2.227975	-2.628015
N	0.526384	-1.060745	-2.122433
H	0.601817	-0.889412	-3.114667
H	1.444407	-1.063337	-1.67591
N	-0.453966	-1.144687	0.823011
O	-1.174217	-0.885747	1.78885
O	-0.068114	-2.263667	0.501883
Br	3.407857	0.0	0.0
