14

C	-0.461187	0.006895	-1.437302
C	0.0	0.0	0.0
Br	-2.476814	0.203526	-1.44258
H	1.093292	0.0	0.0
H	-0.391898	-0.881108	0.51064
C	0.056761	1.121181	-2.235988
N	0.53454	1.967235	-2.89555
N	-0.173527	-1.21871	-2.149632
H	0.842512	-1.271928	-2.247413
H	-0.472951	-2.00675	-1.581704
N	-0.438843	1.163775	0.768435
O	-1.007892	0.972359	1.846109
O	-0.12695	2.272283	0.343246
Br	3.136325	0.0	0.0
