16

C	0.0	0.0	0.0
C	-0.482494	0.903962	-1.148521
F	1.361348	0.0	0.0
H	-0.178422	1.898672	-0.792245
H	-0.371565	0.30235	0.98018
N	-0.369551	-1.464646	-0.128145
O	-0.058609	-2.162895	0.834317
O	-0.882318	-1.865412	-1.168542
N	-1.896855	0.947773	-1.415867
H	-2.234686	0.036294	-1.699246
H	-2.473487	1.186709	-0.614774
C	0.27709	0.638649	-2.448704
H	0.031751	1.446938	-3.13489
H	-0.044641	-0.298701	-2.897876
H	1.356557	0.609493	-2.301936
Cl	-4.579771	0.0	0.0
