15

C	-0.350576	0.141566	-1.507471
C	0.0	0.0	0.0
Cl	0.051727	1.812735	-2.000062
H	1.091189	0.0	0.0
N	0.442394	-0.766928	-2.292448
H	0.153224	-1.721706	-2.106066
H	1.418773	-0.664664	-2.0102
C	-1.777452	-0.08338	-1.778839
N	-2.908143	-0.299366	-2.019124
C	-0.498481	-1.276104	0.486804
N	-0.873446	-2.332834	0.837794
N	-0.579612	1.101226	0.831342
O	0.186027	1.958603	1.252597
O	-1.802021	1.067239	0.994548
Cl	3.182859	0.0	0.0
