15

C	-0.324611	0.088098	-1.504987
C	0.0	0.0	0.0
Cl	-2.088298	0.432593	-1.763254
H	1.094648	0.0	0.0
N	0.459891	1.127817	-2.085798
H	0.502725	1.021509	-3.091009
H	1.40188	1.107467	-1.690377
C	-0.095045	-1.23946	-2.107502
N	0.113894	-2.24691	-2.677804
C	-0.570796	-1.176677	0.625446
N	-1.004891	-2.152761	1.114193
N	-0.457718	1.242066	0.70915
O	-1.444891	1.1535	1.437423
O	0.197732	2.25512	0.500058
Cl	3.142279	0.0	0.0
