15

C	-0.415696	0.00172	-1.47951
C	0.0	0.0	0.0
Cl	-2.203258	0.301533	-1.626339
H	1.094347	0.0	0.0
N	0.295563	1.022885	-2.172574
H	0.247813	0.877831	-3.172924
H	1.264661	1.045054	-1.856451
C	-0.207104	-1.353989	-2.024411
N	-0.021891	-2.393766	-2.542238
C	-0.542235	-1.136834	0.721343
N	-0.950882	-2.074758	1.298745
N	-0.428939	1.280837	0.666601
O	-1.347546	1.225037	1.481514
O	0.18871	2.28651	0.341375
Cl	3.133215	0.0	0.0
