15

C	-0.306672	0.09158	-1.509804
C	0.0	0.0	0.0
Cl	-2.054369	0.498222	-1.794657
H	1.093435	0.0	0.0
N	0.524207	1.098716	-2.081067
H	0.574998	0.992018	-3.086221
H	1.461226	1.040314	-1.675948
C	-0.121861	-1.248324	-2.104855
N	0.043169	-2.266587	-2.670295
C	-0.583783	-1.172179	0.620163
N	-1.034443	-2.145932	1.097569
N	-0.456118	1.245054	0.704066
O	0.226066	2.246737	0.525479
O	-1.467883	1.169431	1.398783
Cl	3.14911	0.0	0.0
