15

C	-0.324703	0.129897	-1.504635
C	0.0	0.0	0.0
Cl	-2.071592	0.575168	-1.746941
H	1.094494	0.0	0.0
N	0.513157	1.133913	-2.072169
H	0.561012	1.034684	-3.078604
H	1.452271	1.079447	-1.670686
C	-0.174042	-1.196941	-2.130619
N	-0.018119	-2.213965	-2.699816
C	-0.5786	-1.185449	0.601969
N	-1.026272	-2.167951	1.065564
N	-0.448684	1.229606	0.739557
O	0.196672	2.249138	0.529078
O	-1.417126	1.12565	1.488561
Cl	3.145413	0.0	0.0
