17

C	-0.352554	-0.012618	-1.49786
C	0.0	0.0	0.0
Br	-2.316791	-0.180184	-1.764424
H	1.099062	0.0	0.0
C	0.009281	1.264967	-2.109998
N	0.282696	2.29482	-2.604473
C	0.339731	-1.165602	-2.213217
H	0.134976	-1.134586	-3.284608
H	-0.014796	-2.113917	-1.805838
H	1.413718	-1.071462	-2.024872
C	-0.453668	-1.239025	0.623625
N	-0.838229	-2.219336	1.145442
C	-0.494214	1.218159	0.773675
H	-0.083255	2.126276	0.32896
H	-0.1306	1.156107	1.801252
H	-1.585491	1.276312	0.783377
Cl	3.277857	0.0	0.0
