17

C	-0.525257	0.007941	-1.454956
C	0.0	0.0	0.0
Br	0.26369	1.522857	-2.425222
H	1.095738	0.0	0.0
C	-0.092853	-1.202573	-2.150815
N	0.197382	-2.208308	-2.68445
C	-2.04397	0.124472	-1.549824
H	-2.361165	0.077224	-2.592219
H	-2.504919	-0.698985	-0.998566
H	-2.373517	1.073406	-1.128921
C	-0.480261	-1.225169	0.63809
N	-0.929088	-2.174563	1.16716
C	-0.443026	1.20929	0.828447
H	0.078481	1.1701	1.785092
H	-0.144084	2.130762	0.328509
H	-1.519129	1.224317	1.017346
Cl	3.2841	0.0	0.0
