17

C	-0.359675	-0.006723	-1.493919
C	0.0	0.0	0.0
Br	-2.332434	-0.133548	-1.746482
H	1.099062	0.0	0.0
C	0.023778	1.263604	-2.108207
N	0.316215	2.288986	-2.604627
C	0.305593	-1.173802	-2.21299
H	-0.067545	-2.114973	-1.805309
H	0.098631	-1.138093	-3.283632
H	1.382902	-1.101796	-2.029142
C	-0.45744	-1.237233	0.623346
N	-0.831575	-2.221325	1.14567
C	-0.482188	1.219941	0.779954
H	-0.093332	1.162169	1.798364
H	-0.083333	2.127479	0.322701
H	-1.572762	1.276211	0.814384
Cl	3.272783	0.0	0.0
