17

C	-0.521427	0.009392	-1.454683
C	0.0	0.0	0.0
Br	0.276953	1.531325	-2.423968
H	1.095818	0.0	0.0
C	-0.091251	-1.195305	-2.165273
N	0.177296	-2.192677	-2.728347
C	-2.039639	0.135368	-1.550617
H	-2.502379	-0.687986	-0.996548
H	-2.357772	0.091172	-2.59223
H	-2.362752	1.08687	-1.124645
C	-0.482601	-1.223669	0.637653
N	-0.935331	-2.178752	1.154182
C	-0.440316	1.210599	0.828067
H	-1.515454	1.222997	1.022232
H	-0.140245	2.132087	0.325479
H	0.084536	1.16548	1.784637
Cl	3.277865	0.0	0.0
