17

C	-0.399852	0.059991	-1.49103
C	0.0	0.0	0.0
Br	0.056464	-1.653037	-2.350686
H	1.096622	0.0	0.0
C	-1.843166	0.233015	-1.652445
N	-2.998964	0.421285	-1.766223
C	0.37917	1.159881	-2.210123
H	0.196109	1.113138	-3.28419
H	0.062411	2.140513	-1.84527
H	1.442619	1.018387	-1.999289
C	-0.536301	-1.185431	0.658233
N	-0.989151	-2.095972	1.246903
C	-0.447807	1.253138	0.766252
H	-1.530562	1.398818	0.721746
H	-0.15088	1.144701	1.810989
H	0.060992	2.134283	0.37551
Cl	3.310721	0.0	0.0
