17

C	-0.346301	-0.022915	-1.498819
C	0.0	0.0	0.0
Br	-2.308779	-0.22338	-1.774948
H	1.099063	0.0	0.0
C	-0.005842	1.260612	-2.110703
N	0.253632	2.295874	-2.60427
C	0.373434	-1.164725	-2.206493
H	1.445181	-1.048097	-2.011928
H	0.036976	-2.118948	-1.797418
H	0.174736	-1.142158	-3.279347
C	-0.450661	-1.237745	0.628353
N	-0.821856	-2.22067	1.154978
C	-0.501509	1.220688	0.764757
H	-1.592849	1.278596	0.761991
H	-0.086331	2.127485	0.321205
H	-0.149606	1.161999	1.796302
Cl	3.281445	0.0	0.0
