12
Coordinates from ORCA-job run
  C   0.84873674467176     -0.33404335031521     -0.14860814188732
  C   -0.60510618048431     -0.72515620703731     -0.12664311215973
  Cl  1.83167953034597     -1.70588969385835      0.36920034826610
  H   -0.93519344418229     -0.99053735593997      0.87471413733896
  H   1.19559096482325      0.00113172028254     -1.12161064857425
  H   -0.78897799428808     -1.55525667651304     -0.81015065536057
  N   1.10386738313360      0.81763972195586      0.79525618159896
  O   2.05944579689580      1.53027174376349      0.51982375204312
  O   0.35528823920971      0.92430478223961      1.76033755333700
  N   -1.47193843217108      0.40656535099033     -0.58407062459180
  O   -2.67434976064373      0.26597569135228     -0.40718898149942
  O   -0.91904284731059      1.36399427307976     -1.12105980851104
