12
Coordinates from ORCA-job run
  C   0.67887582937930     -0.28320276677764      0.05644143627261
  C   -0.70330283628475      0.32199395053287     -0.01831211799133
  Cl  0.71025314687707     -1.67645552877866      1.13271914956171
  H   -0.68352985475710      1.23645632991037     -0.61607467043383
  H   1.05045939678270     -0.58662153511045     -0.91827087439645
  H   -1.11524132721095      0.51433686386720      0.96788800253655
  N   1.63274869224779      0.76011043260595      0.57692840197687
  O   1.24031801244023      1.45082629628659      1.51185463362128
  O   2.72435384880237      0.82276394928380      0.02180527358958
  N   -1.61746119645959     -0.62663857500580     -0.72414375097621
  O   -2.71806433575790     -0.81942039303656     -0.21992248465488
  O   -1.19940937605917     -1.11414902377768     -1.77091299910590
