12
Coordinates from ORCA-job run
  C   0.52116831146171     -0.32679449447761      0.45076934580366
  C   -0.53567169328941      0.36700078954731     -0.38085036062546
  Cl  -0.09341071344234     -0.79247697932300      2.01858036759146
  H   -1.01430192695921      1.17874991926328      0.16404716960576
  H   0.90746690998236     -1.20387667423974     -0.06351205796373
  H   -0.10089590051205      0.71427761404370     -1.31942017855755
  N   1.69578537969931      0.63711958145014      0.55728042222834
  O   1.93614865768599      1.18568655273780      1.62011115247761
  O   2.29178094904920      0.78539079970279     -0.50547908164305
  N   -1.60739660539939     -0.61031234453329     -0.74566463338688
  O   -2.76714750486285     -0.22625537534967     -0.64694519315453
  O   -1.23352586341333     -1.70750938882170     -1.14891695237562
