16

C	0.0	0.0	0.0
C	-0.392357	0.181002	-1.513572
Cl	1.791208	0.0	0.0
H	0.126944	1.100409	-1.814533
C	-0.583969	1.108795	0.852294
H	-0.288499	2.079579	0.445208
H	-1.675312	1.012334	0.84645
H	-0.223774	1.028605	1.879156
C	-0.415785	-1.318259	0.482088
N	-0.703117	-2.398385	0.84525
N	-1.777331	0.305491	-1.849584
H	-2.353819	-0.453232	-1.49331
H	-2.191771	1.139198	-1.45209
C	0.198378	-0.916555	-2.303134
N	0.649974	-1.783693	-2.952693
Br	-4.427774	0.0	0.0
