16

C	0.0	0.0	0.0
C	-0.557882	-0.09084	-1.425855
Cl	1.796467	0.0	0.0
H	-1.654454	-0.085382	-1.275353
C	-0.490841	1.250832	0.71313
H	-0.116261	1.265733	1.737866
H	-1.584715	1.225637	0.714272
H	-0.130106	2.138352	0.189094
C	-0.387778	-1.209322	0.73577
N	-0.635998	-2.174478	1.356944
N	-0.16979	-1.331735	-2.069203
H	-0.844974	-1.570233	-2.783958
H	0.747348	-1.248918	-2.490779
C	-0.186146	1.109983	-2.194092
N	0.108094	2.024815	-2.871348
Br	-3.81689	0.0	0.0
