16

C	0.0	0.0	0.0
C	-0.392866	-0.09084	-1.521779
Cl	1.79141	0.0	0.0
H	0.142813	0.747479	-1.985806
C	-0.581417	1.245272	0.640583
H	-0.212067	1.354214	1.661489
H	-0.292731	2.125694	0.060105
H	-1.672333	1.148637	0.660717
C	-0.420262	-1.20692	0.711851
N	-0.710333	-2.191775	1.283716
N	-1.776717	0.000629	-1.872032
H	-2.158827	0.912089	-1.654439
H	-2.374791	-0.648949	-1.3655
C	0.174376	-1.324721	-2.097661
N	0.60882	-2.298816	-2.587418
Br	-4.430227	0.0	0.0
