16

C	0.0	0.0	0.0
C	-0.594762	-0.399004	-1.364866
Cl	1.783611	0.0	0.0
H	-1.663186	-0.127385	-1.279871
C	-0.478198	1.390226	0.400433
H	-0.122655	2.117884	-0.33324
H	-1.570674	1.38137	0.430506
H	-0.07659	1.653257	1.380199
C	-0.399928	-0.99684	0.998916
N	-0.638956	-1.805791	1.816475
N	-0.401381	-1.826226	-1.624534
H	-1.1621	-2.309895	-1.153429
H	-0.515783	-2.001852	-2.616551
C	0.007991	0.405234	-2.427289
N	0.460142	1.044981	-3.302471
Br	-3.814608	0.0	0.0
