16

C	0.0	0.0	0.0
C	-0.368181	-0.313649	-1.502044
Cl	1.791433	0.0	0.0
H	0.247037	0.39341	-2.073724
C	-0.582446	1.325707	0.444694
H	-0.220465	1.583786	1.441565
H	-0.291837	2.110899	-0.257557
H	-1.674115	1.228688	0.470738
C	-0.413156	-1.089191	0.886603
N	-0.690121	-1.985234	1.595186
N	-1.727314	-0.172771	-1.929442
H	-2.038806	0.785758	-1.83688
H	-2.389147	-0.704791	-1.365634
C	0.117959	-1.66521	-1.835083
N	0.503495	-2.738066	-2.11417
Br	-4.353149	0.0	0.0
