16

C	0.0	0.0	0.0
C	-0.384374	-0.09541	-1.525626
Cl	1.789818	0.0	0.0
H	0.130133	0.758215	-1.985389
C	-0.596591	1.23649	0.638831
H	-0.314616	2.122625	0.063786
H	-0.238895	1.347217	1.663652
H	-1.686788	1.125384	0.648689
C	-0.419085	-1.212807	0.702696
N	-0.720751	-2.19792	1.267875
N	-1.769017	-0.044822	-1.883982
H	-2.185009	0.852032	-1.665441
H	-2.345488	-0.714753	-1.380109
C	0.216493	-1.313625	-2.102491
N	0.670817	-2.280754	-2.589147
Br	-4.417626	0.0	0.0
