16

C	0.0	0.0	0.0
C	-0.594822	-0.395386	-1.368047
Cl	1.783335	0.0	0.0
H	-1.663377	-0.11953	-1.284206
C	-0.478802	1.391783	0.39662
H	-0.118379	2.116558	-0.336921
H	-0.081853	1.656445	1.378901
H	-1.571616	1.381943	0.42457
C	-0.403217	-0.995781	0.998513
N	-0.64145	-1.804155	1.816848
N	-0.407703	-1.820623	-1.629938
H	-1.184077	-2.301372	-1.180685
H	-0.495323	-1.990247	-2.624974
C	0.011584	0.41264	-2.426069
N	0.461856	1.056617	-3.298908
Br	-3.810148	0.0	0.0
