16

C	0.0	0.0	0.0
C	-0.386029	-0.361103	-1.484868
Cl	1.791527	0.0	0.0
H	0.189823	0.353673	-2.086846
C	-0.576156	1.34578	0.394881
H	-0.279314	2.100118	-0.338684
H	-1.667768	1.261181	0.425515
H	-0.211225	1.64293	1.37876
C	-0.422694	-1.050738	0.925221
N	-0.708706	-1.913191	1.670049
N	-1.760273	-0.275595	-1.876365
H	-2.085583	0.682309	-1.872036
H	-2.405666	-0.766448	-1.257372
C	0.137855	-1.702567	-1.80455
N	0.540617	-2.775142	-2.060903
Br	-4.417001	0.0	0.0
