16

C	-0.457712	0.042312	-1.448373
C	0.0	0.0	0.0
Br	0.122252	-1.633888	-2.449224
H	1.093638	0.0	0.0
H	0.100295	0.817104	-1.976103
N	-1.861453	0.257839	-1.596532
H	-2.372991	-0.510081	-1.179167
H	-2.116445	0.311729	-2.574692
C	-0.560013	-1.152377	0.813315
H	-0.099339	-1.109167	1.80169
H	-1.64526	-1.065638	0.953851
H	-0.326873	-2.120081	0.364652
N	-0.357408	1.282817	0.631691
H	-1.145116	1.701354	0.150569
H	0.449422	1.893345	0.543296
H	2.943901	0.0	0.0
