16

C	-0.577541	0.059679	-1.409928
C	0.0	0.0	0.0
Br	0.013474	1.724259	-2.378058
H	1.094634	0.0	0.0
H	-1.660787	0.260562	-1.331321
N	-0.271774	-1.067947	-2.23198
H	-0.07316	-1.896004	-1.686462
H	-0.975228	-1.236451	-2.931918
C	-0.45482	-1.278778	0.711519
H	0.028611	-2.178318	0.325726
H	-1.544888	-1.400912	0.671379
H	-0.163417	-1.173518	1.764217
N	-0.399235	1.163836	0.807312
H	0.336319	1.849025	0.732297
H	-1.237951	1.579949	0.41592
H	2.970505	0.0	0.0
