16

C	-0.339442	-0.211552	-1.487602
C	0.0	0.0	0.0
Br	-0.637853	1.633359	-2.419977
H	1.097792	0.0	0.0
H	-1.329851	-0.64297	-1.646767
N	0.661906	-0.930421	-2.135455
H	0.412776	-1.877064	-2.422916
H	1.565909	-0.852083	-1.66655
C	-0.484842	-1.255411	0.722232
H	-0.094419	-1.235098	1.740799
H	-0.119837	-2.161941	0.231032
H	-1.582368	-1.290167	0.770778
N	-0.47282	1.183919	0.698475
H	-1.350643	1.504863	0.308807
H	0.200256	1.922572	0.532878
H	2.978242	0.0	0.0
