14

C	0.0	0.0	0.0
C	-0.524054	-0.247701	-1.428877
Cl	1.822265	0.0	0.0
H	-1.632872	-0.246008	-1.297076
N	-0.484184	1.26845	0.434193
H	-0.185824	1.436663	1.388945
H	-1.5116	1.196873	0.420893
C	-0.347657	-1.151602	0.861249
N	-0.54023	-2.043006	1.603429
C	-0.094953	-1.537594	-1.963216
N	0.23758	-2.575196	-2.401679
C	-0.131815	0.838045	-2.325783
N	0.171593	1.674285	-3.092309
Cl	-3.393104	0.0	0.0
