14

C	0.0	0.0	0.0
C	-0.543182	-0.190526	-1.434618
Cl	1.777072	0.0	0.0
H	-1.651433	-0.192796	-1.294307
N	-0.49403	1.252047	0.485106
H	-1.520179	1.17311	0.481767
H	-0.181673	1.390324	1.440107
C	-0.369826	-1.184004	0.812587
N	-0.607031	-2.115757	1.488731
C	-0.11908	-1.458659	-2.022822
N	0.208157	-2.477806	-2.506103
C	-0.15427	0.928954	-2.290099
N	0.135806	1.80124	-3.020776
Cl	-3.416603	0.0	0.0
