14

C	0.0	0.0	0.0
C	-0.40404	0.070094	-1.546895
Cl	1.835094	0.0	0.0
H	0.526038	-0.022905	-2.119457
N	-0.438431	1.033895	0.864486
H	-0.221462	1.937506	0.456983
H	-1.462789	0.930027	0.909812
C	-0.363076	-1.315498	0.54316
N	-0.499623	-2.39821	0.97908
C	-0.939449	1.391268	-1.865039
N	-1.233207	2.489278	-2.160951
C	-1.248135	-1.021877	-2.037706
N	-1.695401	-1.95642	-2.592984
Cl	-3.184918	0.0	0.0
