14

C	0.0	0.0	0.0
C	-0.435409	-0.324465	-1.507242
Cl	1.788415	0.0	0.0
H	0.486384	-0.527213	-2.063894
N	-0.443208	1.228189	0.568415
H	-0.189206	1.996338	-0.044088
H	-1.469802	1.157978	0.607079
C	-0.385553	-1.118326	0.873047
N	-0.519752	-2.045352	1.582453
C	-1.005999	0.870481	-2.123026
N	-1.281066	1.875163	-2.665063
C	-1.254452	-1.522994	-1.691505
N	-1.659009	-2.588068	-1.984714
Cl	-3.193895	0.0	0.0
