14

C	0.0	0.0	0.0
C	-0.352147	-0.429165	-1.470497
Cl	1.829216	0.0	0.0
H	0.52726	-0.134763	-2.053106
N	-0.442035	1.337743	0.216339
H	-0.155542	1.635064	1.143953
H	-1.473079	1.280593	0.201626
C	-0.376764	-0.997247	1.015847
N	-0.524696	-1.756255	1.902174
C	-1.446903	0.264736	-2.16315
N	-2.037163	0.807156	-3.02482
C	-0.457104	-1.883274	-1.607072
N	-0.464198	-3.048636	-1.751562
Cl	-3.221249	0.0	0.0
