17

C	-0.418871	0.017412	-1.464652
C	0.0	0.0	0.0
F	-0.135367	1.257048	-1.967705
H	1.093136	0.0	0.0
C	0.238359	-0.988041	-2.303741
N	0.769423	-1.733831	-3.03984
N	-1.944217	-0.123159	-1.657475
O	-2.611242	0.724532	-1.073617
O	-2.369507	-1.008124	-2.386456
N	-0.4309	-1.273403	0.629846
O	-0.290651	-1.374915	1.84305
O	-0.887284	-2.153147	-0.106865
C	-0.438049	1.184765	0.842255
H	0.165289	1.177536	1.748875
H	-0.227083	2.104664	0.298787
H	-1.496073	1.149606	1.099414
Cl	3.164775	0.0	0.0
