17

C	-0.424728	0.037473	-1.457683
C	0.0	0.0	0.0
F	0.020693	1.19703	-2.001062
H	1.109276	0.0	0.0
C	-0.005267	-1.066093	-2.328825
N	0.290716	-1.84097	-3.161163
N	-1.970606	0.090377	-1.560124
O	-2.571367	-0.723857	-0.871306
O	-2.456726	0.920534	-2.314306
N	-0.368125	-1.298943	0.642006
O	-0.175331	-2.321636	-0.008265
O	-0.772894	-1.266055	1.801232
C	-0.529207	1.181615	0.78008
H	-0.267371	2.100668	0.255239
H	-0.047767	1.199588	1.755987
H	-1.610331	1.12774	0.926076
Cl	3.178971	0.0	0.0
