14

C	0.026588	-0.010786	0.020853
C	-0.564232	0.218639	-1.375645
Cl	1.840853	0.069408	-0.067697
H	-1.665964	0.190355	-1.261755
H	-0.245962	-0.575548	-2.055861
C	-0.476923	1.014334	1.023146
H	-0.075091	0.805254	2.015833
H	-1.570217	0.963955	1.028982
H	-0.160629	2.010859	0.709011
C	-0.291423	-1.373778	0.454266
N	-0.49832	-2.47473	0.807757
C	-0.164463	1.509498	-1.922871
N	0.159865	2.545145	-2.370773
Cl	-3.736141	0.31743	-0.33061
