14

C	-0.313058	-0.083251	-1.507022
C	0.0	0.0	0.0
F	-1.647682	-0.410791	-1.712277
H	1.097829	0.0	0.0
C	-0.141788	1.247372	-2.149163
N	-0.003444	2.256642	-2.734988
N	0.506287	-1.109409	-2.048816
H	1.462545	-1.015384	-1.701791
H	0.505149	-1.082402	-3.060551
C	-0.478108	-1.207503	0.668639
N	-0.857025	-2.16654	1.229759
C	-0.545269	1.195187	0.629843
N	-0.990914	2.155806	1.137793
Cl	3.149382	0.0	0.0
