14

C	-0.479641	-0.025283	-1.46573
C	0.0	0.0	0.0
F	0.126774	1.060746	-2.095282
H	1.095817	0.0	0.0
C	-0.017831	-1.245863	-2.156385
N	0.281001	-2.209556	-2.757002
N	-1.895462	0.032754	-1.549014
H	-2.235725	0.869606	-1.088525
H	-2.195504	0.031972	-2.515792
C	-0.494663	-1.168344	0.723619
N	-0.878058	-2.112999	1.306425
C	-0.485273	1.230518	0.622683
N	-0.908519	2.224448	1.084329
Cl	3.142096	0.0	0.0
