14

C	-0.309738	-0.083024	-1.50809
C	0.0	0.0	0.0
F	-1.642548	-0.418087	-1.716168
H	1.097831	0.0	0.0
C	-0.144135	1.248665	-2.145443
N	0.009186	2.272493	-2.70119
N	0.515949	-1.10395	-2.049239
H	1.471397	-1.010323	-1.698552
H	0.518186	-1.074154	-3.061051
C	-0.477836	-1.208721	0.666084
N	-0.855951	-2.167255	1.228621
C	-0.546445	1.193675	0.631202
N	-0.988323	2.15553	1.140325
Cl	3.149394	0.0	0.0
