14

C	-0.470598	-0.002305	-1.466658
C	0.0	0.0	0.0
F	-0.026466	1.154072	-2.059476
H	1.096619	0.0	0.0
C	0.14976	-1.140837	-2.194921
N	0.508249	-2.088029	-2.791219
N	-1.900342	-0.007466	-1.549469
H	-2.198931	-0.146604	-2.506969
H	-2.292339	-0.739791	-0.971551
C	-0.4846	-1.206358	0.66407
N	-0.908566	-2.184243	1.158705
C	-0.493935	1.197273	0.676129
N	-0.87142	2.157798	1.236061
Cl	3.13076	0.0	0.0
