14

C	-0.29916	-0.055995	-1.523124
C	0.0	0.0	0.0
F	-1.650382	-0.293477	-1.706425
H	1.09679	0.0	0.0
C	0.009487	1.254957	-2.133244
N	0.207008	2.300492	-2.628738
N	0.433516	-1.081693	-2.197817
H	0.197378	-1.975605	-1.776755
H	1.428535	-0.919656	-2.037729
C	-0.466548	-1.239688	0.612771
N	-0.830321	-2.260127	1.066612
C	-0.559645	1.168053	0.664703
N	-1.007056	2.115811	1.195401
Cl	3.138868	0.0	0.0
