14

C	-0.478239	0.014386	-1.464465
C	0.0	0.0	0.0
F	-0.121663	1.220348	-2.016551
H	1.10286	0.0	0.0
C	0.209773	-1.040935	-2.25453
N	0.609715	-1.894066	-2.956383
N	-1.908184	-0.08381	-1.53965
H	-2.238934	-0.890434	-1.02355
H	-2.198482	-0.172525	-2.506556
C	-0.45896	-1.222227	0.65432
N	-0.85066	-2.213221	1.15043
C	-0.509213	1.178889	0.695396
N	-0.918471	2.121986	1.262157
Cl	3.127414	0.0	0.0
