14

C	-0.288096	-0.133462	-1.525688
C	0.0	0.0	0.0
F	-0.006264	-1.446227	-1.842084
H	1.096431	0.0	0.0
C	-1.716114	0.10833	-1.83796
N	-2.845972	0.304781	-2.09103
N	0.54095	0.709766	-2.318036
H	1.497968	0.656285	-1.960607
H	0.222425	1.670101	-2.291854
C	-0.564675	-1.081752	0.793222
N	-1.038119	-1.951853	1.424564
C	-0.454464	1.30662	0.462636
N	-0.817458	2.37535	0.789159
Cl	3.156335	0.0	0.0
