11
Coordinates from ORCA-job run
  C   -0.09129167126869      0.15383208153343     -0.41310070674936
  C   1.21180057158761     -0.13257435561096      0.29151459931533
  F   0.07530548481195      1.10295649224424     -1.36407798401300
  H   1.93709964513563     -0.49393932403214     -0.43795095297765
  H   1.06390301034261     -0.88293152995006      1.06671708830264
  H   1.57810405764469      0.79535096950016      0.73442932133958
  N   -1.08144727191232      0.70624204654242      0.62626766609354
  O   -1.36063470075720      1.89096256888955      0.55529389799257
  O   -1.45496044445228     -0.11052332086436      1.45726141279592
  C   -0.71088374741237     -1.03639739744425     -1.00679652867022
  N   -1.16599493371963     -1.99597823080802     -1.50755781342935
