11
Coordinates from ORCA-job run
  C   -0.10278902527996      0.15351827023097     -0.41069993207140
  C   1.21930574606726     -0.13169146845462      0.25805580721777
  F   0.03777721746455      1.10072854210684     -1.36792410096693
  H   1.09187959820752     -0.87558036310405      1.04308360250985
  H   1.60091089958763      0.79863383308263      0.68269591478673
  H   1.92196221270450     -0.50092019257631     -0.48947335810374
  N   -1.06419539127509      0.70775262713418      0.65404257641685
  O   -1.34531257901931      1.89238110436171      0.58862059366581
  O   -1.41489148055970     -0.10749381327363      1.49639067874920
  C   -0.73827163546005     -1.03769803880631     -0.98531995903412
  N   -1.20537556243735     -1.99963050070141     -1.47047182317004
