15

C	-0.460087	-0.050817	-1.450864
C	0.0	0.0	0.0
F	-0.166068	-1.269873	-2.04435
H	1.100356	0.0	0.0
H	0.049027	0.736557	-2.009453
C	-1.921005	0.153539	-1.547174
N	-3.082665	0.299298	-1.624829
C	-0.511573	-1.182996	0.803732
H	-0.194861	-2.124109	0.351723
H	-1.606746	-1.17604	0.870415
H	-0.09695	-1.136131	1.812816
N	-0.426414	1.310367	0.496871
H	0.316681	1.707208	1.054186
H	-1.252812	1.223677	1.07533
Br	3.583911	0.0	0.0
