15

C	-0.391302	-0.070086	-1.470285
C	0.0	0.0	0.0
F	-1.779631	-0.248012	-1.60216
H	1.096518	0.0	0.0
H	0.093286	-0.920018	-1.959026
C	-0.058232	1.167284	-2.193296
N	0.15956	2.166359	-2.769187
C	-0.490368	-1.245301	0.725349
H	-1.582378	-1.268186	0.778478
H	-0.088961	-1.228775	1.738483
H	-0.141502	-2.155362	0.228983
N	-0.477288	1.201124	0.674021
H	0.140434	1.975184	0.462379
H	-1.411713	1.437145	0.35904
Br	3.570541	0.0	0.0
