15

C	-0.533772	0.144792	-1.409939
C	0.0	0.0	0.0
F	-0.078081	1.325825	-1.983538
H	1.095588	0.0	0.0
H	-1.62683	0.220094	-1.363576
C	-0.180299	-0.977811	-2.294065
N	0.022266	-1.885237	-3.00987
C	-0.504453	-1.289292	0.624498
H	-0.132012	-1.35964	1.64909
H	-1.599097	-1.311093	0.652595
H	-0.13098	-2.161762	0.085587
N	-0.534846	1.151583	0.74934
H	-0.072187	1.978156	0.38053
H	-0.183503	1.062007	1.699144
Br	3.614945	0.0	0.0
