15

C	-0.5373	0.010558	-1.411614
C	0.0	0.0	0.0
F	-0.086335	1.133629	-2.098045
H	1.101908	0.0	0.0
H	-1.6305	0.087888	-1.372819
C	-0.171407	-1.189395	-2.177605
N	0.072184	-2.155341	-2.794192
C	-0.502844	-1.227325	0.740872
H	-0.120585	-2.144959	0.289785
H	-1.598108	-1.252369	0.761968
H	-0.139361	-1.198107	1.771094
N	-0.533486	1.216909	0.641138
H	-0.087113	2.005483	0.181804
H	-0.169105	1.226031	1.588713
Br	3.612289	0.0	0.0
