13

C	0.0	0.0	0.0
C	-0.521018	0.220702	-1.401119
F	1.381975	0.0	0.0
H	-1.621954	0.291437	-1.250942
H	-0.291045	0.8603	0.612595
H	-0.215869	-0.593281	-2.057961
N	-0.534551	-1.248283	0.451207
H	-0.321722	-1.333605	1.441484
H	-1.561696	-1.043403	0.376037
N	0.00453	1.469529	-1.987713
O	0.489636	1.420728	-3.123012
O	-0.089577	2.505497	-1.325351
F	-2.823457	0.0	0.0
