13

C	0.0	0.0	0.0
C	-0.525943	0.138124	-1.404657
F	1.406894	0.0	0.0
H	-0.239022	-0.71179	-2.019525
H	-0.276588	0.894534	0.564315
H	-1.626867	0.214767	-1.246872
N	-0.526405	-1.218685	0.53176
H	-0.31848	-1.231131	1.525344
H	-1.553042	-1.025594	0.440817
N	-0.021284	1.350025	-2.080029
O	0.039292	2.397836	-1.436751
O	0.274505	1.261161	-3.274516
F	-2.818617	0.0	0.0
