13

C	0.0	0.0	0.0
C	-0.475547	0.005437	-1.456242
F	1.405276	0.0	0.0
H	-0.164223	0.910989	-1.976251
H	-0.332663	0.955656	0.409589
H	-1.573605	-0.087292	-1.337884
N	-0.512623	-1.031382	0.82907
H	-0.374318	-1.915052	0.351717
H	-1.534544	-0.816345	0.767566
N	0.092575	-1.115208	-2.230367
O	0.816661	-0.853773	-3.196905
O	-0.179145	-2.265158	-1.874791
F	-2.784179	0.0	0.0
