12
Coordinates from ORCA-job run
  C   0.78607827906173     -0.66219735123099      0.22013859713731
  C   -0.46439339638193      0.11211858959663     -0.20985403630334
  H   0.49863020075230     -1.67611315408801      0.50194882843774
  H   -0.94273210440675     -0.37607127746146     -1.06526895406797
  H   1.23415525770426     -0.18291390015502      1.09477957129374
  C   1.75180430744026     -0.70145961239161     -0.87470557330235
  N   2.51315278694734     -0.73659904071691     -1.76688585470757
  C   -0.17015444782735      1.50209724834218     -0.53700515169266
  N   0.12030319845422      2.60633042403243     -0.81116168994896
  N   -1.51405237663194      0.06249984256757      0.89733235760150
  O   -1.52001218178863     -0.94835040938172      1.58893283720347
  O   -2.29377952332352      1.00165864088691      0.96174906834909
