15

C	0.0	0.0	0.0
C	-0.492042	-0.160455	-1.435238
Cl	1.805854	0.0	0.0
H	-0.285672	0.813025	-1.886649
H	-1.576785	-0.272419	-1.307651
N	-0.602502	1.103157	0.589432
H	-1.645097	0.86294	0.439144
H	-0.393017	1.103072	1.581477
N	-0.31542	-1.306018	0.81539
O	-0.531827	-2.353187	0.214928
O	-0.305244	-1.192856	2.037169
N	0.185713	-1.191062	-2.225543
H	-0.227975	-2.082726	-1.986644
H	-0.023498	-1.008207	-3.200151
F	-2.846471	0.0	0.0
