15

C	0.0	0.0	0.0
C	-0.264345	-0.041324	-1.563572
Cl	1.774557	0.0	0.0
H	0.483038	0.643786	-1.9759
H	0.013603	-1.044305	-1.892646
N	-0.608514	1.038875	0.726884
H	-1.634896	0.790084	0.6202
H	-0.437582	1.900247	0.216996
N	-0.415989	-1.321861	0.668019
O	-0.409722	-2.330985	-0.030783
O	-0.663653	-1.294213	1.864221
N	-1.549113	0.332568	-2.097849
H	-1.62766	1.342188	-2.040778
H	-2.275735	-8.5e-05	-1.431701
F	-2.926417	0.0	0.0
