15

C	0.0	0.0	0.0
C	-0.269474	-0.444047	-1.484086
Cl	1.825721	0.0	0.0
H	-0.016649	-1.505216	-1.525343
H	0.492148	0.087845	-2.057434
N	-0.622616	1.185417	0.34499
H	-1.654604	0.924652	0.232483
H	-0.447824	1.390472	1.322571
N	-0.316146	-1.147063	1.020535
O	-0.35259	-2.306017	0.627176
O	-0.47543	-0.793101	2.184784
N	-1.544289	-0.198592	-2.10826
H	-1.612599	0.801025	-2.263983
H	-2.281083	-0.374121	-1.402186
F	-2.935659	0.0	0.0
