15

C	0.0	0.0	0.0
C	-0.253244	-0.065524	-1.56103
Cl	1.77097	0.0	0.0
H	0.446755	0.672585	-1.967322
H	0.102848	-1.045722	-1.884165
N	-0.622258	1.041309	0.712127
H	-0.460635	1.896534	0.191346
H	-1.648221	0.782448	0.600571
N	-0.410405	-1.31593	0.682617
O	-0.504341	-2.314572	-0.023724
O	-0.547788	-1.2931	1.896454
N	-1.557602	0.20465	-2.105313
H	-2.266844	-0.153579	-1.436888
H	-1.717045	1.206615	-2.064004
F	-2.946168	0.0	0.0
