15

C	0.0	0.0	0.0
C	-0.476438	0.055921	-1.456956
Cl	1.765807	0.0	0.0
H	-0.400241	1.118688	-1.723654
H	-1.54487	-0.174749	-1.362141
N	-0.585906	0.970574	0.843681
H	-1.62136	0.740835	0.685455
H	-0.402534	1.877341	0.425987
N	-0.385827	-1.374639	0.59898
O	-0.70376	-2.266419	-0.177822
O	-0.311763	-1.491792	1.814818
N	0.26083	-0.791942	-2.386573
H	-0.388949	-1.332245	-2.937519
H	0.819826	-0.227563	-3.007524
F	-2.813527	0.0	0.0
