15

C	0.0	0.0	0.0
C	-0.412666	-0.304402	-1.497045
Cl	1.779709	0.0	0.0
H	-0.672175	-1.360561	-1.541196
H	0.495068	-0.166869	-2.085409
N	-0.591956	1.156407	0.490663
H	-0.359955	1.269219	1.470002
H	-1.622445	0.922108	0.393664
N	-0.315056	-1.24633	0.9181
O	-0.250442	-2.36866	0.433638
O	-0.547543	-1.001873	2.097772
N	-1.46942	0.475795	-2.090177
H	-2.285434	0.315861	-1.475281
H	-1.225966	1.454369	-1.989164
F	-2.880811	0.0	0.0
