15

C	0.0	0.0	0.0
C	-0.448475	-0.076276	-1.448427
Cl	1.871225	0.0	0.0
H	-0.031122	-0.98414	-1.89118
H	-1.537926	-0.159775	-1.34837
N	-0.591413	0.995923	0.722552
H	-0.401745	0.858448	1.708817
H	-1.641521	0.794007	0.511661
N	-0.23433	-1.426837	0.656057
O	-0.198324	-2.425946	-0.052724
O	-0.408504	-1.435078	1.869856
N	-0.096517	1.150458	-2.159831
H	0.867329	1.100039	-2.469155
H	-0.686436	1.219032	-2.979211
F	-2.815005	0.0	0.0
