15

C	0.0	0.0	0.0
C	-0.486064	-0.036702	-1.439349
Cl	1.824508	0.0	0.0
H	-1.52556	-0.363754	-1.351989
H	0.116137	-0.746641	-2.004761
N	-0.617297	0.988942	0.735607
H	-0.387468	0.878871	1.716984
H	-1.669565	0.730169	0.555766
N	-0.260031	-1.433129	0.610902
O	-0.244796	-2.401469	-0.139713
O	-0.42019	-1.484597	1.825342
N	-0.343302	1.303523	-2.023271
H	-0.886933	1.923223	-1.429789
H	-0.818583	1.276255	-2.91959
F	-2.832925	0.0	0.0
