15

C	0.0	0.0	0.0
C	-0.473248	-0.076882	-1.442655
Cl	1.846928	0.0	0.0
H	-1.509471	-0.412753	-1.355789
H	0.138984	-0.794159	-1.986963
N	-0.621927	1.002517	0.704079
H	-1.678228	0.732091	0.524428
H	-0.394531	0.929908	1.688538
N	-0.244732	-1.416839	0.648456
O	-0.40526	-1.438103	1.864012
O	-0.225307	-2.404325	-0.07757
N	-0.337321	1.25211	-2.049502
H	-0.730335	1.194712	-2.982234
H	-0.939823	1.86363	-1.510253
F	-2.828279	0.0	0.0
