16
Coordinates from ORCA-job run
  C   -0.56417368362145      0.20589814663659     -0.12657966883153
  C   0.83473282342739     -0.42701230895696     -0.15596839096453
  F   -0.47017620278630      1.39783289851953     -0.84755884167027
  H   0.79526700323697     -1.35464293900926      0.42702040836333
  C   -0.99923922643823      0.57633295594996      1.27803630499770
  H   -0.27222281021626      1.23568016818355      1.74881557146808
  H   -1.10590599529789     -0.32353409820221      1.88883523948605
  H   -1.96782606166393      1.07892740964007      1.22452752319303
  N   -1.46712343628330     -0.63535865804307     -0.86602380507744
  H   -1.56005355819887     -1.53938052152328     -0.41863845746506
  H   -2.38308591642844     -0.20282332494403     -0.90154543490608
  N   1.78994422259003      0.46812439794933      0.48060517237404
  H   1.86266076064077      1.31083964108161     -0.07841206486203
  H   2.70533254352259      0.03550950292223      0.50435844955962
  C   1.19869857931154     -0.78150717250233     -1.54367498569549
  N   1.60217095820539     -1.04388609770174     -2.61479701996944
