16
Coordinates from ORCA-job run
  C   -0.63994753271527      0.16724175081505     -0.19653819032663
  C   0.77791689613454     -0.23997372617591     -0.63301689625163
  F   -1.13276644853096      0.97052182734122     -1.24578346200913
  H   0.66427049844364     -0.75482748057878     -1.60239029037413
  C   -0.66932618321637      0.98992044260705      1.06784860091016
  H   -0.24608592167686      0.42470339712854      1.89593205911147
  H   -0.09418335377746      1.90514038864900      0.92684660930118
  H   -1.70193389142975      1.26697515972125      1.29406569073696
  N   -1.40841033873508     -1.02589019772961     -0.06639126439110
  H   -1.57401816307670     -1.43442917157673     -0.97951505957121
  H   -2.30313098419112     -0.83276555126287      0.36585704604446
  N   1.38164169677339     -1.04844376597976      0.41624998942397
  H   0.77454584771944     -1.84253536144356      0.58217499324149
  H   2.29341718911199     -1.38011006511717      0.12735807212889
  C   1.60020230615215      0.95023637516148     -0.87871713258270
  N   2.27880838301442      1.88723597844077     -1.07398076539204
