16
Coordinates from ORCA-job run
  C   -0.59747368577353      0.26086295102685     -0.07132409948620
  C   0.79386149263888     -0.41398075731410     -0.12496210407322
  F   -0.43459179745646      1.43480547578852     -0.81986848967268
  H   0.75091116878928     -1.29712381245624      0.52148450063872
  C   -0.97367368647914      0.65058991824311      1.33965637898021
  H   -1.10277482039813     -0.23588482705706      1.96611179972906
  H   -1.91318240907094      1.20254000151231      1.30391768609857
  H   -0.19179744780044      1.27102691916312      1.77203457881028
  N   -1.65060707583226     -0.47857385607365     -0.68617627215641
  H   -1.38356727872008     -0.87269043473602     -1.57939872338353
  H   -2.01985570665230     -1.19522398102592     -0.07881263745031
  N   1.81473134311731      0.48488221612465      0.38618148267797
  H   1.87923398096625      1.28972534053179     -0.22559629019715
  H   2.71690406763262      0.02542343621618      0.40231545164125
  C   1.04641980330701     -0.88586957799816     -1.50359532744163
  N   1.26446205173194     -1.24150901194538     -2.60196793471495
