16
Coordinates from ORCA-job run
  C   -0.67214238901036      0.14095707926777     -0.06353054869567
  C   0.75077222859528      0.02510479030979     -0.64368619029597
  F   -1.49590062516208      0.37177825924075     -1.19200462190564
  H   0.82882747429909      0.79627147917585     -1.41509303315451
  C   -0.85493833785685      1.33052400566058      0.85120893834615
  H   -0.52197552510910      2.24405400946365      0.35518901001467
  H   -0.30001333113613      1.20043694095147      1.77943157861680
  H   -1.91788597862335      1.44017262731595      1.07744009266401
  N   -1.01091723411331     -1.07720942981137      0.57490082416681
  H   -1.06157183400046     -1.80962579717006     -0.12387915174506
  H   -1.90552524063771     -1.00235664456542      1.04261134838909
  N   0.93174776251003     -1.27945627201501     -1.27074650285745
  H   1.64162079291598     -1.22835295364838     -1.98968374022245
  H   1.23881322069889     -1.95121461699362     -0.57746319655805
  C   1.76059211917106      0.30784452475104      0.39200929469700
  N   2.59049689745901      0.48907199806701      1.20329589854028
