16
Coordinates from ORCA-job run
  C   -0.68715976838246      0.15455185002776     -0.17406413807479
  C   0.67497404597270     -0.32780550159055     -0.71211668162399
  F   -1.20626353460746      0.93438141398202     -1.24251942937571
  H   0.47798834475255     -0.67832120833065     -1.73142882889669
  C   -0.60708034490114      1.08429887577773      1.01779431434965
  H   -0.07811762552924      2.00038580951914      0.75693490643867
  H   -0.10720968039206      0.59753270205760      1.85685584271401
  H   -1.61899307167326      1.34811287458184      1.33332407798612
  N   -1.50237289451319     -0.96175391619041      0.11552560139692
  H   -2.45909052046951     -0.67354142549945      0.27518124568634
  H   -1.46631852179035     -1.66588427451948     -0.60952934447979
  N   1.20337398033328     -1.44524214462961      0.05378991529970
  H   1.25996495500537     -1.20564523535847      1.03602877914395
  H   2.13760542033655     -1.67118172931888     -0.26645081986505
  C   1.59699121709166      0.82045963223207     -0.82515431273954
  N   2.38270799876655      1.69165227725937     -0.88417112795979
