15

C	-0.47988	-0.068517	-1.434294
C	0.0	0.0	0.0
Br	0.152818	-1.663839	-2.295464
H	1.092091	0.0	0.0
H	-0.121585	0.778117	-2.014218
N	-1.992952	-0.015232	-1.534123
O	-2.487968	-0.089643	-2.651566
O	-2.620081	0.14605	-0.488134
N	-0.437586	-1.063916	0.824117
H	0.234047	-1.214407	1.563082
H	-1.353876	-0.890129	1.210188
N	-0.366853	1.385205	0.537957
O	-0.602805	1.478053	1.736226
O	-0.359922	2.323328	-0.256429
Br	3.390926	0.0	0.0
