15

C	-0.534331	0.000575	-1.424704
C	0.0	0.0	0.0
Br	0.272322	1.440022	-2.422871
H	1.091216	0.0	0.0
H	-1.614989	0.149293	-1.469609
N	-0.269221	-1.343673	-2.097399
O	-0.873651	-2.282716	-1.585304
O	0.400551	-1.393487	-3.120575
N	-0.499406	-1.049025	0.805969
H	-1.510429	-1.054962	0.870074
H	-0.079646	-1.026896	1.727181
N	-0.396143	1.368598	0.573682
O	0.475337	2.003776	1.159188
O	-1.583215	1.697829	0.490886
Br	2.75274	0.0	0.0
