15

C	-0.607812	-0.016846	-1.389641
C	0.0	0.0	0.0
Br	0.282215	1.190589	-2.600168
H	1.093989	0.0	0.0
H	-1.663438	0.236974	-1.36967
N	-0.529734	-1.392944	-1.991731
O	-1.428851	-1.682989	-2.777943
O	0.420358	-2.106444	-1.689795
N	-0.553926	-1.108367	0.779436
H	-0.367068	-0.883825	1.752459
H	0.042134	-1.904261	0.571442
N	-0.4487	1.251763	0.700108
O	0.00616	1.414658	1.830368
O	-1.24744	2.007248	0.143634
Br	3.45572	0.0	0.0
