13

C	-0.008166	0.00572	-0.006482
C	-0.53322	-0.298014	-1.408756
F	1.398607	-0.031081	-0.046194
H	-1.630993	-0.370919	-1.233721
H	-0.307313	1.037277	0.193004
H	-0.267445	0.483624	-2.11901
N	-0.504269	-0.805389	1.051882
H	-0.35693	-1.773067	0.785538
H	-1.528042	-0.626695	0.952028
N	0.01492	-1.546475	-1.973219
O	-0.065274	-2.579801	-1.304386
O	0.517889	-1.50522	-3.09981
F	-2.814476	-0.046861	0.005128
