13

C	0.072448	0.001061	0.002828
C	-0.547528	-0.19415	-1.358224
F	1.460955	-0.282285	-0.082837
H	-0.325415	-1.19167	-1.730595
H	0.041336	1.061157	0.2778
H	-1.647394	-0.071284	-1.215342
N	-0.563804	-0.890465	0.903516
H	-0.437178	-0.555097	1.850332
H	-1.588201	-0.849916	0.658984
N	-0.014876	0.761023	-2.34946
O	0.297259	0.32979	-3.462358
O	0.05262	1.950644	-2.034513
F	-2.928113	-0.431406	-0.128636
