16

C	0.0	0.0	0.0
C	-0.490996	-0.298473	-1.432256
F	1.368851	0.0	0.0
H	0.36484	0.001508	-2.050204
H	-0.380155	-0.658981	0.779955
N	-0.356587	1.400456	0.424885
O	-0.966869	1.544453	1.478443
O	0.04577	2.301801	-0.309366
N	-1.656037	0.39634	-1.920987
H	-2.488239	0.196291	-1.356364
H	-1.503371	1.396863	-1.90139
C	-0.716197	-1.801309	-1.547317
H	0.13788	-2.370955	-1.166971
H	-0.881316	-2.06007	-2.593668
H	-1.612857	-2.072297	-0.983248
Cl	-4.218719	0.0	0.0
