16

C	0.0	0.0	0.0
C	-0.577411	0.098344	-1.396475
F	1.364098	0.0	0.0
H	-0.370073	-0.888779	-1.845233
H	-0.364359	-0.879149	0.532839
N	-0.398346	1.178366	0.858766
O	-1.347728	0.998088	1.613889
O	0.252054	2.209276	0.737538
N	0.060134	1.199679	-2.106334
H	1.053398	1.032272	-2.212745
H	-0.357186	1.278489	-3.025157
C	-2.08324	0.308044	-1.350375
H	-2.32581	1.287572	-0.94051
H	-2.50036	0.270393	-2.358949
H	-2.628339	-0.420138	-0.750599
Cl	-5.377722	0.0	0.0
