15

C	-0.538634	0.073677	-1.432815
C	0.0	0.0	0.0
F	-1.918767	0.389205	-1.332799
H	1.091654	0.0	0.0
C	0.061401	1.149224	-2.244088
N	0.464607	1.937984	-3.014319
N	-0.314218	-1.151486	-2.085493
H	-0.751773	-1.928178	-1.607595
H	-0.583289	-1.116208	-3.058463
C	-0.507053	-1.198931	0.649952
N	-0.903972	-2.213874	1.089022
N	-0.412079	1.208509	0.788048
O	-0.711482	1.042469	1.966037
O	-0.357725	2.282767	0.201679
Br	3.276516	0.0	0.0
