15

C	-0.538277	0.017573	-1.434585
C	0.0	0.0	0.0
F	-1.917948	0.337901	-1.348101
H	1.091687	0.0	0.0
C	0.063109	1.060042	-2.287006
N	0.45787	1.820761	-3.089087
N	-0.314556	-1.232698	-2.038629
H	-0.756538	-1.988665	-1.532223
H	-0.581257	-1.234498	-3.012867
C	-0.507808	-1.172228	0.696225
N	-0.910462	-2.168424	1.171287
N	-0.411691	1.238556	0.740269
O	-0.70866	1.118474	1.924525
O	-0.360562	2.288802	0.111796
Br	3.277313	0.0	0.0
