15

C	-0.34316	0.015406	-1.501431
C	0.0	0.0	0.0
F	-0.02162	-1.276138	-1.953138
H	1.092471	0.0	0.0
C	-1.784405	0.171409	-1.783038
N	-2.924873	0.275906	-2.037388
N	0.406193	1.031777	-2.107641
H	1.385451	0.974536	-1.818834
H	0.313611	1.023982	-3.115633
C	-0.566097	-1.148229	0.684913
N	-1.004661	-2.086123	1.23965
N	-0.493425	1.27151	0.633428
O	0.272249	2.227899	0.628713
O	-1.642113	1.258625	1.07879
Br	3.337916	0.0	0.0
