15

C	-0.490843	0.22281	-1.439199
C	0.0	0.0	0.0
F	0.21481	1.300063	-1.9655
H	1.109371	0.0	0.0
C	-0.121587	-0.959468	-2.24955
N	0.126325	-1.871049	-2.947221
N	-1.897741	0.397367	-1.519105
H	-2.191563	0.4412	-2.486902
H	-2.145301	1.257676	-1.045939
C	-0.512912	-1.248433	0.540143
N	-0.931488	-2.263485	0.957968
N	-0.392964	1.110945	0.935285
O	-0.145754	0.918969	2.118098
O	-0.884272	2.136147	0.463033
Br	3.278406	0.0	0.0
