15

C	-0.498478	0.107738	-1.450982
C	0.0	0.0	0.0
F	0.252346	1.08115	-2.098801
H	1.103577	0.0	0.0
C	-0.215347	-1.169308	-2.142388
N	-0.041019	-2.166649	-2.736904
N	-1.896519	0.35603	-1.523978
H	-2.207124	0.314914	-2.487177
H	-2.081323	1.27796	-1.147881
C	-0.516685	-1.20084	0.637364
N	-0.932485	-2.181954	1.131367
N	-0.391091	1.186383	0.837193
O	-0.29247	1.048057	2.049597
O	-0.721387	2.222126	0.260915
Br	3.281254	0.0	0.0
