15

C	-0.528114	0.30733	-1.414151
C	0.0	0.0	0.0
F	0.077906	1.473623	-1.83778
H	1.109573	0.0	0.0
C	-0.096503	-0.760355	-2.345379
N	0.121204	-1.604141	-3.133586
N	-1.938501	0.46849	-1.424841
H	-2.396766	0.186141	-0.571787
H	-2.391147	0.102083	-2.246971
C	-0.527345	-1.273623	0.461842
N	-0.957895	-2.313159	0.80157
N	-0.483305	1.102502	0.906838
O	0.214939	2.102316	0.978156
O	-1.565719	0.92902	1.475963
Br	3.319645	0.0	0.0
