15

C	-0.495443	0.162891	-1.447589
C	0.0	0.0	0.0
F	0.267864	1.150258	-2.059385
H	1.098874	0.0	0.0
C	-0.222787	-1.093579	-2.180058
N	-0.054263	-2.075304	-2.801003
N	-1.889895	0.428957	-1.515817
H	-2.198582	0.424944	-2.480068
H	-2.064237	1.33936	-1.107432
C	-0.534319	-1.212565	0.597179
N	-0.986153	-2.196604	1.052951
N	-0.373117	1.165016	0.878296
O	-0.244207	0.991534	2.082009
O	-0.710449	2.219	0.338434
Br	3.283867	0.0	0.0
