15

C	-0.349595	-0.103136	-1.51097
C	0.0	0.0	0.0
F	-0.221427	-1.452232	-1.794973
H	1.109826	0.0	0.0
C	-1.759971	0.269608	-1.764659
N	-2.88927	0.53613	-1.940858
N	0.525219	0.606724	-2.377868
H	1.485102	0.436941	-2.069405
H	0.343247	1.598828	-2.293906
C	-0.565726	-1.063135	0.8061
N	-1.032173	-1.93934	1.434534
N	-0.385986	1.330588	0.571262
O	-0.523727	1.40152	1.7863
O	-0.480408	2.273845	-0.214113
Br	3.294284	0.0	0.0
