15

C	-0.499434	0.31263	-1.419251
C	0.0	0.0	0.0
F	0.230954	1.391351	-1.904546
H	1.10933	0.0	0.0
C	-0.18413	-0.836929	-2.296427
N	0.003558	-1.718614	-3.048694
N	-1.902226	0.53556	-1.464339
H	-2.209917	0.634452	-2.42377
H	-2.11248	1.381649	-0.949128
C	-0.513807	-1.279116	0.462952
N	-0.929414	-2.31889	0.817904
N	-0.384268	1.053675	1.00197
O	-0.797794	2.136419	0.587906
O	-0.198558	0.765617	2.176609
Br	3.283105	0.0	0.0
