15

C	-0.531635	-0.04469	-1.441878
C	0.0	0.0	0.0
F	0.032969	0.951296	-2.191711
H	1.102135	0.0	0.0
C	-0.130021	-1.331204	-2.0717
N	0.058007	-2.353303	-2.620703
N	-1.94937	0.169804	-1.444207
H	-2.412778	-0.438366	-0.778824
H	-2.328912	0.006328	-2.369027
C	-0.510051	-1.146352	0.736975
N	-0.933649	-2.100791	1.276552
N	-0.474604	1.275293	0.641129
O	0.030462	2.304669	0.217284
O	-1.330943	1.193903	1.520546
Br	3.303446	0.0	0.0
