15
Coordinates from ORCA-job run
  C   0.60030752074475      0.71313025818762     -0.53041525808058
  C   -0.76006836256376      0.50644178061595      0.16269872539773
  Br  0.32113992799499      0.80541615621529     -2.46718079810516
  H   -1.43866121222098      1.28769529174793     -0.19686328343345
  H   0.97404233879583      1.70507709274247     -0.26869148121376
  C   1.63649273554434     -0.34577376146480     -0.20498903677907
  H   1.77287766878447     -0.40736710833499      0.87892562989682
  H   1.33848673624737     -1.32469430632603     -0.58168548389275
  H   2.59470814303226     -0.08760860155174     -0.65749325313481
  C   -0.56303244799184      0.72598599820055      1.60018658744605
  N   -0.37775800480969      0.88550578630108      2.74898746121133
  C   -1.40021242748969     -0.86336558916581     -0.07786081548246
  H   -2.39295285116308     -0.89304836364188      0.37436074518200
  H   -1.50179552555507     -1.04661586052759     -1.14802956287852
  H   -0.80457423934988     -1.66177877299806      0.36604982386662
