15
Coordinates from ORCA-job run
  C   0.81497086677912      0.53355168667281     -0.08470737625379
  C   -0.70639357089434      0.40069150785322      0.07621169344284
  Br  1.22258765675357      2.30135663397482     -0.81940453344156
  H   -1.16799178644175      0.60232708279762     -0.89774130946986
  H   1.28439478184644      0.52485703084996      0.90221320711083
  C   1.42048300794164     -0.53208062159012     -0.98084267552163
  H   1.32581031025495     -1.51819682100773     -0.52042821621458
  H   0.92579447026406     -0.54547222242664     -1.95511418429667
  H   2.48109932685172     -0.33545880851975     -1.13972112429029
  C   -1.20608034684551      1.40604181923378      1.01868763222326
  N   -1.58524030007136      2.19133247653371      1.80492311272792
  C   -1.12012280951567     -0.99761243810352      0.55727324675288
  H   -2.18939726148800     -1.01783561805543      0.77377021743997
  H   -0.58427622387206     -1.26635810566256      1.47094931783477
  H   -0.91463812156281     -1.74714360255017     -0.20706900804410
