15
Coordinates from ORCA-job run
  C   0.82422534031455      0.52585574402425     -0.07024029859539
  C   -0.70206813120038      0.40644237551767      0.04742221821713
  Br  1.26542298165711      2.27968268414480     -0.81915393562499
  H   -1.13136608417494      0.58717962304437     -0.94522672690221
  H   1.26439687431290      0.52906979470342      0.93014811723994
  C   1.44788123065351     -0.55720983919666     -0.93236859075896
  H   0.98157746314866     -0.58105829379856     -1.92038499517560
  H   1.33220777153365     -1.53580529301213     -0.46077359410013
  H   2.51417268567820     -0.37092072380422     -1.06316885052118
  C   -1.22671252121578      1.43543822115046      0.94999350516703
  N   -1.66124068281070      2.21682158197720      1.71109807296713
  C   -1.14011522927223     -0.97744507762776      0.54809510676177
  H   -2.21644933307032     -0.98662168637336      0.72673873538794
  H   -0.91235351196053     -1.74679713821745     -0.18977515113965
  H   -0.63857885359370     -1.22563197253203      1.48659638707719
