19

C	-0.458436	-0.025312	-1.464203
C	0.0	0.0	0.0
Cl	-0.162304	1.580169	-2.222129
H	1.096733	0.0	0.0
C	0.359865	-1.028302	-2.271529
H	1.426531	-0.831454	-2.139977
H	0.14967	-2.046188	-1.929923
H	0.097667	-0.960674	-3.330789
N	-1.909108	-0.237253	-1.529013
H	-2.080218	-1.224766	-1.361915
H	-2.218996	-0.041079	-2.475593
C	-0.427325	-1.287028	0.721657
H	0.021147	-1.279754	1.717878
H	-0.082123	-2.197551	0.225037
H	-1.516164	-1.330088	0.840436
N	-0.475179	1.190639	0.688599
H	-1.412149	1.035699	1.041983
H	0.14459	1.379605	1.465616
Cl	3.543657	0.0	0.0
