19

C	-0.390592	0.024377	-1.474181
C	0.0	0.0	0.0
Cl	-2.286218	0.39426	-1.533972
H	1.097102	0.0	0.0
C	0.269508	1.167851	-2.208208
H	0.005291	2.10721	-1.729378
H	-0.041043	1.186636	-3.257208
H	1.350633	1.016211	-2.135082
N	-0.137829	-1.202488	-2.111046
H	-0.642856	-1.971299	-1.69335
H	-0.338765	-1.15711	-3.100455
C	-0.476772	-1.247568	0.737165
H	-0.182349	-1.165408	1.786165
H	-0.004008	-2.15226	0.346397
H	-1.566961	-1.348956	0.688294
N	-0.397115	1.25525	0.635184
H	0.239815	1.432414	1.402456
H	-1.340437	1.181416	1.00012
Cl	3.513169	0.0	0.0
