19

C	-0.241673	-0.025923	-1.518917
C	0.0	0.0	0.0
Cl	-2.041015	-0.166974	-1.876992
H	1.100888	0.0	0.0
C	0.225087	1.264261	-2.178766
H	0.10738	1.191615	-3.263438
H	-0.338091	2.132225	-1.833427
H	1.285197	1.392314	-1.937591
N	0.404684	-1.202701	-2.050377
H	0.472063	-1.127636	-3.060435
H	1.353104	-1.220285	-1.671156
C	-0.521187	-1.236896	0.710278
H	-0.24345	-2.146812	0.178722
H	-0.098116	-1.25712	1.716019
H	-1.612008	-1.199608	0.792779
N	-0.469539	1.194127	0.685893
H	0.129354	1.97912	0.462624
H	-1.416736	1.412448	0.390692
Cl	3.469459	0.0	0.0
