17

C	0.0	0.0	0.0
C	-0.605764	0.099353	-1.39052
Cl	1.792373	0.0	0.0
H	-1.677156	0.259872	-1.165157
H	-0.287526	-0.971169	0.410548
C	-0.519944	1.084066	0.922661
H	-0.223615	2.076532	0.573211
H	-0.133093	0.948742	1.936266
H	-1.615483	0.993604	0.92026
N	-0.411929	-1.177273	-2.101887
H	-0.773718	-1.052092	-3.043488
H	-1.050999	-1.837882	-1.662714
C	-0.059783	1.23557	-2.234654
H	0.979493	1.045943	-2.51511
H	-0.116396	2.189663	-1.706414
H	-0.655821	1.332227	-3.148661
H	-3.39507	0.0	0.0
