17

C	0.0	0.0	0.0
C	-0.429118	-0.295431	-1.46834
Cl	1.800398	0.0	0.0
H	0.295128	0.242345	-2.095494
H	-0.301645	-0.819862	0.654334
C	-0.529475	1.310212	0.532742
H	-0.128895	1.518546	1.527634
H	-1.620574	1.226886	0.585654
H	-0.253742	2.134649	-0.130837
N	-1.753967	0.142055	-1.857115
H	-1.778116	1.155849	-1.882262
H	-2.490197	-0.105396	-1.157528
C	-0.296006	-1.787697	-1.754125
H	-1.051844	-2.332779	-1.18113
H	0.696101	-2.17013	-1.494573
H	-0.484654	-1.96701	-2.814382
H	-3.722919	0.0	0.0
