16

C	0.0	0.0	0.0
C	-0.258629	-0.151983	-1.53496
F	1.412165	0.0	0.0
H	0.303624	0.661253	-1.963128
H	-0.298652	-0.907035	0.536193
N	-0.476053	1.238534	0.535344
H	-1.466993	0.981979	0.786824
H	0.185196	1.550413	1.235875
N	-1.621123	0.054601	-2.119229
O	-2.184671	-0.914519	-2.61893
O	-2.015355	1.201481	-2.306273
C	0.294125	-1.478303	-2.046416
H	-0.326664	-2.320934	-1.763006
H	1.288726	-1.609618	-1.616095
H	0.413018	-1.477979	-3.122082
F	-2.506128	0.0	0.0
