16

C	0.0	0.0	0.0
C	-0.483669	-0.106518	-1.451969
F	1.399189	0.0	0.0
H	-1.564028	-0.297141	-1.296257
H	-0.321106	-0.910479	0.504061
N	-0.527364	1.108651	0.716581
H	-1.554362	0.896323	0.643796
H	-0.33712	1.96184	0.201743
N	0.140167	-1.320434	-2.052157
O	0.847228	-1.206453	-3.058143
O	-0.077826	-2.395782	-1.492056
C	-0.21512	1.117951	-2.295447
H	-0.47442	0.936742	-3.33875
H	-0.845707	1.930239	-1.929619
H	0.835556	1.415241	-2.249808
F	-2.787483	0.0	0.0
