16

C	0.0	0.0	0.0
C	-0.484598	-0.048516	-1.455296
F	1.399098	0.0	0.0
H	-1.561228	-0.261402	-1.309272
H	-0.318143	-0.931544	0.466717
N	-0.529443	1.07789	0.760522
H	-1.556339	0.864582	0.679297
H	-0.342506	1.949758	0.276112
N	0.158601	-1.223105	-2.109645
O	-0.048769	-2.327044	-1.604093
O	0.872464	-1.050365	-3.102434
C	-0.241266	1.217841	-2.242294
H	0.80082	1.539911	-2.176511
H	-0.896237	1.995145	-1.845544
H	-0.489099	1.075692	-3.294434
F	-2.788578	0.0	0.0
