16

C	0.0	0.0	0.0
C	-0.183045	-0.026557	-1.563733
F	1.416768	0.0	0.0
H	0.320653	-0.932898	-1.904782
H	-0.343993	-0.962621	0.380936
N	-0.582315	1.027234	0.756746
H	-0.439276	1.906796	0.271705
H	-1.605803	0.76879	0.668045
N	0.673929	1.064878	-2.137079
O	1.603505	0.75277	-2.880563
O	0.38012	2.226637	-1.852853
C	-1.548088	0.095412	-2.195697
H	-2.013934	1.038321	-1.937728
H	-1.440599	-0.006948	-3.27979
H	-2.209956	-0.645529	-1.766301
F	-2.898815	0.0	0.0
