16

C	0.0	0.0	0.0
C	-0.368647	-0.464461	-1.456335
F	1.403455	0.0	0.0
H	0.579084	-0.525731	-2.001732
H	-0.321352	-0.803415	0.663173
N	-0.507146	1.210391	0.520658
H	-0.346905	1.944991	-0.157696
H	-1.532644	0.986422	0.51648
N	-1.116438	0.567683	-2.244187
O	-0.624171	1.700678	-2.262021
O	-2.093287	0.237839	-2.905134
C	-1.114391	-1.780381	-1.45921
H	-0.512403	-2.520738	-0.922213
H	-2.051312	-1.578027	-0.931148
H	-1.29451	-2.14334	-2.472638
F	-2.713589	0.0	0.0
