16

C	0.0	0.0	0.0
C	-0.291696	-0.011266	-1.518677
F	1.412525	0.0	0.0
H	-0.004597	-0.992339	-1.904396
H	-0.383149	-0.919251	0.441326
N	-0.509168	1.110741	0.673967
H	-0.005798	1.962193	0.497452
H	-0.802412	0.959524	1.620248
N	0.702846	0.908205	-2.185124
O	0.756075	2.076973	-1.800232
O	1.378381	0.459843	-3.112748
C	-1.683038	0.384271	-1.934096
H	-2.472437	-0.037	-1.221519
H	-1.829821	0.130539	-2.990988
H	-1.80073	1.459228	-1.790936
F	-3.414717	0.0	0.0
