19

C	0.0	0.0	0.0
C	-0.374754	0.003074	-1.518308
F	1.396711	0.0	0.0
H	-0.246935	1.043735	-1.850808
C	-0.457946	1.252402	0.718349
H	-1.552058	1.280868	0.69076
H	-0.123892	1.222744	1.762163
H	-0.043462	2.146658	0.24335
N	-0.462526	-1.224651	0.602175
H	-0.247439	-1.191142	1.595233
H	-1.483632	-1.197764	0.525277
N	-1.719329	-0.415425	-1.868408
H	-2.443904	-0.073271	-1.205363
H	-1.763989	-1.426463	-1.7791
C	0.603481	-0.871939	-2.303403
H	0.616996	-1.87567	-1.869412
H	1.621521	-0.482196	-2.29534
H	0.245655	-0.934744	-3.333764
H	-3.592337	0.0	0.0
