19

C	0.0	0.0	0.0
C	-0.365153	0.112561	-1.495304
F	1.43473	0.0	0.0
H	-0.069208	-0.856245	-1.928818
C	-0.476761	1.151061	0.847455
H	-1.566567	1.120325	0.910025
H	-0.15467	2.100699	0.417545
H	-0.049217	1.071426	1.850809
N	-0.469827	-1.228277	0.514855
H	-0.051834	-2.011662	0.033005
H	-0.331819	-1.309596	1.511409
N	0.404289	1.139491	-2.206491
H	1.346283	1.160741	-1.836955
H	-0.023352	2.041182	-2.02993
C	-1.850188	0.338214	-1.722412
H	-2.518709	-0.255066	-1.087185
H	-2.090883	0.151638	-2.77442
H	-2.119338	1.378895	-1.503026
H	-4.570684	0.0	0.0
