15

C	-0.267614	0.136411	-1.496203
C	0.0	0.0	0.0
Br	-2.174788	0.68465	-1.880104
H	1.098261	0.0	0.0
H	-0.375153	-0.955931	0.369727
N	0.599117	1.136885	-2.037907
H	1.538295	0.998394	-1.654576
H	0.629346	1.098134	-3.048909
C	-0.173876	-1.171142	-2.165992
N	-0.063454	-2.207494	-2.711758
C	-0.485671	1.174852	0.835157
H	-1.569825	1.166763	0.968129
H	-0.198113	2.115399	0.363022
H	-0.009869	1.131549	1.817984
Cl	3.415654	0.0	0.0
