15

C	-0.541613	0.003508	-1.425318
C	0.0	0.0	0.0
Br	0.06972	-1.577938	-2.433226
H	1.092944	0.0	0.0
H	-0.312178	0.960639	0.435192
N	-1.993356	-0.037029	-1.426352
H	-2.347923	0.086195	-2.366607
H	-2.327208	0.730721	-0.853227
C	-0.028393	1.164732	-2.171675
N	0.277351	2.147733	-2.74141
C	-0.514171	-1.154075	0.852235
H	-0.082894	-1.065464	1.849727
H	-0.18544	-2.107585	0.43831
H	-1.60186	-1.169181	0.930979
Cl	3.487022	0.0	0.0
