15

C	-0.257997	0.114522	-1.505748
C	0.0	0.0	0.0
Br	-2.148765	0.648626	-1.887982
H	1.097528	0.0	0.0
H	-0.379353	-0.94845	0.388293
N	0.601393	1.054046	-2.197453
H	0.454372	1.973495	-1.791489
H	1.562365	0.785786	-1.960496
C	-0.112011	-1.20327	-2.136863
N	0.001264	-2.267073	-2.621858
C	-0.47993	1.175884	0.836331
H	-0.027416	1.109906	1.828046
H	-1.566287	1.195568	0.943368
H	-0.159843	2.127187	0.404496
Cl	3.418631	0.0	0.0
