15

C	-0.424246	0.006187	-1.452006
C	0.0	0.0	0.0
Br	-2.566765	-0.384098	-1.452721
H	1.095411	0.0	0.0
H	-0.342077	-0.934643	0.447747
N	-0.144501	1.176052	-2.127153
H	-0.41318	2.014712	-1.638712
H	-0.389671	1.184861	-3.105096
C	0.030013	-1.158737	-2.204444
N	0.397021	-2.095739	-2.812336
C	-0.497391	1.200663	0.793419
H	-1.580635	1.327017	0.715866
H	0.005214	2.119155	0.478316
H	-0.238943	1.060181	1.844627
Cl	3.424343	0.0	0.0
