15

C	-0.417214	0.055316	-1.459768
C	0.0	0.0	0.0
Br	-2.43051	0.911656	-1.44916
H	1.095403	0.0	0.0
H	-0.307869	0.949251	0.447365
N	0.450813	0.786341	-2.219871
H	0.233982	0.970563	-3.183359
H	1.067214	1.427959	-1.747113
C	-0.742939	-1.227534	-2.080871
N	-0.962556	-2.274212	-2.571086
C	-0.566701	-1.1668	0.78763
H	-1.660179	-1.168712	0.781752
H	-0.224383	-1.096421	1.822347
H	-0.209687	-2.118086	0.38893
Cl	3.440115	0.0	0.0
