15

C	-0.302875	0.061794	-1.490616
C	0.0	0.0	0.0
Br	-2.220003	0.648313	-1.785367
H	1.098112	0.0	0.0
H	-0.314802	0.958682	0.421366
N	0.56161	1.018705	-2.099708
H	0.59731	0.913991	-3.105505
H	1.498673	0.922082	-1.701725
C	-0.271688	-1.267237	-2.122307
N	-0.214131	-2.325459	-2.633132
C	-0.595766	-1.174018	0.749856
H	-1.68711	-1.19022	0.676417
H	-0.32284	-1.105256	1.805117
H	-0.205603	-2.120978	0.371544
Cl	3.419153	0.0	0.0
