15

C	-0.413376	-0.019206	-1.471099
C	0.0	0.0	0.0
Br	0.076595	1.731033	-2.266225
H	1.095152	0.0	0.0
H	-0.354964	0.919201	0.473737
N	0.226491	-1.043898	-2.268361
H	-0.156216	-1.946559	-2.004773
H	1.21964	-1.034368	-2.031838
C	-1.872071	-0.121055	-1.618726
N	-3.040448	-0.237217	-1.683545
C	-0.504907	-1.224408	0.757962
H	-0.113032	-2.148319	0.325945
H	-0.138118	-1.179168	1.785686
H	-1.597608	-1.282273	0.784047
Cl	3.484668	0.0	0.0
