15

C	-0.295972	-0.075714	-1.499718
C	0.0	0.0	0.0
Br	-0.248084	1.880705	-2.231511
H	1.095406	0.0	0.0
H	-0.386616	0.925017	0.424902
N	0.641612	-0.908709	-2.113929
H	1.58852	-0.714237	-1.781828
H	0.584913	-0.931292	-3.122761
C	-1.665579	-0.473684	-1.834039
N	-2.757784	-0.826173	-2.090473
C	-0.511406	-1.2298	0.743067
H	-0.128518	-2.140541	0.279701
H	-0.147101	-1.200697	1.772686
H	-1.604404	-1.277919	0.763142
Cl	3.449735	0.0	0.0
