16

C	-0.626134	-0.077057	-1.537182
C	0.073555	-0.115036	-0.144972
Br	0.228367	1.331559	-2.598966
H	1.152233	-0.236024	-0.28172
C	-0.419151	-1.332227	-2.255727
N	-0.288522	-2.355545	-2.820276
C	-2.110199	0.236589	-1.409494
H	-2.20681	1.182155	-0.875608
H	-2.574196	0.316944	-2.393366
H	-2.603735	-0.560138	-0.844685
C	-0.439744	-1.298005	0.56554
N	-0.912832	-2.209035	1.1387
N	-0.157722	1.120142	0.575058
H	0.765121	1.412164	0.918867
H	-0.759081	0.963072	1.373323
Cl	2.938197	1.043029	1.191001
