14

C	-0.437222	-0.017745	-1.449057
C	0.0	0.0	0.0
Cl	-2.268278	0.090431	-1.616894
H	1.095295	0.0	0.0
H	-0.335346	0.948985	0.4314
C	0.093697	1.13345	-2.186757
N	0.465226	2.073392	-2.785993
C	-0.049306	-1.257384	-2.129967
N	0.254647	-2.245292	-2.688226
C	-0.487119	-1.194611	0.80047
H	-1.577006	-1.258789	0.866585
H	-0.10204	-2.124386	0.373285
H	-0.077229	-1.117688	1.810549
H	2.805492	0.0	0.0
