14

C	-0.46844	0.141929	-1.447347
C	0.0	0.0	0.0
Cl	0.176717	1.658205	-2.191097
H	1.098768	0.0	0.0
H	-0.324412	-0.994287	0.332219
C	-0.013882	-0.993288	-2.258954
N	0.289419	-1.938733	-2.886548
C	-1.93211	0.212871	-1.552306
N	-3.104979	0.263808	-1.618284
C	-0.530904	1.083207	0.921335
H	-0.190369	2.067081	0.595002
H	-1.623258	1.093117	1.00193
H	-0.111434	0.914728	1.915457
H	2.844376	0.0	0.0
