14

C	-0.434196	0.007739	-1.450048
C	0.0	0.0	0.0
Cl	-2.264551	-0.08884	-1.622995
H	1.095408	0.0	0.0
H	-0.336821	-0.945267	0.438086
C	-0.034431	1.2383	-2.140268
N	0.24239	2.237767	-2.691753
C	0.091682	-1.153325	-2.174972
N	0.462812	-2.101793	-2.760289
C	-0.485968	1.201224	0.791374
H	-0.101908	2.127541	0.35595
H	-1.57566	1.265902	0.858755
H	-0.074263	1.132362	1.801202
H	2.806574	0.0	0.0
