14

C	-0.491359	-0.092368	-1.441383
C	0.0	0.0	0.0
Cl	0.142783	1.299717	-2.396405
H	1.097256	0.0	0.0
H	-0.347451	0.962579	0.391081
C	-0.063862	-1.336316	-2.093541
N	0.192725	-2.356664	-2.618319
C	-1.956378	-0.029548	-1.5121
N	-3.131376	0.026159	-1.512688
C	-0.49597	-1.159674	0.852914
H	-0.141447	-2.112912	0.452126
H	-0.059421	-1.055078	1.849162
H	-1.585755	-1.198877	0.951142
H	2.843472	0.0	0.0
