14

C	-0.5796	-0.116479	-1.402488
C	0.0	0.0	0.0
F	0.114546	-1.007792	-2.197599
H	1.097572	0.0	0.0
H	-1.623776	-0.457212	-1.380268
C	-0.549093	1.194878	-2.073896
N	-0.566696	2.186914	-2.700723
N	-0.439533	-1.190128	0.777938
O	-0.696835	-1.048536	1.976805
O	-0.499736	-2.271136	0.190217
N	-0.398477	1.230807	0.628971
H	-1.12444	1.071232	1.315168
H	0.414696	1.583313	1.116727
F	2.504211	0.0	0.0
