14

C	-0.540119	0.093548	-1.410814
C	0.0	0.0	0.0
F	-0.212241	-1.034025	-2.146143
H	1.089871	0.0	0.0
H	-1.634309	0.161245	-1.40936
C	0.015793	1.280944	-2.080159
N	0.429407	2.2155	-2.657682
N	-0.603326	-1.245354	0.592044
O	-1.822925	-1.399112	0.44394
O	0.115669	-2.009304	1.223533
N	-0.4146	1.1086	0.815307
H	-1.22645	1.60906	0.476374
H	0.377431	1.727007	0.924334
F	2.553332	0.0	0.0
