14

C	-0.523983	0.095616	-1.417033
C	0.0	0.0	0.0
F	-0.189586	-1.031285	-2.148112
H	1.089884	0.0	0.0
H	-1.61714	0.169179	-1.431932
C	0.043656	1.283647	-2.075394
N	0.43683	2.237101	-2.634496
N	-0.60687	-1.241409	0.594958
O	-1.807202	-1.447032	0.368603
O	0.091927	-1.947364	1.312014
N	-0.413276	1.107575	0.816378
H	0.379299	1.724748	0.928837
H	-1.222911	1.610091	0.47686
F	2.551574	0.0	0.0
