14

C	-0.502742	-0.033286	-1.414995
C	0.0	0.0	0.0
F	-1.906346	-0.074287	-1.46098
H	1.091398	0.0	0.0
H	-0.196482	0.917766	-1.854395
C	0.002318	-1.113795	-2.274597
N	0.355657	-1.8906	-3.079584
N	-0.442689	-1.228254	0.733433
O	-0.797141	-1.1076	1.908949
O	-0.384466	-2.304054	0.140526
N	-0.41649	1.210768	0.641748
H	0.282567	1.439833	1.33617
H	-1.305641	1.095499	1.11037
F	2.512548	0.0	0.0
