14

C	-0.394633	-0.022526	-1.453075
C	0.0	0.0	0.0
F	-1.774102	0.222271	-1.617707
H	1.090695	0.0	0.0
H	0.130957	0.826658	-1.899362
C	-0.066881	-1.206839	-2.258638
N	0.142472	-2.042769	-3.055749
N	-0.523007	-1.202101	0.725292
O	-0.915006	-1.085352	1.882562
O	-0.469806	-2.275849	0.118472
N	-0.39943	1.207049	0.646116
H	0.403509	1.810497	0.743062
H	-1.177703	1.674156	0.205057
F	2.521835	0.0	0.0
