14

C	-0.645872	0.08236	-1.376021
C	0.0	0.0	0.0
F	-0.44117	-1.03569	-2.162556
H	1.090023	0.0	0.0
H	-1.73275	0.20536	-1.264088
C	-0.128921	1.2635	-2.08859
N	0.254519	2.182289	-2.709319
N	-0.488337	-1.277888	0.628805
O	0.001071	-2.329121	0.231156
O	-1.366588	-1.208641	1.498752
N	-0.433077	1.16267	0.722181
H	-1.238977	0.950966	1.297432
H	0.338062	1.452863	1.310222
F	2.536335	0.0	0.0
