14

C	-0.499582	-0.011766	-1.416463
C	0.0	0.0	0.0
F	-1.903133	-0.050202	-1.465634
H	1.091411	0.0	0.0
H	-0.191136	0.945509	-1.840823
C	0.006569	-1.080287	-2.29055
N	0.364375	-1.846767	-3.103709
N	-0.447406	-1.238218	0.713117
O	-0.81414	-1.132506	1.887158
O	-0.38573	-2.30652	0.105262
N	-0.416908	1.201147	0.658661
H	-1.312452	1.083533	1.114858
H	0.275726	1.414036	1.364502
F	2.512094	0.0	0.0
