17
Coordinates from ORCA-job run
  C   0.82997763021026     -0.07384096252752     -0.23608324002060
  C   -0.64571468687950      0.11455950082285      0.17444302963129
  H   1.07234809250868     -1.13861340318489     -0.11143293717886
  H   -0.85180121748452      1.19161671622754      0.14803466775779
  C   1.78310722606271      0.76160718608959      0.62289215091169
  H   2.82344229944282      0.55751152724490      0.36233727111659
  H   1.61430666052729      0.52458948849340      1.67187617344424
  H   1.59409789750975      1.82654139758518      0.46726143035261
  C   1.01353689891080      0.24851511307166     -1.65334104682875
  N   1.15934939243281      0.53807129452655     -2.78216169870501
  N   -0.76979909650540     -0.31007446515890      1.56990506063201
  H   -1.63230196599200      0.05066485372732      1.96027357692243
  H   -0.83112196781527     -1.32294184421105      1.60594067868339
  C   -1.60399585667376     -0.60048500573111     -0.77546682759196
  H   -2.63406236041015     -0.47381496253736     -0.43228395460766
  H   -1.38519261045621     -1.67368220067304     -0.79629759237546
  H   -1.53517633538831     -0.22022423376513     -1.79689674214374
