17
Coordinates from ORCA-job run
  C   0.78058948195526     -0.01262389163815     -0.18133947861191
  C   -0.75731149064709      0.03483695527290      0.03429661881037
  H   1.11725201680220     -1.02909664459407      0.06525143056354
  H   -1.09183292024924      1.03710030838313     -0.26143252307458
  C   1.54160334309611      0.99385961238118      0.68672646111878
  H   2.61061109647115      0.96909837702685      0.46887717712005
  H   1.41009702787310      0.76106475064500      1.74433600940541
  H   1.17956332913192      2.00825182730493      0.50063737556538
  C   1.09333470625971      0.22140354693928     -1.59310856308140
  N   1.32676322643337      0.44186120270648     -2.72290156401611
  N   -1.16614012322928     -0.15653879093064      1.41857780690072
  H   -0.83742471193124     -1.05070932959017      1.76617164265027
  H   -0.80303286908104      0.57140630894873      2.01978597725939
  C   -1.46506829373546     -0.99803742767506     -0.83104484782056
  H   -1.26006790096408     -0.84905114616720     -1.89250994226084
  H   -2.54075791269477     -0.93356327991149     -0.66355809762913
  H   -1.13917800549060     -2.00826237910170     -0.55976548289937
