17
Coordinates from ORCA-job run
  C   0.73737682263284      0.22884015026313     -0.62249381520794
  C   -0.76680161688383      0.15812857566872     -0.27558133917705
  H   0.91675323423517     -0.39611935575445     -1.50659156860955
  H   -1.29960276607352      0.66330672597961     -1.08877037265659
  C   1.64660947942872     -0.23895121194852      0.51777304720609
  H   1.50838875336534      0.40015073698616      1.39039001167915
  H   1.43168967432394     -1.27426019382178      0.78915080860887
  H   2.69442308674421     -0.18161286596416      0.21808418264579
  C   1.08052127434727      1.60418854391362     -0.99521880649338
  N   1.35982359971976      2.70153840219696     -1.30522215947903
  N   -1.00815305316211      0.93205034153185      0.93971747340513
  H   -1.94806317054731      1.30627645813933      0.94144043288426
  H   -0.91381879227109      0.34323875747985      1.75900612487781
  C   -1.25998372777917     -1.28671325808809     -0.20732040423022
  H   -2.33892514365055     -1.30265408704216     -0.03479512100929
  H   -0.78566189455326     -1.82803158635678      0.61595247235100
  H   -1.05657575987639     -1.83037613318330     -1.13452096679508
