17

C	-0.540421	0.005199	-1.437628
C	0.0	0.0	0.0
Br	0.451529	1.245218	-2.59614
H	1.090135	0.0	0.0
C	-0.323659	-1.325149	-2.032166
N	-0.265091	-2.408473	-2.48756
N	-1.924219	0.417661	-1.463706
H	-2.457478	-0.101229	-0.774826
H	-2.318932	0.271561	-2.384812
C	-0.460036	-1.204545	0.805479
H	-0.118904	-1.07811	1.83371
H	-1.543114	-1.339778	0.823354
H	0.019662	-2.09778	0.404436
N	-0.466353	1.264235	0.655561
O	-1.466093	1.197775	1.376194
O	0.165624	2.287644	0.4246
Br	3.419376	0.0	0.0
