16
Coordinates from ORCA-job run
  C   -0.72642482904916     -0.04238991870062     -0.33373367445813
  C   0.80564903710636      0.02340841826010     -0.17812195590622
  F   -0.96943106700729     -0.83743057459465     -1.45093100893110
  H   1.17406341630744      0.46644973173481     -1.11159637300807
  C   -1.32553211390663     -0.71673753521743      0.83177240405974
  N   -1.80052715935689     -1.24326948142474      1.76781821217302
  C   -1.36780653338196      1.31055380946274     -0.56842539584783
  H   -0.90377536464771      1.77903470800866     -1.43903639626210
  H   -1.24380282024699      1.95768330739527      0.30068950837449
  H   -2.43231117428925      1.17567436890187     -0.76468883340748
  C   1.43750194210749     -1.35677048366097      0.01923781321404
  H   1.12023283447243     -1.79674152199055      0.96626261443823
  H   1.14081842361909     -2.01542995308041     -0.79699159452689
  H   2.52516415736111     -1.27218503174844      0.02504968029326
  C   1.14771429058175      0.92710833465353      0.92037421709531
  N   1.41946696033021      1.64104182200080      1.81232078269975
