16
Coordinates from ORCA-job run
  C   -0.68653248309882      0.09834168807877     -0.63365355754182
  C   0.79837050855524     -0.27274871012958     -0.44720368652090
  F   -0.81664250475365      0.60718856879895     -1.92069393246464
  H   1.05071978814112     -0.94262737600138     -1.27740072377106
  C   -1.49282148169763     -1.13425548887304     -0.56021852493467
  N   -2.12497501032131     -2.12024887202474     -0.47544645557968
  C   -1.20491402405981      1.13770013982341      0.34015325900171
  H   -0.59076139729815      2.03700589084117      0.27042350641556
  H   -2.23198824202700      1.38986780634222      0.07330739823039
  H   -1.19207713129434      0.76272732718062      1.36416721271894
  C   1.09207382884502     -0.97015573720007      0.88450340225915
  H   0.90241844674760     -0.30550377310554      1.72824980943084
  H   2.14111648073135     -1.26718448823163      0.91946631227567
  H   0.47840699536313     -1.86682784601341      0.98931731375800
  C   1.61097213275787      0.93731937969275     -0.59044053748399
  N   2.26663409340939      1.90840149082152     -0.66453079579350
