16
Coordinates from ORCA-job run
  C   -0.74012025810583     -0.01259890247201     -0.30530829049005
  C   0.79810479803330      0.00984447993551     -0.20937718779315
  F   -1.04791727298408     -0.76264144326261     -1.43750836450696
  H   1.14106471968465      0.47753748401392     -1.14051539810507
  C   -1.30967249223146     -0.71134390467663      0.86074653160495
  N   -1.75944604372698     -1.25694874211042      1.79827791346806
  C   -1.35452283914199      1.36321092715982     -0.46858312493356
  H   -0.91251409249601      1.85015423914107     -1.34053593080701
  H   -2.42902157271594      1.26171390497811     -0.62691164136235
  H   -1.18014967729323      1.97631413511503      0.41643682037594
  C   1.40147932228967     -1.39151912347203     -0.08674580245088
  H   2.49052269032184     -1.33256189515371     -0.11329272641214
  H   1.06283703500530     -2.01040888381716     -0.91773188843928
  H   1.10364500631981     -1.86106018084371      0.85236911750536
  C   1.20578157284887      0.86419606516923      0.90612698311643
  N   1.52992910419210      1.53811184029560      1.81155298922970
