16
Coordinates from ORCA-job run
  C   -0.64753482958619      0.34839834012905     -0.36592862938837
  C   0.68486918492005     -0.41906350176420     -0.24183397441569
  F   -0.35242860241641      1.70394747107783     -0.44255358572038
  H   0.44770233833754     -1.48940201212323     -0.27314652004120
  C   -1.31750585462531     -0.04028083404695     -1.62090651857890
  N   -1.87335394376969     -0.38614251351381     -2.59578549167192
  C   -1.58040581220399      0.13359447912811      0.81162916805678
  H   -2.52053132449405      0.65421138968529      0.62605986763832
  H   -1.78747274783052     -0.92879514448096      0.95520841631722
  H   -1.13008970333606      0.54454303414580      1.71492605726787
  C   1.43797997575575     -0.09096708847018      1.05181198047389
  H   1.56457117237586      0.98762017645008      1.15106026900789
  H   2.42562909326690     -0.55326368944343      1.03112902950843
  H   0.90414471953854     -0.47357124514457      1.92215261500824
  C   1.52354452861380     -0.11722342387271     -1.40581196673768
  N   2.22188180545377      0.12839456224388     -2.31701071672449
