16
Coordinates from ORCA-job run
  C   -0.64473563646110      0.34577076230563     -0.37303126647491
  C   0.67192776504139     -0.44578898960318     -0.23249436570741
  F   -0.32066580392138      1.68921794208124     -0.51428459058636
  H   0.41108054058790     -1.51091014412158     -0.21372675179933
  C   -1.34183954630608     -0.08295948443464     -1.59988595397234
  N   -1.92280275973214     -0.45629179696932     -2.54977089355231
  C   -1.56510023672556      0.20491740382083      0.82537959845140
  H   -1.79387432349392     -0.84505080854908      1.01890133096939
  H   -1.09265648858595      0.64499702435214      1.70343276754178
  H   -2.49598604480354      0.73840329610752      0.62945243038133
  C   1.45026088183580     -0.07817561426121      1.03538474750081
  H   2.42624459067739     -0.56483330818861      1.02301945827035
  H   1.60375791640140      1.00040927525422      1.08356986850230
  H   0.91971693183136     -0.40791147948150      1.92906768872562
  C   1.50124301937917     -0.21291199135962     -1.41886970740739
  N   2.19442919427527     -0.01888208695284     -2.34614436084292
