16
Coordinates from ORCA-job run
  C   -0.61140324939679      0.25130979647924     -0.48743718652606
  C   0.67710672144785     -0.48939375206823     -0.07324343735946
  F   -0.25204365061549      1.52257047228595     -0.91699475100514
  H   0.39439783969961     -1.51901767963805      0.17740551107788
  C   -1.23171541142673     -0.45287391489214     -1.62516133465118
  N   -1.74972077857970     -1.04207089382526     -2.49895362208494
  C   -1.61312018047607      0.39962277763294      0.64284263920942
  H   -1.87618703275577     -0.57459538023589      1.05985170823885
  H   -2.51734051107497      0.87624148595672      0.26248522319335
  H   -1.19214743497287      1.03141241205113      1.42469781963600
  C   1.37615099119002      0.16402782743644      1.12364215178817
  H   0.78078156317364      0.05549240343757      2.03059625005559
  H   2.34111477622608     -0.31498099460869      1.29375038945286
  H   1.54699340759272      1.22320753509104      0.92824213264806
  C   1.58723893836177     -0.54691993180374     -1.22120242738092
  N   2.34089401160671     -0.58303216329904     -2.12052106629246
