16
Coordinates from ORCA-job run
  C   -0.62452017037624      0.31469983101339     -0.43056804230988
  C   0.67253954641146     -0.47399520880753     -0.15669822725859
  F   -0.27395674547172      1.63347798128787     -0.69155371210308
  H   0.39268414752640     -1.52755264710630     -0.03538696295022
  C   -1.27754526352182     -0.22675522881443     -1.63703459357832
  N   -1.82127178014145     -0.68978926609404     -2.56913593962800
  C   -1.59451651195003      0.30500029185406      0.73648837740179
  H   -1.15167852165871      0.82636055502740      1.58484532339318
  H   -1.84580862660531     -0.71769493864259      1.02460328230677
  H   -2.50902486961380      0.82534100446266      0.44986371402587
  C   1.40948398446826      0.01544188158102      1.09459745641839
  H   1.58132790097462      1.09074652565933      1.03447619559140
  H   2.37592017622305     -0.48435556179804      1.17229526542413
  H   0.83939617275709     -0.20946022162928      1.99650055996902
  C   1.54897799469119     -0.38140971417658     -1.32845112808480
  N   2.27699256628700     -0.30105528381694     -2.24584156861768
