16
Coordinates from ORCA-job run
  C   -0.72565495697962     -0.00534324421347     -0.33919303913580
  C   0.80681640119257     -0.01615885225928     -0.17268438137409
  F   -0.99971464782979     -0.78929540510041     -1.45729223040078
  H   1.20290871001237      0.40429261521005     -1.10520558568945
  C   -1.36524923199133     -0.64875214791717      0.82214371104525
  N   -1.86917993581377     -1.15702163114666      1.75312476589127
  C   -1.29684584459100      1.37732072636686     -0.58092380260387
  H   -2.36527675386130      1.29533469952345     -0.78495126308946
  H   -0.80376376561618      1.81996638015818     -1.44910370279239
  H   -1.14674616746392      2.01952190455046      0.28772768842703
  C   1.36693596612977     -1.42573901749307      0.03376200112973
  H   2.45735998431259     -1.39564262723505      0.04974946467603
  H   1.04532791004383     -2.07147679905878     -0.78343730040827
  H   1.01903538551792     -1.84621938022138      0.97884605935677
  C   1.18613103904544      0.87151419522464      0.92648193536980
  N   1.48791590789244      1.56869858361162      1.82195567959824
