16
Coordinates from ORCA-job run
  C   -0.73091286166226     -0.01673897052948     -0.32685804648936
  C   0.80396736203892     -0.01592296699648     -0.18417135736084
  F   -1.01823122061036     -0.82369177536600     -1.42493858321405
  H   1.18363779722076      0.39022035983313     -1.12980661249704
  C   -1.34838671281192     -0.64059027298548      0.85693266574250
  N   -1.83527541468944     -1.13114527607195      1.80633071599146
  C   -1.31374844724821      1.35793344458846     -0.58614181941242
  H   -1.15061409061864      2.01897502441250      0.26593700714010
  H   -0.83904748712053      1.78443533321717     -1.47252796619739
  H   -2.38543630076771      1.26684045421771     -0.76814477453446
  C   1.37572035546309     -1.41824914320170      0.03837460261309
  H   1.04206886316090     -1.82580222960238      0.99431394970327
  H   2.46608151423091     -1.38089433635956      0.04050441974789
  H   1.04849571593378     -2.07914397461719     -0.76446190985419
  C   1.19505552206563      0.89530501192819      0.89142941669977
  N   1.50762540541508      1.61846931753307      1.76222829192168
