16
Coordinates from ORCA-job run
  C   -0.67810777833065      0.08639655295190     -0.64471787664000
  C   0.81125001904979     -0.25416706677194     -0.43527210844862
  F   -0.79824428882873      0.59673154162764     -1.93199427266375
  H   1.09069317116287     -0.91540902846987     -1.26371179730126
  C   -1.45878316917582     -1.16359375082619     -0.58808171110464
  N   -2.07079148474448     -2.16321490200097     -0.51628722698464
  C   -1.23390758829449      1.11101290802737      0.32395456798258
  H   -0.63759716168792      2.02322863693291      0.26756324116471
  H   -1.22963330717857      0.73267362953662      1.34681293761295
  H   -2.26163086768523      1.34267830000165      0.04137287906642
  C   1.09729753222421     -0.95029702319819      0.89879937363664
  H   2.15067384285467     -1.22901264700063      0.94840631382370
  H   0.88356554846643     -0.29137491590295      1.74127965601883
  H   0.49803643722152     -1.85777770963215      0.99259140056776
  C   1.60062303089960      0.97299441085779     -0.56034302219021
  N   2.23655606404682      1.95813106386701     -0.61937235454046
