16
Coordinates from ORCA-job run
  C   -0.68256252986496      0.07868367319867     -0.64069927558260
  C   0.80370445361347     -0.27686011878147     -0.43515706142822
  F   -0.80643300612604      0.56083490548744     -1.93868691844318
  H   1.06630572179560     -0.96624465323543     -1.24585432806810
  C   -1.47890565699016     -1.15959299729783     -0.54951240428329
  N   -2.10324485240516     -2.14943117925972     -0.45426299881516
  C   -1.21680272383344      1.13287457179412      0.30843669724121
  H   -0.60580458919863      2.03396692846938      0.23021204973606
  H   -2.24164149173375      1.37537819690841      0.02447816933613
  H   -1.21484994875472      0.77628061341647      1.33924834159685
  C   1.09254886392561     -0.93703709193893      0.91635074367339
  H   0.48146313935875     -1.83231129881547      1.04235017954422
  H   0.89627766429652     -0.25056503109856      1.74052506927764
  H   2.14208370823002     -1.22946189160151      0.96497149507024
  C   1.60913546510124      0.93438374335115     -0.60426440201002
  N   2.25972578258562      1.90710162940329     -0.69913535684515
