16
Coordinates from ORCA-job run
  C   -0.65211000431970      0.01118287609191     -0.46492964553175
  C   0.81637254215473      0.11947272610129     -0.00891247813551
  F   -0.61808876762911     -0.44715237532029     -1.77931731039537
  H   1.28405681447606      0.83098713770506     -0.70056504968320
  C   -1.35918616700455     -0.99903070751775      0.34228359622458
  N   -1.92185212257915     -1.79311595854889      0.99946910251256
  C   -1.38911877991606      1.33537146055564     -0.44505693472423
  H   -0.83926080054257      2.05922273055298     -1.05036931929148
  H   -2.38385395546328      1.20028326177697     -0.87186986967754
  H   -1.48567393911756      1.71346496374023      0.57338479890356
  C   1.55416830562016     -1.22000716577793     -0.07454436411831
  H   1.47650336488588     -1.63206535253417     -1.08071744812094
  H   2.60861265017932     -1.07757320084068      0.16644478511307
  H   1.13036109173608     -1.93155853872674      0.63621248313246
  C   0.86943369026610      0.69122626657221      1.33667838332832
  N   0.90963607725365      1.13829187617017      2.42180927046377
