16
Coordinates from ORCA-job run
  C   -0.68934502509991      0.08668704545811     -0.63329831151776
  C   0.80196935950668     -0.25911152482377     -0.44796970126204
  F   -0.82999863846732      0.58963652254232     -1.92117649453430
  H   1.06430629009888     -0.92450732999728     -1.27863393125097
  C   -1.47386714775740     -1.15968535004208     -0.55426365075146
  N   -2.08707034769647     -2.15688841077092     -0.46130030006659
  C   -1.22379468682113      1.11940708136084      0.33879256267741
  H   -1.20184660078213      0.74761981918639      1.36377745136209
  H   -0.62585698718130      2.02928275856746      0.26538482571491
  H   -2.25582015348279      1.35263387254384      0.07379260362478
  C   1.10890435358157     -0.95209306703566      0.88297298790201
  H   0.51270514368185     -1.86032831238729      0.98694600418083
  H   0.90666406699794     -0.29235081177267      1.72753680205722
  H   2.16336372181158     -1.22891109020322      0.91730106462029
  C   1.59457659665636      0.96390508903696     -0.59244758326826
  N   2.23511005495359      1.94470370833697     -0.66941432948814
