14
Coordinates from ORCA-job run
  C   -0.51472280066571      0.19526467290266      0.18986404036291
  C   0.46254712596458     -0.89991856360558     -0.19560553613255
  F   -1.24098019558331     -0.17852162848885      1.28852870738626
  H   0.82907544403211     -0.76117823557654     -1.21088156318117
  H   -0.01273816366410     -1.86911729741168     -0.07815244033334
  N   -1.61767934484211      0.23264637710495     -0.91527628484691
  O   -2.19700617223527      1.30267787710043     -1.06047606089473
  O   -1.85408308504355     -0.81432240784403     -1.50926105376506
  N   0.07925702523466      1.42695428650689      0.40900679765178
  H   -0.58917986015008      2.18425356769610      0.43116105166035
  H   0.87471398787171      1.62309688693763     -0.17923836868913
  N   1.63708398811066     -0.83758175544947      0.71804922570288
  O   1.57639637727428     -1.49020835953205      1.75393094183137
  O   2.56731567369614     -0.11604542034045      0.36035054324735
