15

C	0.0	0.0	0.0
C	-0.285827	0.264699	-1.515351
Br	2.17116	0.0	0.0
H	0.609209	0.123919	-2.118736
H	-0.571759	1.325884	-1.569278
N	-0.491929	0.962237	0.912796
H	-0.231026	1.893242	0.607897
H	-1.521214	0.825711	0.775596
N	-0.371744	-1.279893	0.39219
H	-0.827655	-1.74785	-0.385039
H	-0.976904	-1.224989	1.197787
N	-1.328845	-0.642295	-1.981538
H	-2.156007	-0.432261	-1.385395
H	-1.520849	-0.442909	-2.955044
F	-2.875531	0.0	0.0
