15

C	0.0	0.0	0.0
C	-0.305311	-0.534267	-1.455643
Br	2.036323	0.0	0.0
H	0.580074	-0.358083	-2.066382
H	-0.422233	-1.61671	-1.345702
N	-0.448924	1.366926	0.113606
H	-1.474455	1.220448	0.093391
H	-0.214631	1.699813	1.045485
N	-0.483543	-0.933956	0.979033
H	-1.50497	-0.870882	0.796635
H	-0.326968	-0.537383	1.902708
N	-1.442347	0.008233	-2.172809
H	-2.24153	-0.046184	-1.526325
H	-1.258842	0.995699	-2.313628
F	-2.88702	0.0	0.0
