15

C	0.0	0.0	0.0
C	-0.472621	0.103753	-1.434413
Br	2.066162	0.0	0.0
H	-1.566569	0.118889	-1.265924
H	-0.171771	-0.813591	-1.954274
N	-0.321088	1.202846	0.686031
H	0.195477	1.293854	1.548796
H	-0.140162	1.988253	0.070184
N	-0.536224	-1.182221	0.567764
H	-1.572606	-0.925133	0.467718
H	-0.316626	-1.18894	1.560542
N	-0.02897	1.343878	-2.07095
H	-0.665274	1.567793	-2.825086
H	0.897376	1.217242	-2.460376
F	-2.875181	0.0	0.0
