12

C	0.0	0.0	0.0
C	-0.32401	-0.011297	-1.518814
Br	1.944231	0.0	0.0
H	0.529727	-0.491829	-2.005736
H	-0.338939	-0.882609	0.531173
H	-0.367853	0.909322	0.45733
N	-0.42688	1.376196	-2.001649
H	0.474852	1.661403	-2.358622
H	-1.112652	1.422979	-2.748625
C	-1.417342	-0.862948	-2.01703
N	-1.950171	-1.647125	-2.716418
Br	-3.319913	0.0	0.0
