17

C	0.0	0.0	0.0
C	-0.516811	0.043348	-1.445701
F	1.350849	0.0	0.0
H	-1.573547	0.335602	-1.372887
N	-0.327352	1.363331	0.677016
O	-0.906129	2.219126	0.019352
O	0.11168	1.495774	1.813444
N	-0.510521	-1.008701	0.836618
H	-1.534811	-0.939445	0.823892
H	-0.229778	-1.915293	0.484678
C	-0.432484	-1.339809	-2.097607
H	0.577408	-1.753806	-2.024334
H	-1.1507	-2.007974	-1.621703
H	-0.698581	-1.265617	-3.15342
C	0.214744	1.023888	-2.24418
N	0.81571	1.765459	-2.928504
Br	-3.710493	0.0	0.0
