17

C	0.0	0.0	0.0
C	-0.565994	-0.029402	-1.410299
F	1.383881	0.0	0.0
H	-1.589828	0.368197	-1.31341
N	-0.31015	1.346445	0.671336
O	-0.559804	2.298316	-0.054295
O	-0.18435	1.3806	1.891416
N	-0.51986	-0.995436	0.818899
H	-0.342166	-0.802702	1.793623
H	-0.222812	-1.9176	0.544218
C	-0.687576	-1.461806	-1.939838
H	-1.467792	-1.966262	-1.370476
H	0.263506	-1.999654	-1.878201
H	-0.996636	-1.43423	-2.985997
C	0.232833	0.788868	-2.320479
N	0.863655	1.382149	-3.113695
Br	-3.8241	0.0	0.0
