17

C	0.0	0.0	0.0
C	-0.549689	0.007569	-1.416619
F	1.383922	0.0	0.0
H	-1.59077	0.358696	-1.323167
N	-0.320511	1.324415	0.707706
O	-0.599057	2.289995	0.011132
O	-0.178536	1.328144	1.926952
N	-0.527153	-1.018636	0.783375
H	-0.22303	-1.933117	0.489939
H	-0.372808	-0.851406	1.766776
C	-0.583811	-1.408068	-2.003963
H	0.394221	-1.894597	-1.934412
H	-1.34752	-1.981514	-1.478126
H	-0.863624	-1.358012	-3.057322
C	0.227472	0.89244	-2.283365
N	0.846058	1.541857	-3.041477
Br	-3.827282	0.0	0.0
