17

C	0.0	0.0	0.0
C	-0.56117	0.062534	-1.41013
F	1.383473	0.0	0.0
H	-1.589022	0.442949	-1.287675
N	-0.313568	1.297887	0.758028
O	-0.212913	1.247699	1.980182
O	-0.53714	2.3005	0.094691
N	-0.52141	-1.049014	0.748225
H	-0.35432	-0.919414	1.735417
H	-0.215843	-1.949727	0.416396
C	-0.663485	-1.331795	-2.03604
H	-1.443868	-1.883232	-1.510864
H	-0.959234	-1.239312	-3.081469
H	0.291934	-1.86437	-1.99757
C	0.232103	0.947601	-2.261317
N	0.853207	1.598355	-3.016205
Br	-3.807966	0.0	0.0
