17

C	0.0	0.0	0.0
C	-0.607611	0.010047	-1.395289
F	1.349951	0.0	0.0
H	-1.66506	0.294849	-1.254017
N	-0.239987	1.474873	0.594871
O	0.746089	2.179112	0.800105
O	-1.399976	1.773994	0.835025
N	-0.570973	-0.984418	0.803681
H	-1.594043	-0.912642	0.725116
H	-0.295153	-0.872904	1.771781
C	-0.553825	-1.37215	-2.051917
H	-1.198793	-2.053693	-1.500488
H	-0.918753	-1.303297	-3.078297
H	0.465778	-1.761923	-2.059976
C	0.067021	1.008015	-2.223781
N	0.622738	1.765889	-2.927868
Br	-3.934777	0.0	0.0
