17

C	0.0	0.0	0.0
C	-0.613061	-0.04024	-1.390782
F	1.349872	0.0	0.0
H	-1.673577	0.238621	-1.257435
N	-0.244307	1.490107	0.542312
O	-1.3997	1.772208	0.824956
O	0.733535	2.223415	0.672624
N	-0.564783	-0.954885	0.840564
H	-1.589105	-0.881962	0.787017
H	-0.259424	-0.830067	1.798738
C	-0.542689	-1.441105	-2.003825
H	-1.164932	-2.118353	-1.420433
H	-0.924833	-1.412519	-3.026628
H	0.485562	-1.810062	-2.012263
C	0.04381	0.941004	-2.253222
N	0.5802	1.70025	-2.971831
Br	-3.936506	0.0	0.0
