17

C	0.0	0.0	0.0
C	-0.344901	-0.170741	-1.485908
F	1.391484	0.0	0.0
H	0.303079	0.553429	-1.98631
N	-0.266934	1.482206	0.423225
O	-0.527285	1.667691	1.607296
O	-0.109761	2.352992	-0.425467
N	-0.562954	-0.922636	0.861354
H	-0.445047	-0.634576	1.825826
H	-1.559962	-1.019733	0.669968
C	-1.783092	0.072253	-1.923707
H	-1.845332	-0.058211	-3.007061
H	-2.093414	1.084997	-1.674878
H	-2.500623	-0.592099	-1.450057
C	0.115912	-1.501922	-1.892787
N	0.475792	-2.55114	-2.277012
Br	-4.548268	0.0	0.0
