14

C	-0.529664	-0.075997	-1.419461
C	0.0	0.0	0.0
F	-0.361727	1.194137	-1.991908
H	1.091868	0.0	0.0
H	-0.383665	0.902656	0.486533
H	-0.33954	-0.876441	0.564021
C	0.259672	-1.057756	-2.258113
H	0.134604	-2.075888	-1.875685
H	1.319328	-0.804404	-2.189079
H	-0.090592	-1.014089	-3.291619
N	-1.959359	-0.347265	-1.54517
H	-2.443829	0.237496	-0.870382
H	-2.117943	-1.308691	-1.26336
H	3.184944	0.0	0.0
