11

C	-0.438766	-0.028104	-1.460329
C	0.0	0.0	0.0
Cl	-2.232394	-0.07713	-1.629979
H	1.09444	0.0	0.0
H	-0.060441	-0.933008	-1.939963
H	-0.349928	0.914752	0.484601
C	0.055699	1.139529	-2.188158
N	0.407793	2.080035	-2.796952
C	-0.499036	-1.162851	0.722076
N	-0.911261	-2.099104	1.297726
Br	3.433374	0.0	0.0
