11

C	-0.453711	0.012385	-1.46285
C	0.0	0.0	0.0
Cl	0.044199	-1.507435	-2.257255
H	1.092733	0.0	0.0
H	0.060937	0.820621	-1.987026
H	-0.359555	-0.903761	0.49755
C	-1.899686	0.175078	-1.616046
N	-3.061099	0.307231	-1.733256
C	-0.499608	1.180992	0.695011
N	-0.926187	2.132019	1.235702
Br	3.45273	0.0	0.0
