11

C	-0.552812	0.010333	-1.4271
C	0.0	0.0	0.0
Cl	-0.041214	1.504102	-2.264168
H	1.094101	0.0	0.0
H	-1.645376	0.032869	-1.409694
H	-0.325468	0.916594	0.500592
C	-0.150735	-1.160502	-2.205089
N	0.096077	-2.113347	-2.84534
C	-0.530962	-1.148923	0.725303
N	-1.001901	-2.064756	1.289488
Br	3.46203	0.0	0.0
