11

C	-0.425175	-0.042923	-1.464803
C	0.0	0.0	0.0
Cl	-2.209534	-0.195934	-1.661088
H	1.0944	0.0	0.0
H	0.014159	-0.918888	-1.94516
H	-0.35639	0.916013	0.476826
C	0.006588	1.158939	-2.174461
N	0.307373	2.128114	-2.764772
C	-0.493018	-1.160998	0.729239
N	-0.900218	-2.094571	1.312743
Br	3.427215	0.0	0.0
