11

C	-0.550556	0.018027	-1.428586
C	0.0	0.0	0.0
Cl	0.094433	1.399212	-2.355965
H	1.092718	0.0	0.0
H	-1.636357	0.145788	-1.415982
H	-0.32191	-0.927853	0.485548
C	-0.253496	-1.233051	-2.124849
N	-0.05826	-2.249084	-2.679851
C	-0.529674	1.127502	0.757895
N	-0.997595	2.020685	1.359348
Br	3.459192	0.0	0.0
