11

C	-0.424135	-0.076114	-1.46163
C	0.0	0.0	0.0
Cl	-2.149107	-0.567707	-1.635508
H	1.095478	0.0	0.0
H	0.168601	-0.856355	-1.942999
H	-0.311082	-0.923219	0.496817
C	-0.225863	1.178625	-2.181528
N	-0.089721	2.19138	-2.759397
C	-0.572189	1.139233	0.700383
N	-1.048756	2.044859	1.275129
Br	3.427903	0.0	0.0
