12
Coordinates from ORCA-job run
  C   1.04895334409214     -0.01923397225719     -0.39553930946057
  C   -0.34859951512115      0.59359069154087     -0.40226251659865
  Cl  2.23331274547454      1.09585355284811     -1.14320688411226
  H   -0.31599536852556      1.53534978276754      0.15186728571055
  H   1.06548622030539     -0.92963325865804     -0.99968633987775
  H   -0.59383251912701      0.83534840052713     -1.44000994175170
  C   1.48431854218553     -0.35473281601800      0.95825725747995
  N   1.79062189129450     -0.62873390379953      2.05817453129320
  C   -1.38698897894769     -0.35286295536601      0.19151643510929
  H   -2.38189043296551      0.09145293333151      0.12462001748385
  H   -1.18336598043904     -0.56170037906491      1.24360981666295
  H   -1.41101994822614     -1.30369807585147     -0.34734035193885
