12
Coordinates from ORCA-job run
  C   1.02678808771701      0.20198422882411     -0.40168030497003
  C   -0.29040876623721      0.72351079297354      0.16554459891764
  Cl  2.30726638673564      1.44705424962173     -0.27778543887561
  H   -0.53775798416377      1.64161591017085     -0.37428504480397
  H   0.91933829294986     -0.01847086202531     -1.46657159816769
  H   -0.13252521995286      0.99472751340401      1.21274586223728
  C   1.46336729503492     -1.01431911703579      0.28032042921935
  N   1.77037635168961     -2.00060819657595      0.83869519082877
  C   -1.41226750982283     -0.30112393156502      0.03062463187113
  H   -1.20032266339620     -1.20524780898643      0.60482183395068
  H   -1.56472263509731     -0.58707133955583     -1.01344272220517
  H   -2.35013163545686      0.11794856075009      0.40001256199763
