12
Coordinates from ORCA-job run
  C   1.09797039783156      0.27237173986151     -0.27092707485014
  C   -0.37407641873115      0.28027145053229     -0.68072262289357
  Cl  1.46332169767698      1.60750612020765      0.86788492571696
  H   -0.58697056127525      1.26299015201208     -1.11106629202740
  H   1.73234464226906      0.44461565686424     -1.14298746483640
  H   -0.48518023750338     -0.45706951983635     -1.48368933635027
  C   1.48363974436781     -1.00057150390215      0.33466637039652
  N   1.76038155224647     -2.04483073802613      0.79468887564218
  C   -1.33487953492452     -0.03154065538109      0.45878020637030
  H   -2.36482058876536     -0.00139256213404      0.09818967083911
  H   -1.24025127833951      0.69497093559665      1.26692315017510
  H   -1.15147941485271     -1.02732107579465      0.86825959181759
