18

C	-0.49714	0.025636	-1.455682
C	0.0	0.0	0.0
Cl	0.097211	1.565018	-2.194822
H	1.094708	0.0	0.0
C	0.14124	-1.121428	-2.221574
H	1.224342	-1.086022	-2.077991
H	-0.234878	-2.075797	-1.840525
H	-0.095113	-1.051502	-3.28667
C	-2.01208	0.044446	-1.548784
H	-2.418179	-0.888401	-1.144656
H	-2.333686	0.147057	-2.588577
H	-2.399913	0.885461	-0.971706
C	-0.441213	-1.239936	0.628051
N	-0.813257	-2.226486	1.151843
N	-0.441432	1.170832	0.76984
H	-0.971203	0.889224	1.584393
H	0.408696	1.62682	1.092956
H	2.75501	0.0	0.0
