18

C	-0.509951	0.083443	-1.446478
C	0.0	0.0	0.0
Cl	-0.115187	-1.486552	-2.261408
H	1.101941	0.0	0.0
C	-2.014738	0.268833	-1.523596
H	-2.277557	1.198748	-1.012221
H	-2.534673	-0.565327	-1.045625
H	-2.340561	0.330115	-2.565768
C	0.252538	1.181656	-2.166665
H	0.005915	2.138794	-1.702193
H	-0.021749	1.206473	-3.225257
H	1.325365	1.005818	-2.056387
C	-0.515081	-1.167396	0.706206
N	-0.958442	-2.06003	1.332515
N	-0.33266	1.249201	0.707404
H	0.51836	1.53321	1.188282
H	-1.055716	1.099839	1.399496
H	2.740743	0.0	0.0
