18

C	-0.364848	0.019999	-1.475877
C	0.0	0.0	0.0
Cl	-2.193455	0.093465	-1.675104
H	1.102476	0.0	0.0
C	0.227644	1.260085	-2.112361
H	-0.178813	2.153107	-1.640863
H	1.309197	1.23007	-1.935156
H	0.020233	1.277362	-3.185806
C	0.136372	-1.244279	-2.145856
H	-0.352951	-2.130742	-1.738163
H	-0.043946	-1.206192	-3.22364
H	1.213584	-1.309784	-1.950336
C	-0.461267	-1.215028	0.670043
N	-0.839168	-2.162214	1.257233
N	-0.386737	1.215956	0.706712
H	0.360183	1.435263	1.357649
H	-1.247402	1.086479	1.22302
H	2.727539	0.0	0.0
