18

C	-0.511069	-0.022996	-1.448419
C	0.0	0.0	0.0
Cl	-0.121248	-1.648725	-2.145443
H	1.107406	0.0	0.0
C	-2.015368	0.160881	-1.538365
H	-2.342397	0.144092	-2.582093
H	-2.273464	1.127263	-1.097901
H	-2.537361	-0.632882	-0.99787
C	0.252638	1.018314	-2.246417
H	1.32492	0.846047	-2.127624
H	-0.025637	0.970344	-3.30335
H	0.011761	2.006588	-1.849386
C	-0.515433	-1.109734	0.791708
N	-0.960734	-1.952121	1.482296
N	-0.331159	1.298447	0.612975
H	0.524385	1.625363	1.05696
H	-1.043523	1.200207	1.32511
H	2.734741	0.0	0.0
