18

C	-0.283682	0.025453	-1.502566
C	0.0	0.0	0.0
Cl	-2.094656	0.17303	-1.811925
H	1.098383	0.0	0.0
C	0.395398	1.233825	-2.119049
H	0.270067	1.231392	-3.204556
H	1.459258	1.173072	-1.856183
H	-0.016063	2.164493	-1.725152
C	0.208365	-1.257016	-2.142704
H	1.270606	-1.355445	-1.887327
H	-0.332674	-2.124652	-1.760914
H	0.090685	-1.215665	-3.228635
C	-0.507238	-1.219051	0.625077
N	-0.901019	-2.208197	1.124208
N	-0.40667	1.165923	0.767001
H	-1.245727	1.580957	0.379457
H	0.353858	1.835312	0.737574
H	2.736209	0.0	0.0
