14

C	-0.58422	-0.108791	-1.405448
C	0.0	0.0	0.0
Cl	-0.334792	-1.841525	-1.906426
H	1.089775	0.0	0.0
H	-0.355091	-0.820117	0.620257
C	-2.054465	0.058509	-1.3565
N	-3.220115	0.214049	-1.355647
N	0.060455	0.745096	-2.341065
H	-0.508103	0.903456	-3.162152
H	0.32367	1.618482	-1.89966
N	-0.439818	1.242076	0.690308
O	-0.667135	1.162842	1.895222
O	-0.508374	2.279883	0.026256
Br	3.41976	0.0	0.0
