15
Coordinates from ORCA-job run
  C   -0.45006570581049      0.12848202045954      0.26819539556849
  C   0.83493169011318      0.70621436706485     -0.30530684970325
  F   -0.50753538048928      0.42551164210959      1.59304882184941
  H   0.90447005914741      0.51215893230371     -1.37247722334742
  H   0.89087047326162      1.77087434565688     -0.08088816259907
  N   -1.57834759822660      0.89973367367948     -0.41725808015030
  O   -1.57439385564907      0.84124475789552     -1.64362135298184
  O   -2.38649514658182      1.47977918626434      0.29138111626652
  C   -0.70078910482229     -1.34168431411960      0.05692122815999
  H   -1.68455204781597     -1.58635599397272      0.46200980431839
  H   -0.66798148969699     -1.58900054992408     -1.00300623301069
  H   0.05519366025186     -1.92149073210444      0.58425873294459
  N   2.00217278365058      0.05849357304954      0.35635339047065
  O   2.31714506300571     -1.05575238633941     -0.05942327776563
  O   2.54537659966216      0.67379147797678      1.26881268998017
