15
Coordinates from ORCA-job run
  C   -0.50913045553795      0.00380320114001      0.49981771217916
  C   0.93852787975891      0.47251422986290      0.60432150921539
  F   -1.01763101016108      0.14426598596770      1.75853182517920
  H   1.44085763419508     -0.15508987624633      1.34090502196321
  H   0.96198064220353      1.51773427826390      0.90975609037776
  N   -1.25524899611962      0.98525344638919     -0.39465423710909
  O   -0.89179762164360      0.97438778835499     -1.56710332694549
  O   -2.12263029745980      1.68493437812787      0.10603909199529
  C   -0.76240657306969     -1.39202500642400      0.00039316873579
  H   -0.23158881858061     -2.10300975306268      0.63424995857046
  H   -1.83463583949632     -1.58792443403200      0.06523028179960
  H   -0.42684836099420     -1.51038198604467     -1.02615906934384
  N   1.70599133964064      0.35405885499510     -0.66632788494571
  O   2.04447121926925      1.39677988735193     -1.21674611505764
  O   1.95908925799546     -0.78630099464384     -1.04725402661402
