15
Coordinates from ORCA-job run
  C   -0.50445591674080     -0.00662501280459      0.50584462679372
  C   0.94336642154867      0.46058609230844      0.60944514358142
  F   -1.02124139280708      0.15235721221029      1.75885663221745
  H   0.96452445678986      1.49279633169446      0.95694389385648
  H   1.46860022163457     -0.19663540022345      1.30219642462856
  N   -1.23695367797119      0.97404319564556     -0.40460290474920
  O   -1.91917747033108      1.84146391443618      0.12073766366360
  O   -1.03859210756589      0.80966422672504     -1.60467219903998
  C   -0.74506835222337     -1.41137264972530      0.02797945943769
  H   -1.81791037291567     -1.61044699405860      0.05673255802544
  H   -0.37408693913273     -1.55438161674704     -0.98280702682989
  H   -0.23703000425387     -2.10510760711678      0.69909668656285
  N   1.66011224881237      0.40104100095780     -0.69360804169937
  O   1.85363125081894      1.46545697668729     -1.27380484716690
  O   2.00328163433724     -0.71383966998932     -1.08033806928193
