15
Coordinates from ORCA-job run
  C   -0.51913101180037     -0.00126202492555      0.45542201520116
  C   0.93050451870847      0.39464036123039      0.65837887373150
  F   -1.09493629754295      0.08044107244802      1.70394190177084
  H   0.98484175253432      1.43324762483382      0.98432749746220
  H   1.38953131861678     -0.25941138025192      1.39751854828178
  N   -1.23482240371951      1.08109964115304     -0.35432143955645
  O   -2.00580149699002      0.72080357381549     -1.23465735395186
  O   -1.01563151881640      2.23478730570756     -0.00271896763647
  C   -0.75315046507310     -1.36546041026836     -0.12247551305357
  H   -1.82042710338278     -1.58002154239658     -0.12043044840654
  H   -0.23833552841455     -2.09959387981884      0.50031286111981
  H   -0.38797346762662     -1.42749608798659     -1.14569589930209
  N   1.72263005354699      0.27951265840741     -0.59572907350661
  O   1.16273573684798      0.62001148488023     -1.63618895784612
  O   2.87996591311178     -0.11229839682815     -0.49068404430757
