17

C	0.0	0.0	0.0
C	-0.346899	-0.285873	-1.483067
F	1.39631	0.0	0.0
H	0.256541	0.440968	-2.044737
C	-0.48338	1.377135	0.388285
H	-0.121838	2.127679	-0.323017
H	-0.09346	1.624563	1.380338
H	-1.578593	1.309874	0.393158
C	-0.481336	-1.074101	0.943613
H	-0.130115	-0.841485	1.953427
H	-0.082296	-2.049841	0.653321
H	-1.575674	-1.039592	0.888615
C	-1.730611	-0.133014	-1.990903
N	-2.506465	-0.065595	-2.877233
C	0.158167	-1.609472	-1.876172
N	0.590231	-2.655341	-2.189009
F	-2.835517	0.0	0.0
