17

C	0.0	0.0	0.0
C	-0.621609	-8.8e-05	-1.401918
F	1.393042	0.0	0.0
H	-1.745796	0.001762	-1.085797
C	-0.444477	1.254992	0.729589
H	-1.536536	1.251829	0.720896
H	-0.03881	2.144453	0.239057
H	-0.06373	1.222334	1.754165
C	-0.444451	-1.255085	0.729503
H	-0.068804	-1.219822	1.755888
H	-1.536513	-1.254949	0.716375
H	-0.033727	-2.143987	0.242093
C	-0.272332	-1.191583	-2.168387
N	0.012233	-2.151199	-2.784725
C	-0.266968	1.188409	-2.170486
N	0.019755	2.147824	-2.786185
F	-2.903314	0.0	0.0
