17

C	0.0	0.0	0.0
C	-0.367033	-0.30505	-1.476296
F	1.396489	0.0	0.0
H	0.366428	0.27641	-2.051676
C	-0.473435	1.390622	0.358939
H	-1.568498	1.32854	0.371603
H	-0.114156	2.121402	-0.373994
H	-0.07429	1.658645	1.341873
C	-0.479066	-1.045444	0.975899
H	-0.064853	-2.025753	0.727071
H	-1.5731	-1.02346	0.907137
H	-0.144337	-0.769272	1.980553
C	-1.684209	0.107145	-2.007848
N	-2.412329	0.464683	-2.862894
C	-0.105767	-1.710287	-1.814091
N	0.148076	-2.823863	-2.08701
F	-2.826918	0.0	0.0
