17

C	0.0	0.0	0.0
C	-0.419521	-0.301056	-1.462392
F	1.396836	0.0	0.0
H	0.374499	-0.961211	-1.838396
C	-0.459388	1.348719	0.4998
H	-0.112767	1.478166	1.529531
H	-1.552977	1.323262	0.452386
H	-0.036718	2.148801	-0.11313
C	-0.451218	-1.132327	0.898379
H	-1.544037	-1.069981	0.923148
H	-0.011693	-0.990445	1.890151
H	-0.112832	-2.096393	0.502964
C	-0.380005	0.894246	-2.312553
N	-0.293189	1.839255	-3.00423
C	-1.679508	-1.042384	-1.695231
N	-2.366566	-1.810515	-2.267381
F	-2.797934	0.0	0.0
