17

C	0.0	0.0	0.0
C	-0.509953	-0.171806	-1.464872
F	1.396322	0.0	0.0
H	0.396476	-0.171886	-2.088383
C	-0.423476	1.335265	0.579013
H	-1.516955	1.316622	0.597504
H	-0.001928	1.42447	1.584696
H	-0.040823	2.159231	-0.031582
C	-0.425865	-1.150836	0.888495
H	-0.024727	-2.096584	0.511316
H	-1.519798	-1.139206	0.883703
H	-0.024569	-0.979959	1.892062
C	-1.345169	0.930536	-1.95953
N	-1.831922	1.845849	-2.511954
C	-1.189035	-1.446509	-1.718508
N	-1.610038	-2.500331	-2.017659
F	-2.740101	0.0	0.0
