17

C	0.0	0.0	0.0
C	-0.659854	0.022923	-1.385346
F	1.393018	0.0	0.0
H	-1.791131	0.019845	-1.014134
C	-0.439603	1.238991	0.762358
H	-0.030656	1.195249	1.77545
H	-1.530333	1.225788	0.783303
H	-0.063241	2.1423	0.275833
C	-0.439932	-1.265486	0.715356
H	-0.034264	-1.259033	1.730454
H	-1.530712	-1.252905	0.731518
H	-0.06127	-2.150599	0.197806
C	-0.367014	-1.16228	-2.177615
N	-0.137414	-2.13527	-2.795552
C	-0.367699	1.226449	-2.148137
N	-0.141346	2.214583	-2.741584
F	-2.91754	0.0	0.0
