17

C	0.0	0.0	0.0
C	-0.659409	-0.000199	-1.383952
F	1.389769	0.0	0.0
H	-1.792601	-0.002109	-1.005353
C	-0.438424	1.253499	0.739556
H	-0.063338	2.147604	0.233307
H	-1.529445	1.242719	0.763885
H	-0.025134	1.229936	1.751321
C	-0.438393	-1.253254	0.740063
H	-1.529417	-1.242419	0.764606
H	-0.063391	-2.147514	0.234045
H	-0.025006	-1.229378	1.751784
C	-0.366122	-1.193056	-2.16296
N	-0.157326	-2.161332	-2.796668
C	-0.370619	1.193691	-2.164352
N	-0.164394	2.162355	-2.798424
F	-2.911757	0.0	0.0
