17

C	0.0	0.0	0.0
C	-0.410823	-0.212404	-1.480642
F	1.39664	0.0	0.0
H	0.373788	-0.869012	-1.880653
C	-0.463169	1.314282	0.581147
H	-1.556531	1.288329	0.52406
H	-0.125621	1.3769	1.620029
H	-0.036645	2.152071	0.02388
C	-0.452415	-1.187755	0.823652
H	-0.124124	-2.125033	0.361456
H	-1.544587	-1.121625	0.859696
H	-0.003578	-1.115887	1.818475
C	-0.330996	1.028117	-2.261338
N	-0.226293	2.021887	-2.878071
C	-1.681747	-0.912297	-1.769003
N	-2.371996	-1.64439	-2.382901
F	-2.800831	0.0	0.0
