17

C	0.0	0.0	0.0
C	-0.405266	0.036099	-1.495889
F	1.398163	0.0	0.0
H	0.357972	-0.577891	-1.993117
C	-0.468102	1.198893	0.786181
H	-1.561461	1.183421	0.716664
H	-0.142894	1.085562	1.824743
H	-0.0339	2.117076	0.382524
C	-0.453952	-1.309166	0.610112
H	-1.547873	-1.260077	0.637731
H	-0.028733	-1.39337	1.615389
H	-0.099475	-2.156824	0.012546
C	-0.27289	1.380099	-2.070612
N	-0.131846	2.438634	-2.556283
C	-1.695995	-0.560794	-1.902375
N	-2.400559	-1.142145	-2.647116
F	-2.80804	0.0	0.0
