17

C	0.0	0.0	0.0
C	-0.413826	-0.258362	-1.475507
F	1.396589	0.0	0.0
H	0.408715	-0.867232	-1.875309
C	-0.467498	1.332076	0.532005
H	-1.561038	1.29866	0.46976
H	-0.039576	2.150014	-0.053203
H	-0.137481	1.436125	1.570211
C	-0.450803	-1.158647	0.863077
H	-0.099468	-2.109072	0.448727
H	-0.022694	-1.035668	1.86231
H	-1.545233	-1.104057	0.879622
C	-0.431023	0.966299	-2.282438
N	-0.403537	1.919288	-2.968912
C	-1.63331	-1.048449	-1.724615
N	-2.311866	-1.847521	-2.258746
F	-2.802324	0.0	0.0
