15

C	-0.457122	-0.023704	-1.406827
C	0.0	0.0	0.0
Br	-2.737965	0.186038	-1.324917
H	1.093401	0.0	0.0
H	-0.297662	0.888828	-1.965411
N	-0.126093	-1.176414	-2.033961
H	-0.447225	-1.290002	-2.980521
H	-0.222252	-1.983679	-1.435367
N	-0.383108	-1.177443	0.707466
H	-1.313252	-1.066755	1.091031
H	0.274913	-1.319248	1.464471
N	-0.362997	1.268916	0.651611
O	-0.146598	2.298697	0.007306
O	-0.750212	1.238022	1.825833
H	2.509477	0.0	0.0
