15

C	-0.468319	-0.088525	-1.436589
C	0.0	0.0	0.0
Br	0.020245	1.611974	-2.415737
H	1.089304	0.0	0.0
H	0.191011	-0.812814	-1.917236
N	-1.829213	-0.456792	-1.602997
H	-2.056525	-0.574931	-2.581757
H	-2.415681	0.260089	-1.194213
N	-0.374804	-1.165974	0.759035
H	-1.095326	-1.694142	0.284792
H	0.463614	-1.723781	0.892602
N	-0.570691	1.188913	0.705223
O	0.08159	1.671275	1.623536
O	-1.697702	1.585986	0.369976
H	2.727418	0.0	0.0
