14
Coordinates from ORCA-job run
  C   0.69815499599385      0.13149476691548     -0.66976641870477
  C   -0.54731264169203     -0.70258845731850     -0.44736566822620
  F   1.40417882669266     -0.35707144707971     -1.72308792367610
  H   -1.13069475762936     -0.62825290255714     -1.36969249208185
  H   -0.20174960902633     -1.73679948190824     -0.35658618806524
  N   1.58963339187412     -0.00464727036887      0.56784441364357
  O   1.49076833421030      0.87403693625452      1.41608840119282
  O   2.26340889799096     -1.02230329757499      0.62085396753436
  C   0.41980758783237      1.55475115492690     -0.88491214798897
  N   0.14462861859247      2.67202089496108     -1.11997103973867
  C   -1.36884235079258     -0.27247705567765      0.76225600021558
  H   -1.65168897476356      0.78021753030052      0.70056525608076
  H   -2.28393071482190     -0.86444172856747      0.80912575155146
  H   -0.82536160446097     -0.42393964230592      1.69564808826325
