14
Coordinates from ORCA-job run
  C   0.54685359819582      0.16995214341710     -0.65586412330903
  C   -0.86252475599472      0.27920936366734     -0.10718737476588
  F   0.67161558536348     -0.91205602417610     -1.46277899536913
  H   -0.93012322442452      1.20766155552477      0.46380877033903
  H   -1.52062317011093      0.37180215657563     -0.97625829484322
  N   1.50006236075717     -0.02666556782058      0.53067535820892
  O   1.59094704418869      0.94244972775443      1.27287444305154
  O   2.02356510618624     -1.12106735178550      0.65497014582097
  C   0.98336756958576      1.37244956813625     -1.37272856231624
  N   1.29026163125815      2.33506887774051     -1.97143247746113
  C   -1.24365291665838     -0.92822764469549      0.74312920055795
  H   -2.30292095379177     -0.87625471635263      0.99872343790894
  H   -1.06789056158266     -1.86094176476656      0.20603371422915
  H   -0.67893731297232     -0.95438032321916      1.67703475794814
