14
Coordinates from ORCA-job run
  C   0.62146541299785      0.14383326298350     -0.38686480080438
  C   -0.33148567771387     -0.52997053352236      0.56853151160327
  F   0.66090972636899     -0.52672921303199     -1.57991538562945
  H   -0.23164099878767     -0.04600287878697      1.54443905366742
  H   0.01326759254756     -1.55983429406451      0.67699429771110
  N   2.06685177333736      0.08763051740328      0.13376828294605
  O   2.36473508256700     -0.89706424983222      0.79779050468706
  O   2.81263317798654      0.99325240830654     -0.22057653438904
  C   0.28236235416770      1.54990014979867     -0.63286341955918
  N   -0.07585493199971      2.65511883079990     -0.80339084091652
  C   -1.77107404999246     -0.47262604827278      0.06619056642667
  H   -1.85387939270803     -0.91078090253831     -0.92907523936863
  H   -2.41676294595776     -1.03922378905730      0.73864156285352
  H   -2.14352712281350      0.55249673981454      0.02633044077213
