14
Coordinates from ORCA-job run
  C   0.69044664686647      0.16481933486760     -0.62156885349811
  C   -0.53063029490883     -0.70890219517275     -0.48513207008920
  F   1.45339911775926     -0.24000500131433     -1.68146887378735
  H   -1.07831249569784     -0.62669033100568     -1.42818070501346
  H   -0.16938693831678     -1.73474366895108     -0.39045794714300
  N   1.58932735544695     -0.01444885992056      0.60977032457240
  O   1.87124496863651     -1.17648464822595      0.87028110460323
  O   1.96301840778899      0.99028662999338      1.20322401127708
  C   0.37800174765742      1.58859998056772     -0.78153776860802
  N   0.12162179728869      2.71124074628447     -1.01242356840318
  C   -1.40072379987449     -0.30859743812814      0.70141725676715
  H   -2.25383794680772     -0.98401656163787      0.78028454907962
  H   -0.84730994225214     -0.36784077432230      1.64109265605112
  H   -1.78785862358647      0.70678278696550      0.59269988419172
