14
Coordinates from ORCA-job run
  C   0.61854998060262      0.15313971309563     -0.42884730808737
  C   -0.32930920526845     -0.52678860018119      0.53889709801419
  F   0.58872739406556     -0.45547215907949     -1.63976107684553
  H   0.00598614055077     -1.56662975820117      0.61495694064858
  H   -0.20362891327400     -0.05664197324518      1.51679219269553
  N   2.04328980238762      0.01262330768379      0.12555650200719
  O   2.27412929344735      0.68845837760957      1.11934659760825
  O   2.78134676763759     -0.78168589765126     -0.43289717685240
  C   0.35100248407024      1.58603086010880     -0.59418739693670
  N   0.08264088444015      2.72057758251446     -0.73602030087427
  C   -1.77578189499494     -0.45331009671936      0.06385178442160
  H   -2.12552677915478      0.57979922156688      0.01225595111015
  H   -2.42044938311791     -0.99093414539887      0.76082801555242
  H   -1.88797657139180     -0.90816643210260     -0.92077182246164
