14
Coordinates from ORCA-job run
  C   0.60882045890756      0.11748074332518     -0.45290980005098
  C   -0.32170807645697     -0.48893522844193      0.57826268842257
  F   0.53914953367594     -0.56260261175887     -1.62367021595046
  H   0.00164510585263     -1.52702210977624      0.70930198337274
  H   -0.16401211435595      0.03780391477603      1.52212332572993
  N   2.04584833040606     -0.00965158805060      0.07175110275207
  O   2.75810203229548     -0.84792920106632     -0.45513938580665
  O   2.31230893507242      0.72258771839320      1.01559684760498
  C   0.35487100249757      1.54137087310779     -0.69817277100715
  N   0.09729205667959      2.66878659867032     -0.90285602880250
  C   -1.77919490600676     -0.42245103437261      0.13686207744285
  H   -2.11692258787997      0.61095320782604      0.03483088683806
  H   -1.92307685301740     -0.93122150441973     -0.81683755380984
  H   -2.41212291767019     -0.91016977821227      0.87985684326439
