14

C	-0.191182	0.011904	-1.514542
C	0.0	0.0	0.0
Cl	-1.931098	-0.02348	-2.017888
H	1.098432	0.0	0.0
H	0.195159	0.970487	-1.865366
C	0.586481	-1.124914	-2.144056
H	0.150397	-2.08872	-1.871709
H	1.598465	-1.04531	-1.733565
H	0.596198	-1.036263	-3.231893
C	-0.493766	-1.216851	0.618239
N	-0.869069	-2.219769	1.103798
C	-0.522227	1.187906	0.646687
N	-0.919279	2.170641	1.155275
F	2.508637	0.0	0.0
