14

C	-0.389024	-0.022702	-1.485291
C	0.0	0.0	0.0
Cl	0.274418	1.43831	-2.284707
H	1.096037	0.0	0.0
H	0.148133	-0.865134	-1.926773
C	-1.879309	-0.097232	-1.754037
H	-2.079163	-0.131431	-2.827495
H	-2.378424	0.7804	-1.337116
H	-2.295682	-0.994842	-1.28855
C	-0.446055	-1.233842	0.624118
N	-0.806972	-2.25487	1.08433
C	-0.540964	1.152134	0.696043
N	-0.969752	2.096789	1.250562
F	2.460645	0.0	0.0
