14

C	-0.188919	0.009084	-1.515086
C	0.0	0.0	0.0
Cl	-1.928184	-0.025528	-2.020764
H	1.098423	0.0	0.0
H	0.19899	0.966596	-1.867092
C	0.589315	-1.129666	-2.140692
H	1.600942	-1.049275	-1.729477
H	0.152574	-2.092505	-1.866007
H	0.599551	-1.04376	-3.228863
C	-0.494482	-1.215788	0.619602
N	-0.870509	-2.217913	1.106359
C	-0.522636	1.189335	0.643765
N	-0.919151	2.173277	1.150637
F	2.508769	0.0	0.0
