14

C	-0.408833	0.003033	-1.479441
C	0.0	0.0	0.0
Cl	0.26467	1.464674	-2.268861
H	1.09614	0.0	0.0
H	0.106918	-0.84181	-1.941688
C	-1.905011	-0.044465	-1.724585
H	-2.328275	-0.941274	-1.263536
H	-2.124656	-0.06068	-2.794848
H	-2.382047	0.835576	-1.286791
C	-0.446785	-1.240746	0.61019
N	-0.804634	-2.267619	1.059673
C	-0.529261	1.143607	0.720184
N	-0.939701	2.084213	1.295095
F	2.461641	0.0	0.0
