17

C	0.074569	0.039895	-0.010566
C	-0.450728	-0.061486	-1.467883
F	1.442234	-0.288172	-0.012823
H	0.371038	0.348083	-2.073936
C	0.018297	1.452132	0.423707
N	-0.001388	2.576808	0.762042
C	-0.641908	-0.863919	0.965916
H	-0.328634	-1.883569	0.74119
H	-0.374598	-0.613286	1.995515
H	-1.72634	-0.819022	0.806321
N	-1.670213	0.678704	-1.737722
H	-1.637332	1.623412	-1.37073
H	-2.452804	0.157055	-1.311494
N	-0.618436	-1.47005	-1.777902
H	-1.538573	-1.726584	-1.389472
H	-0.735493	-1.526053	-2.784804
H	-3.35061	-1.313554	-0.576595
