17

C	0.215693	-0.159307	-0.044473
C	-0.197886	0.250189	-1.483594
F	1.28947	-1.063099	-0.136116
H	0.760189	0.343664	-2.0164
C	0.765913	1.023013	0.651937
N	1.225612	1.957587	1.195142
C	-0.8945	-0.801566	0.755193
H	-0.615745	-0.885306	1.808648
H	-1.831466	-0.245089	0.627834
H	-1.0515	-1.795388	0.335701
N	-0.936258	1.495867	-1.584637
H	-1.897893	1.316326	-1.253234
H	-0.512652	2.240552	-1.042196
N	-0.955305	-0.850373	-2.05312
H	-1.024488	-0.658982	-3.047795
H	-1.914786	-0.734093	-1.69429
H	-3.403584	0.317229	-0.784784
