14

C	-0.456664	0.037855	-1.477737
C	0.0	0.0	0.0
Br	0.18381	-1.590136	-2.358616
H	1.092205	0.0	0.0
C	-1.908921	0.116322	-1.670465
N	-3.060765	0.229251	-1.882561
C	0.152932	1.190248	-2.144507
N	0.61421	2.106589	-2.7191
N	-0.50938	-1.254121	0.669897
O	-1.725364	-1.43374	0.631045
O	0.317744	-1.987448	1.191614
C	-0.539969	1.146995	0.711388
N	-0.966345	2.085359	1.275794
Cl	3.131783	0.0	0.0
