14

C	-0.448402	-0.047164	-1.468417
C	0.0	0.0	0.0
Br	-2.416472	-0.256836	-1.590844
H	1.095099	0.0	0.0
C	-0.128904	1.23475	-2.098373
N	0.095208	2.261488	-2.626197
C	0.164115	-1.121991	-2.249256
N	0.619112	-1.92608	-2.976524
N	-0.391978	-1.239808	0.747097
O	-0.536215	-1.130836	1.958606
O	-0.464293	-2.27619	0.095667
C	-0.52086	1.174	0.6744
N	-0.927588	2.139108	1.207805
Cl	3.041928	0.0	0.0
