15
Coordinates from ORCA-job run
  C   -0.47133201465242      0.29966051522244      0.48621342838687
  C   0.91098235966519     -0.32699098826338      0.64172828222906
  H   -0.81128910390332      0.66715344841976      1.45991836647519
  H   0.84942913239788     -1.09264663072493      1.41580423162465
  H   1.59345506120022      0.45436999356088      1.00411456120413
  N   -1.42917696060040     -0.81993741721354      0.16177626678960
  O   -1.48884807116707     -1.73131410479457      0.98449166536131
  O   -2.07997817994952     -0.76013340084153     -0.87599800154768
  C   -0.52918924880381      1.38240347390251     -0.56776433863029
  H   0.16144348565399      2.18427505712424     -0.29244242840223
  H   -1.53055971878996      1.80350147650814     -0.65311231221422
  H   -0.24841819013460      0.97905246387038     -1.53986901350881
  N   1.32319862366945     -0.93913040324001     -0.61555431958553
  H   1.90017778518430     -0.31404020462229     -1.16052031433371
  H   1.85010504023006     -1.78422327890808     -0.44978607384834
