15
Coordinates from ORCA-job run
  C   -0.36750109654275      0.29330166038175      0.24840373624032
  C   1.04178221777898     -0.20915945952578     -0.01266263027437
  H   -0.53639270886636      0.42634411869776      1.31919755969813
  H   1.13511401005854     -0.40664020291880     -1.08264848089660
  H   1.74073666610951      0.60272801759713      0.23961617311303
  N   -1.32188871436828     -0.79385263528392     -0.14591500328952
  O   -1.27064056816956     -1.17580099811422     -1.31221332702583
  O   -2.09699921526928     -1.20960326154066      0.71033424065399
  C   -0.71135321570489      1.55245853978577     -0.52678292583277
  H   -0.58510223337823      1.38184203534396     -1.59689463900075
  H   -0.05424253566568      2.36876889257363     -0.21915221462916
  H   -1.74324398792672      1.85602201835336     -0.33907605255790
  N   1.26133632912928     -1.45409571101290      0.71077165486630
  H   1.46426632743208     -1.27134751039964      1.68516227039582
  H   2.04412872538336     -1.96096550393745      0.32085963853933
