15
Coordinates from ORCA-job run
  C   -0.43380315614710      0.09268229244937      0.34733214847147
  C   0.76729733015349     -0.74465991136060     -0.08721232905020
  H   -0.38054551221931      0.30148170375629      1.41777103480143
  H   0.70507681487221     -0.89554186298057     -1.16700884353470
  H   0.70274117348013     -1.73472675431866      0.38700435461568
  N   -1.65905375344792     -0.75309737714227      0.19137868829542
  O   -1.91574815304319     -1.15122405011365     -0.94403644778478
  O   -2.31723469622499     -1.00491568656373      1.19963519481134
  C   -0.59124153793117      1.36683991146718     -0.45731938230557
  H   -0.73919494159628      1.12652828006620     -1.51141311102072
  H   0.31803462827962      1.95744623704502     -0.35049426906561
  H   -1.44398328181923      1.95086441936011     -0.10445124870007
  N   1.98851758548266     -0.00984036006195      0.22782185793336
  H   2.24566377973760     -0.16114831661652      1.19512535243404
  H   2.75347372042346     -0.34168852498621     -0.34413299990107
