15
Coordinates from ORCA-job run
  C   -0.45120913352902      0.14025660295552      0.38288186705051
  C   0.73625564811498     -0.78814300914325      0.13038054330476
  H   -0.41826809862425      0.49417660449795      1.41323807222079
  H   0.70115923072395     -1.59556676694185      0.86753458022433
  H   0.62080475669607     -1.23987753752541     -0.86314322654046
  N   -1.69438016330696     -0.68852541099455      0.29087288586460
  O   -2.28950950735820     -0.94315642695587      1.33711464467391
  O   -2.01632037916379     -1.09119618600232     -0.82665443719397
  C   -0.52709337496966      1.29044082827684     -0.59952578865049
  H   -1.41690585002984      1.89822590737622     -0.42302839394798
  H   0.35052507633936      1.92449038926717     -0.46575025848207
  H   -0.55858425459873      0.91901783871592     -1.62503691773443
  N   1.97263326679146     -0.03019068489982      0.30484769810894
  H   2.28803916095237      0.33736335621006     -0.58289280638404
  H   2.70485362196223     -0.62931550483660      0.66016153748561
