13
Coordinates from ORCA-job run
  C   1.07633779006588     -0.54095066203556      0.11840320301619
  C   -0.45707305783169     -0.50238764805578      0.02268499890733
  Cl  1.72745989790473     -1.96518401359529     -0.73196715425065
  H   -0.81659011951165     -1.46365438605368      0.40598753034533
  H   1.35447535471560     -0.65047170783105      1.16977013691862
  C   1.67555084050657      0.68353378445999     -0.40357363980732
  N   2.13107830710722      1.69079286114162     -0.80029059558741
  C   -0.88018015706106     -0.39103434842159     -1.37441216543110
  N   -1.24247515907256     -0.27381004901836     -2.48495060441590
  C   -1.03162649406069      0.64273038598527      0.86223915241445
  H   -0.70057175182707      1.61012569931472      0.48086954967175
  H   -2.12172722718470      0.61647625541207      0.83233701609180
  H   -0.71365822375058      0.54383382869765      1.90290257212690
