13
Coordinates from ORCA-job run
  C   1.10162506116345     -0.25817954472133     -0.38201992063487
  C   -0.42103239554809     -0.38901936695788     -0.17475682322200
  Cl  1.53373394087535      1.29524338967105     -1.14229412487475
  H   -0.57883789536686     -1.37498898966126      0.28093652357387
  H   1.44580047796707     -1.04015885327262     -1.06300030014532
  C   1.79349133709890     -0.40443589164197      0.89585161715489
  N   2.31653432922130     -0.54842499525978      1.93745674349449
  C   -1.08523732521810     -0.40136928745973     -1.47987657951827
  N   -1.62506847893647     -0.40607541600625     -2.52236899322290
  C   -1.00796100460866      0.68593588928432      0.74122413675889
  H   -0.89484594024088      1.67607164119645      0.30068451898444
  H   -2.07064156779627      0.49590091700196      0.89732305844556
  H   -0.50656053861077      0.66750050782704      1.71084014320598
