13
Coordinates from ORCA-job run
  C   1.10871149076135      0.07890693356348      0.11785272594310
  C   -0.36783516710116     -0.29734287912374     -0.11749395274028
  Cl  1.75375595401663     -0.79088168189135      1.53778754621712
  H   -0.41041165216952     -1.37980058799800     -0.28183251612227
  H   1.18253049866897      1.14665293107414      0.34084968389998
  C   1.93111559461999     -0.22663671986641     -1.04936919515887
  N   2.58291136296071     -0.47529023692364     -1.99423507909802
  C   -0.82046363472732      0.36894869022743     -1.34190247424046
  N   -1.19753378953707      0.92860043485316     -2.30303582966832
  C   -1.26899357111800      0.08964218069065      1.05774779133176
  H   -1.20492457055630      1.16247547199593      1.25223226040012
  H   -2.30619881494040     -0.15395068873903      0.82425391502611
  H   -0.97966370087787     -0.45232384786263      1.95714512421003
