13
Coordinates from ORCA-job run
  C   1.09009805124672     -0.50627679950347      0.14232452629377
  C   -0.44068585400048     -0.51768833386769      0.00817960020364
  Cl  1.80914411021880     -1.90240078691826     -0.69986222030869
  H   -0.77784524511951     -1.49289209903645      0.37626460789294
  H   1.34539420021426     -0.61375211751985      1.19969657584677
  C   1.66185462203585      0.74075966070550     -0.35656408961540
  N   2.09648973419593      1.76442300198187     -0.73443207269208
  C   -0.83247817720364     -0.40992235173640     -1.39835833024602
  N   -1.17158770431033     -0.29442829665930     -2.51631461726678
  C   -1.07415578110508      0.60206027185136      0.83966209148929
  H   -0.76590091244004      1.58240346991778      0.47243930474872
  H   -0.77968654318664      0.50699582830309      1.88754435808615
  H   -2.16164050054581      0.53971855248181      0.78142026556769
