13
Coordinates from ORCA-job run
  C   1.10767476972869      0.08616131121560      0.12393682660444
  C   -0.36406006817256     -0.29639186073935     -0.13157532086172
  Cl  1.75899606167645     -0.83326051024650      1.50912640715796
  H   -0.39369546977594     -1.37119669777220     -0.34251457143947
  H   1.16913251887996      1.14465223170753      0.39010272769561
  C   1.93595992277570     -0.16330715380487     -1.05229418285025
  N   2.59048748657618     -0.36951691641675     -2.00550411780025
  C   -0.82076323374038      0.41918891228873     -1.32630243431937
  N   -1.20083278542791      1.02138562824024     -2.26012891044850
  C   -1.27284910692844      0.02988853897991      1.05631952098844
  H   -1.22629525702449      1.09540934423875      1.29197950698076
  H   -0.97621338763966     -0.54175790959219      1.93484847502474
  H   -2.30554145092760     -0.22125491809889      0.81100607326762
