13
Coordinates from ORCA-job run
  C   1.11172401336623     -0.03065238754140      0.11939655445429
  C   -0.39071313291727     -0.24616556527718     -0.15329604992991
  Cl  1.67603594337612     -1.13451552947473      1.40467579843108
  H   -0.52326609271486     -1.28920446790876     -0.46193468321610
  H   1.27486137423869      0.98731850759253      0.48306837797500
  C   1.90806409400619     -0.24666893281279     -1.08516163397797
  N   2.53382190883817     -0.42699955332542     -2.06264982288958
  C   -0.77995944265737      0.61555811241501     -1.27295014375481
  N   -1.10338036098314      1.33275289146205     -2.14487977183025
  C   -1.26120233562785      0.05320229465663      1.06954118592271
  H   -2.31362231348724     -0.07972601816328      0.81550969510028
  H   -1.11644618250741      1.08435522973969      1.39920360114242
  H   -1.01491747293028     -0.62025458136236      1.88947689257286
