13
Coordinates from ORCA-job run
  C   1.08597766061522     -0.51683250187943      0.12350551292629
  C   -0.44579111736915     -0.51240856822331      0.00200878702871
  Cl  1.78559646164251     -1.90403816345030     -0.74946238457793
  H   -0.78825331544010     -1.49125751113046      0.35521840497742
  H   1.34909962099362     -0.64547382170489      1.17668240881252
  C   1.66577782376970      0.73375128910942     -0.35718270863867
  N   2.11110422528675      1.75918004377368     -0.71747528539587
  C   -0.84863654076487     -0.37823797111440     -1.39907392044934
  N   -1.19695413858992     -0.24805503445772     -2.51253914652865
  C   -1.06225481311494      0.59700030892663      0.85946720366808
  H   -0.74289970259169      1.58103362342744      0.51258235181339
  H   -0.76517278103302      0.47522815404732      1.90369899100036
  H   -2.15059338340409      0.55011015267601      0.80456978536367
