13
Coordinates from ORCA-job run
  C   1.11175143435581     -0.00668559382297      0.11621787553512
  C   -0.38753922935690     -0.26113380718630     -0.13921269384420
  Cl  1.69757800471756     -1.02676607267299      1.45944014471699
  H   -0.50417519657332     -1.32099574255710     -0.39134056261359
  H   1.25896407106013      1.03285603362840      0.42100876964641
  C   1.90883264521754     -0.27587595085514     -1.07726500275810
  N   2.53717957142231     -0.49914914506728     -2.04416638292630
  C   -0.79376539851612      0.53547337927849     -1.30027306486895
  N   -1.12867889555278      1.20509039716260     -2.20508058762143
  C   -1.25945012575990      0.08907346208512      1.06933783152169
  H   -1.12828754522436      1.13803365585431      1.34439816326315
  H   -2.31033194927370     -0.07170916369880      0.82521535185383
  H   -1.00207738651627     -0.53721145214833      1.92272015809536
