13
Coordinates from ORCA-job run
  C   1.06354297314152     -0.21747324544433     -0.49898963820384
  C   -0.37974492128508     -0.46383312943102     -0.01529061238347
  Cl  1.15372528202165      1.15027199464120     -1.63874527730769
  H   -0.32770704817281     -1.32885269421055      0.65834058559873
  H   1.42136328383312     -1.09506647454322     -1.04258732962710
  C   1.93966938151917      0.02111739755568      0.64509663116092
  N   2.61740726343510      0.19073352973356      1.58910129733212
  C   -1.21179903350415     -0.85165547865257     -1.15637533814502
  N   -1.88979762204217     -1.15895409664231     -2.06421400474028
  C   -0.98272940020068      0.72245999360179      0.73843765657646
  H   -0.35739139190711      0.97949246620540      1.59557807350154
  H   -1.07022395327981      1.59211156994958      0.08784823370223
  H   -1.97731481355875      0.46064816723679      1.10179972253542
