13
Coordinates from ORCA-job run
  C   1.10505198297016     -0.20967456746141     -0.40281912135668
  C   -0.39496763902147     -0.43327303108745     -0.12510112886212
  Cl  1.38981167116597      1.29552374623005     -1.31511620309736
  H   -0.46235964389468     -1.38524511156169      0.41701531087842
  H   1.48710572082546     -1.02283297061634     -1.02453851675920
  C   1.84796260464260     -0.18517696345315      0.85453855000454
  N   2.41413110708979     -0.19069272353007      1.88347822357882
  C   -1.10047342585314     -0.60738933373900     -1.39656519588012
  N   -1.67805353479971     -0.74551116570929     -2.40921946196271
  C   -1.03142552190478      0.67066057994950      0.72061324673588
  H   -2.07173569857104      0.41887393667639      0.93115104513736
  H   -0.50020429690833      0.77012647975096      1.66923895135764
  H   -1.00584332574084      1.62561112455149      0.19632430022552
