13
Coordinates from ORCA-job run
  C   1.11055601180354      0.02080496026030      0.12637299042608
  C   -0.37870956635279     -0.27027873981845     -0.14755332277293
  Cl  1.71709411780252     -1.02545906863790      1.44023057953423
  H   -0.46235886488732     -1.32769456391607     -0.42246451843129
  H   1.22396548009245      1.05340369724260      0.46702954232615
  C   1.92406656689855     -0.18345129983293     -1.06852637429082
  N   2.56440611849717     -0.35157788364910     -2.03877794701731
  C   -0.79982298162500      0.53627028795406     -1.29622384414760
  N   -1.15020403159222      1.21043736461075     -2.19181038179523
  C   -1.26851731650334      0.02886526635068      1.06159879414477
  H   -1.16812283556561      1.07465596476547      1.36078949851368
  H   -2.31305027468295     -0.15499186479150      0.80663889730844
  H   -0.99930242388501     -0.60898412053790      1.90269608620183
