13
Coordinates from ORCA-job run
  C   1.09802767586549     -0.48215787150078      0.16351302585337
  C   -0.43099372079787     -0.52467693778630      0.01574996463295
  Cl  1.85061379562404     -1.88210611160481     -0.64215058433423
  H   -0.75397280242793     -1.49773159240978      0.40186847956269
  H   1.34521036148788     -0.56257822765862      1.22517586327890
  C   1.65084279451405      0.76453487932702     -0.35720649935431
  N   2.06675443548377      1.78786866150543     -0.75648373476902
  C   -0.81129665398206     -0.45610320871568     -1.39637962879702
  N   -1.14116409133015     -0.37670552566093     -2.52022046319166
  C   -1.09243035394602      0.60092486244218      0.81690451563988
  H   -2.17808262772357      0.51492123568229      0.75411366435031
  H   -0.80212355094007      1.57870464804786      0.42880386500267
  H   -0.80238526182756      0.53610518833212      1.86831153212547
