14

C	-0.52332	-0.018831	-1.419593
C	0.0	0.0	0.0
Cl	0.042521	1.602848	-2.133117
H	1.08835	0.0	0.0
H	-0.357396	0.885039	0.525227
C	0.074146	-1.037213	-2.294133
N	0.479683	-1.786756	-3.102645
N	-1.94	-0.146624	-1.470701
H	-2.370628	0.56561	-0.893838
H	-2.282849	-0.068703	-2.421179
N	-0.4282	-1.164746	0.745756
O	-0.356848	-2.265026	0.184071
O	-0.717869	-1.005579	1.941326
H	2.564322	0.0	0.0
