14

C	-0.283708	0.138827	-1.494733
C	0.0	0.0	0.0
Cl	-0.383118	-1.695486	-2.098041
H	1.088662	0.0	0.0
H	-0.416574	-0.892626	0.451393
C	-1.613492	0.63651	-1.865007
N	-2.673984	1.036809	-2.174361
N	0.742762	0.850462	-2.086496
H	0.739922	0.852619	-3.095302
H	1.652831	0.631704	-1.654064
N	-0.446832	1.149201	0.790296
O	-0.555202	2.24872	0.241694
O	-0.613666	0.946456	1.996973
H	2.678359	0.0	0.0
