14

C	-0.285931	-0.179209	-1.483841
C	0.0	0.0	0.0
Cl	-2.004636	-0.795274	-1.805671
H	1.090359	0.0	0.0
H	-0.422887	0.913505	0.407881
C	-0.292287	1.163978	-2.100237
N	-0.244984	2.18837	-2.676044
N	0.668436	-1.051965	-2.0611
H	1.568758	-0.920511	-1.574031
H	0.765042	-0.903594	-3.056633
N	-0.448675	-1.103711	0.844171
O	-0.942922	-0.800902	1.938004
O	-0.245409	-2.255438	0.462708
H	2.638217	0.0	0.0
