14

C	-0.319649	0.007426	-1.505448
C	0.0	0.0	0.0
Cl	-0.171491	-1.645107	-2.196543
H	1.088881	0.0	0.0
H	-0.370739	0.940641	0.413032
C	-1.690082	0.461888	-1.788487
N	-2.759312	0.892234	-2.014622
N	0.624795	0.867997	-2.179823
H	1.549953	0.654242	-1.775052
H	0.408934	1.829724	-1.935353
N	-0.627559	-1.069622	0.780468
O	-1.702723	-0.806703	1.341574
O	-0.055176	-2.157487	0.843835
H	2.751635	0.0	0.0
