14

C	-0.285318	-0.095555	-1.492396
C	0.0	0.0	0.0
Cl	-1.985743	-0.77146	-1.844188
H	1.100861	0.0	0.0
H	-0.433173	0.880405	0.464611
C	-0.369862	1.282809	-2.015918
N	-0.382369	2.368976	-2.467361
N	0.7034	-0.88017	-2.129869
H	1.590512	-0.78586	-1.611124
H	0.8173	-0.638118	-3.104377
N	-0.424318	-1.162035	0.771922
O	-0.167135	-2.280556	0.32791
O	-0.946656	-0.944022	1.87294
H	2.626286	0.0	0.0
