14

C	-0.564457	0.215616	-1.401112
C	0.0	0.0	0.0
Cl	0.438593	1.386849	-2.331172
H	1.088342	0.0	0.0
H	-0.28571	-0.976025	0.392966
C	-0.474574	-1.074009	-2.105228
N	-0.457683	-2.121994	-2.635254
N	-1.945765	0.674256	-1.50859
H	-1.977854	1.557179	-1.006072
H	-2.525122	0.011526	-0.999933
N	-0.417397	0.983518	0.950087
O	-0.389985	0.655931	2.150556
O	-0.625939	2.153051	0.558139
H	2.460455	0.0	0.0
