14

C	-0.368838	-0.052273	-1.474537
C	0.0	0.0	0.0
Cl	0.218448	-1.562148	-2.246312
H	1.101198	0.0	0.0
H	-0.294816	0.970231	0.404021
C	-1.8172	0.042426	-1.707042
N	-2.972901	0.190036	-1.857832
N	0.311822	1.042974	-2.154108
H	-0.032796	1.914456	-1.758811
H	1.294806	0.956286	-1.873685
N	-0.583124	-1.001473	0.883556
O	-1.09757	-2.016199	0.402549
O	-0.479182	-0.776012	2.094305
H	2.626667	0.0	0.0
