14

C	-0.332635	-0.062362	-1.494793
C	0.0	0.0	0.0
Cl	-0.182304	-1.817662	-1.929964
H	1.088088	0.0	0.0
H	-0.408533	-0.812842	0.593134
C	-1.722409	0.31803	-1.79057
N	-2.835197	0.626716	-2.006687
N	0.577652	0.676901	-2.333342
H	0.402643	1.658237	-2.134318
H	1.512526	0.47702	-1.960051
N	-0.417525	1.2511	0.60896
O	-0.610196	1.252448	1.829323
O	-0.455387	2.269445	-0.100224
H	2.622658	0.0	0.0
