14

C	-0.296603	-0.047891	-1.496538
C	0.0	0.0	0.0
Cl	-0.110483	-1.823287	-2.058481
H	1.101862	0.0	0.0
H	-0.376941	0.942127	0.403521
C	-1.661235	0.310962	-1.906801
N	-2.723389	0.664193	-2.264344
N	0.647868	0.824463	-2.068969
H	1.583581	0.643364	-1.666162
H	0.654966	0.7835	-3.079396
N	-0.644827	-1.082452	0.768257
O	0.045865	-1.747252	1.534049
O	-1.861671	-1.219342	0.614654
H	2.791367	0.0	0.0
