17

C	0.0	0.0	0.0
C	-0.609734	-0.118065	-1.399192
Cl	1.78374	0.0	0.0
H	-1.730902	-0.142886	-1.126597
N	-0.506085	1.264517	0.472763
H	-1.538684	1.132907	0.44617
H	-0.246744	1.361327	1.449959
C	-0.412664	-1.181049	0.876475
H	-0.086974	-0.969913	1.900138
H	-1.505403	-1.238817	0.843276
H	0.036023	-2.121085	0.556173
N	-0.257274	-1.391024	-2.087012
O	-0.848229	-2.403038	-1.708481
O	0.587474	-1.363464	-2.984655
C	-0.290636	1.007765	-2.257113
N	-0.096264	1.90399	-2.991387
H	-2.970213	0.0	0.0
