13

C	0.0	0.0	0.0
C	-0.485576	-0.320352	-1.391228
Br	1.954944	0.0	0.0
H	-1.573706	-0.412489	-1.349271
H	-0.043047	-1.244492	-1.75366
H	-0.208135	0.509129	-2.042572
N	-0.538151	1.184312	0.504041
H	-1.556706	1.119083	0.368617
H	-0.34949	1.256997	1.496934
N	-0.285946	-1.225868	0.943625
O	-0.305796	-2.344217	0.447651
O	-0.420583	-0.966332	2.133491
Cl	-3.618206	0.0	0.0
