13

C	0.0	0.0	0.0
C	-0.472889	-0.216283	-1.42516
Br	1.938273	0.0	0.0
H	-0.031904	-1.108026	-1.865647
H	-0.191411	0.66008	-2.014307
H	-1.562828	-0.297282	-1.38986
N	-0.521148	1.121103	0.691258
H	-1.538366	0.970751	0.746828
H	-0.362424	1.943432	0.118928
N	-0.355412	-1.260789	0.827764
O	-0.709209	-1.103848	1.985908
O	-0.221835	-2.335717	0.253563
Cl	-3.615174	0.0	0.0
