13

C	0.0	0.0	0.0
C	-0.486679	-0.300847	-1.396311
Br	1.953546	0.0	0.0
H	-1.577942	-0.370499	-1.375572
H	-0.180392	0.523824	-2.041418
H	-0.061019	-1.232627	-1.758308
N	-0.539456	1.176679	0.519103
H	-1.559792	1.108429	0.394837
H	-0.335718	1.245199	1.509375
N	-0.285858	-1.237588	0.930833
O	-0.380251	-0.993626	2.127665
O	-0.349411	-2.347377	0.419993
Cl	-3.607885	0.0	0.0
