13

C	0.0	0.0	0.0
C	-0.472602	0.196852	-1.427034
Br	1.939207	0.0	0.0
H	-0.183346	1.200788	-1.747903
H	-0.037337	-0.538478	-2.100533
H	-1.56321	0.117515	-1.415708
N	-0.514716	0.886743	0.980818
H	-1.532254	0.727914	0.992749
H	-0.361163	1.834896	0.651996
N	-0.357239	-1.438664	0.440371
O	-0.731694	-1.607755	1.590172
O	-0.199696	-2.313806	-0.404201
Cl	-3.625861	0.0	0.0
