15
Coordinates from ORCA-job run
  C   0.77363310517433      0.04146186425019     -0.05670578162879
  C   -0.57912839883657     -0.04145486733947     -0.23658458761169
  N   1.32927873456591      0.09249431858467      1.28593293227181
  O   2.08400047030145     -0.82226193905084      1.61148342807536
  O   0.98539816789201      1.03217837705972      2.00584573632150
  N   1.75505733941159      0.08175088276999     -1.09883135885400
  O   2.91626408029772      0.33090886940130     -0.79012373074993
  O   1.36014281188186     -0.11039584544261     -2.25798542795510
  C   -1.49518593825888     -0.01909815220563      0.95583201269950
  H   -1.63731857561366      1.00879000226859      1.29268943907412
  H   -1.09035025795564     -0.58876153778285      1.79111227284778
  H   -2.46555424589419     -0.44250074282987      0.69063353569985
  N   -1.17687075819003     -0.07495365642335     -1.44147174057471
  H   -2.15535904155308     -0.29666036771540     -1.49045390043746
  H   -0.60300749322282     -0.19249720554444     -2.26237282917824
