15
Coordinates from ORCA-job run
  C   0.74631860774167      0.18024071973200      0.12526117497419
  C   -0.60557489586582      0.14141225728521     -0.07713324917758
  N   1.48725278724240     -1.05003755675217      0.35382360324740
  O   2.09097966867203     -1.14460968385842      1.42093233216454
  O   1.43898871114848     -1.91354830288353     -0.52442356172940
  N   1.56035604982529      1.35683364438894      0.09547450490040
  O   0.97641304798413      2.44971305238905      0.05132736055047
  O   2.77958627315175      1.21662014280459      0.08310300405778
  C   -1.32244540613315     -1.18031675883164     -0.11692161384605
  H   -2.38551640801524     -1.03294584270056      0.07941013021914
  H   -0.93333566064092     -1.87395740849067      0.62731317987091
  H   -1.19550185203990     -1.64445515150350     -1.09619866211204
  N   -1.37726140573223      1.23403446510009     -0.21582430232082
  H   -0.93394430344923      2.13737181750465     -0.28297892298879
  H   -2.32731521388924      1.12364460581596     -0.52316497781015
