15
Coordinates from ORCA-job run
  C   0.77633881455058      0.04259411147143     -0.00029366781978
  C   -0.55832886833516     -0.08736716576894     -0.27115619444943
  N   1.83965066222173     -0.11435954838285     -0.94631871163525
  O   1.52426461204266     -0.24658570618597     -2.13802308328445
  O   2.99120765006095     -0.14169332362804     -0.52317985368324
  N   1.21882670024467      0.37873215005547      1.34329776234030
  O   0.91108273945222     -0.39617459553795      2.25131367134356
  O   1.84702531675243      1.42741228835348      1.47689486483791
  C   -1.56444007397258      0.05288175898652      0.83773065917277
  H   -1.30191468101599      0.85726096528161      1.52367604738016
  H   -1.61219304501736     -0.87174357445856      1.41445909876364
  H   -2.55177329691722      0.26466448543817      0.42361860757325
  N   -1.05116814719751     -0.40030886297738     -1.48205349786627
  H   -2.04226321089030     -0.34790906208280     -1.63544855852950
  H   -0.42531517197911     -0.41840392056420     -2.27251714414367
