15
Coordinates from ORCA-job run
  C   0.77536052247359      0.00551019382315     -0.07421243103601
  C   -0.58506700645387      0.00107657854975     -0.22233241171959
  N   1.36570166914758      0.14325020861202      1.24729927506320
  O   1.07369723433080     -0.70692339220694      2.09096640846708
  O   2.09755399031937      1.11433909554472      1.43099335147451
  N   1.72874739448588     -0.13970841671104     -1.13089024163331
  O   1.29661007201689     -0.11019098822874     -2.29299790102935
  O   2.90539290042357     -0.31624708600384     -0.82944047401343
  C   -1.47304098726498      0.07867608266486      0.98943141707814
  H   -1.08179923360171      0.77184862280292      1.73297089495202
  H   -2.46954121829291      0.41675146742217      0.70071758404814
  H   -1.54724046368491     -0.90244204093005      1.46063543145710
  N   -1.21033786358347     -0.06040877246315     -1.40879453727490
  H   -2.21048291245397     -0.14235482502716     -1.44068447954270
  H   -0.66655409786188     -0.15217672784866     -2.25266188629088
