15
Coordinates from ORCA-job run
  C   0.76114074493871      0.14649704074803      0.06803603003241
  C   -0.59612733983278      0.16491062351110     -0.10202216715624
  N   1.60211339552823      1.29798843319334      0.18536541487483
  O   2.76560766644276      1.13158826334777      0.53909775826940
  O   1.08789664682106      2.40204142765677     -0.04803394406154
  N   1.46644741572623     -1.12026864742258      0.18004554926819
  O   2.32470088645111     -1.35551093045114     -0.66865969363236
  O   1.13982311101979     -1.87278204603710      1.10025511281637
  C   -1.36809641597167     -1.12600446936307     -0.11576044095828
  H   -2.33605027637212     -0.97708983596397     -0.59672201784665
  H   -0.83668950212161     -1.90727985766461     -0.65790909609898
  H   -1.52156348646014     -1.48034568749724      0.90459606527864
  N   -1.31487968377651      1.28453857480746     -0.28854897316307
  H   -0.85642393073554      2.18020984323534     -0.22298651889668
  H   -2.31789923165750      1.23450726789990     -0.27675307872605
