15
Coordinates from ORCA-job run
  C   0.68951735546761      0.21721987161973      0.29417529183620
  C   -0.55480528552230      0.11149255749861     -0.26624387294703
  N   1.54863606795638      1.36506982485798      0.19994019075213
  O   2.72671644359389      1.23017617730188      0.51621060467148
  O   1.05943991024665      2.40637132661485     -0.26071957667517
  N   1.28022095242092     -0.91311554846120      0.99255592289772
  O   1.57820731526538     -0.73797627879634      2.17285452951517
  O   1.38859724141516     -1.97287430670636      0.37232467304802
  C   -1.30389097146732     -1.19159786768513     -0.20091257616366
  H   -1.17577211947894     -1.68094614939048      0.76359939477295
  H   -2.36896951940653     -1.01363191743940     -0.35540542206467
  H   -0.93402066964199     -1.88033468117279     -0.96248434243419
  N   -1.20770525761984      1.13392924597118     -0.84946080145465
  H   -2.01734089055669      0.92914895060576     -1.40940635578007
  H   -0.70983057267237      1.99706879518170     -1.00702765997422
