15
Coordinates from ORCA-job run
  C   0.74841694336469      0.15440582813979      0.13721444145555
  C   -0.58171670747652      0.15229468035467     -0.17888623929817
  N   1.63401134959713      1.27349743915860      0.02080307393030
  O   2.83545509284333      1.07905835430395      0.17771482112264
  O   1.12943284322174      2.36966807067327     -0.26292575442052
  N   1.37963978574836     -1.05334902501244      0.64447835827000
  O   1.86394125628497     -0.99647809718314      1.77343354906576
  O   1.36247407186872     -2.04905907055455     -0.08199323138652
  C   -1.37705806418721     -1.11815918089454     -0.05803488631419
  H   -2.44226641791493     -0.88923951570948      0.00601569661169
  H   -1.20231231140985     -1.74671963377065     -0.93248309091130
  H   -1.09652452918902     -1.69187151663758      0.82415180783674
  N   -1.23930443601940      1.21803025205093     -0.67089213995230
  H   -2.24184579123843      1.18546457560326     -0.72411161897317
  H   -0.77334308549360      2.11245683947791     -0.67448478703651
