15
Coordinates from ORCA-job run
  C   0.77436837299062     -0.03382375120834     -0.06154540887809
  C   -0.58150738884578      0.01528565092816     -0.23414878879201
  N   1.35182523736134      0.18525695182197      1.25496796282153
  O   2.12930204865170      1.13087279131148      1.37076645998524
  O   1.00605774217592     -0.57652790463050      2.16033076911222
  N   1.73492131140908     -0.32021702379947     -1.08296843639536
  O   2.89547938512805     -0.53042837675137     -0.74346099566378
  O   1.32270357305304     -0.37065612722585     -2.25131250103508
  C   -1.48105283725447      0.23955605071667      0.95053459407496
  H   -1.60431600206034     -0.69029623269258      1.50766788046348
  H   -1.06791866415232      0.97971357023888      1.63482199740930
  H   -2.45737991736656      0.59371093561884      0.61630695107472
  N   -1.19242217893825     -0.09262715882231     -1.42696327747005
  H   -0.64061007326601     -0.32533531622684     -2.23835232583002
  H   -2.19045060888603     -0.20348405927873     -1.45564488087706
