15
Coordinates from ORCA-job run
  C   0.93048565923115      0.04281344201399     -0.03578460192737
  C   -0.53054109115575      0.37714616187298      0.06577964254616
  N   1.74219628259725     -0.90633920321073     -0.69793194268169
  O   1.13068312897974     -1.65914509356758     -1.46203355005748
  O   2.95129118252233     -0.90009110857683     -0.47357288243040
  N   1.26549034142018      0.91652548348204      0.91243398103734
  O   2.18129463351918      1.32940861347162      1.55951271734201
  O   -0.12302696966559      1.38184236796839      1.07430554241400
  C   -1.37990072087984     -0.70320075006233      0.68952210752084
  H   -1.49945984684045     -1.53418634600627     -0.01015127623708
  H   -0.90395923904030     -1.07526265176503      1.59722068705460
  H   -2.35903384515932     -0.29022028977404      0.93659345532921
  N   -1.19759005986098      1.02682949960955     -1.00336104732348
  H   -0.57747627966148      1.63405744586107     -1.52339406133253
  H   -1.63045317600613      0.35982242868318     -1.62813877125413
