15
Coordinates from ORCA-job run
  C   0.74449264862158      0.15093536979815      0.16323803098950
  C   -0.58172818886120      0.15954520948961     -0.16912519406960
  N   1.59397567360580      1.30101197026579      0.24237209862081
  O   1.12979968266076      2.37840371385666     -0.15813606307286
  O   2.71315037495236      1.16120567749289      0.72597101502939
  N   1.41177322704545     -1.10326209418286      0.47329057896408
  O   2.35143361647457     -1.42748057481969     -0.25068964431253
  O   0.97346975632924     -1.75915231011235      1.42048408415592
  C   -1.36702461353528     -1.12275948313205     -0.15397998523978
  H   -0.78393299843535     -1.96327366836002     -0.52723076149370
  H   -1.67028676801859     -1.35685213187464      0.86758520237780
  H   -2.25932757713279     -1.02213848214697     -0.77443841531111
  N   -1.27781992299547      1.27512148932604     -0.45322706531423
  H   -2.20192117282266      1.18583342531898     -0.83666687519308
  H   -0.77605373788840      2.14186188908045     -0.57144700613062
