15
Coordinates from ORCA-job run
  C   0.75722216655009      0.15550394896587      0.08343708802342
  C   -0.60263822904446      0.16211412972304     -0.05850473075900
  N   1.61502835948636      1.29363266113303     -0.05179496501528
  O   2.82567780451199      1.10101375967233     -0.11120783566061
  O   1.07350823873943      2.40593667987534     -0.13253646634822
  N   1.45947321924546     -1.08978126205415      0.34966456962641
  O   1.33495804072755     -1.99966174919960     -0.47248530449175
  O   2.11043910449805     -1.14757583559829      1.39134466740700
  C   -1.37244532574747     -1.12843097026599      0.01078877678117
  H   -2.41906545815583     -0.92474851996667      0.24185319314986
  H   -0.97824850974265     -1.79236494853752      0.77911787926288
  H   -1.30712040891599     -1.65552408463863     -0.94230265740943
  N   -1.33740425885248      1.27769474724010     -0.22067608727414
  H   -0.86040614341695      2.15412963965001     -0.36775658553133
  H   -2.29897859988310      1.18706180400114     -0.49794154176100
