15
Coordinates from ORCA-job run
  C   0.71391878802175      0.17463205182307      0.23841006442373
  C   -0.58355600861980      0.15400226621854     -0.18431407308021
  N   1.56981041656658      1.31746142361811      0.27643575730836
  O   1.11736663475643      2.38497234206650     -0.16138616827868
  O   2.68641448065683      1.17992824480120      0.77006355928463
  N   1.37377066834920     -1.05031934572687      0.67116390532313
  O   2.16593151252038     -1.55753066036421     -0.12214213245473
  O   1.07120906954698     -1.50167096732912      1.77670928682713
  C   -1.34159575839378     -1.14440941324733     -0.20402576596685
  H   -1.15402128407583     -1.66925275448605     -1.14423925072005
  H   -2.41256051933795     -0.95215277246091     -0.11812755549334
  H   -1.04871447353954     -1.79051680578910      0.62050115601205
  N   -1.25255005818315      1.23714370408594     -0.62085725774177
  H   -0.75104262348419      2.10109523132153     -0.75490787573029
  H   -2.15538084478391      1.11761745546870     -1.04428364971313
