15
Coordinates from ORCA-job run
  C   0.75406910050659      0.15538671359794      0.11055745835816
  C   -0.60137646429082      0.16218340408620     -0.07007254854279
  N   1.60950329418934      1.30066104551800      0.04494487022149
  O   1.06517370210075      2.41335605118132     -0.00851958048698
  O   2.82243499315026      1.11534447011343      0.01360246621274
  N   1.45409896247667     -1.09713939336605      0.34824108843134
  O   2.07198518930626     -1.19544484667276      1.40680047116875
  O   1.36052394186949     -1.97234053625921     -0.51464178224120
  C   -1.36544648119720     -1.13351561048644     -0.07333833182640
  H   -0.99042551091260     -1.82455391437366      0.68059648387061
  H   -1.26839931491273     -1.62189366396576     -1.04417118048665
  H   -2.41987294718100     -0.94488868977516      0.13396231685529
  N   -1.33550549473866      1.27950622070867     -0.21606104356696
  H   -2.29416901904343      1.19766027375197     -0.50519825828056
  H   -0.86259395132291      2.16567847594149     -0.30570242968682
