15
Coordinates from ORCA-job run
  C   0.69637055372113      0.11863465925593      0.32855360311306
  C   -0.56353447444565      0.08316446896475     -0.19716595976396
  N   1.46899604170536      1.35634885104614      0.29947318104341
  O   1.94091301325559      1.72896850319478      1.36933942201224
  O   1.59166358616954      1.93497753223845     -0.78330387875724
  N   1.46381998915641     -1.02973087061922      0.74444149390043
  O   2.68336984238524     -0.88320945223214      0.78562582354624
  O   0.87426842924373     -2.09978784961987      0.88720341072622
  C   -1.47035900647649     -1.10966796844803     -0.08575561169832
  H   -2.48992735172956     -0.82304191592876     -0.35147577493670
  H   -1.13809974634412     -1.89486174096169     -0.76894691914898
  H   -1.46363203082074     -1.53225601285914      0.91436523649903
  N   -1.11067340643549      1.19639906322463     -0.75731715103320
  H   -1.99666329947126      1.08051011081131     -1.21888582045300
  H   -0.48551213991370      1.87455262193286     -1.16615105504924
