15
Coordinates from ORCA-job run
  C   0.76624718469608      0.10690455352113     -0.05243028263616
  C   -0.59812011890146      0.18917180250262     -0.03239863020537
  N   1.66368728840887      1.17132112795693     -0.38757617752469
  O   1.17461798317773      2.29985562129710     -0.54074548816960
  O   2.85203925212649      0.90095024906192     -0.53235139115838
  N   1.42744830241681     -1.14301697938266      0.28686914759052
  O   1.17244330369972     -2.12679357885310     -0.41052105823336
  O   2.17629831425660     -1.12899496943104      1.26225961381108
  C   -1.41574691284885     -1.03222920488142      0.28503047549570
  H   -1.48967099852564     -1.66738953154326     -0.59880371498161
  H   -2.42004457450649     -0.74092824726675      0.59737087388925
  H   -0.96772088318135     -1.62481757527857      1.08162882512462
  N   -1.28900071816151      1.29965144120473     -0.35086459398925
  H   -2.27149895882203      1.33120998214285     -0.14381976420864
  H   -0.78197846383498      2.16410530894952     -0.46464783480412
