15
Coordinates from ORCA-job run
  C   0.75106565915902      0.15749431199004      0.12089573891556
  C   -0.60079626487244      0.16064109760289     -0.08444892200467
  N   1.60657968122335      1.30324535478712      0.06148576913299
  O   2.82002099533653      1.11906331517544      0.05931119792561
  O   1.06272218011573      2.41460851554244     -0.01769164547525
  N   1.44715644592837     -1.09022638447629      0.39297312480519
  O   2.04155982068117     -1.17162159365053      1.46620078293136
  O   1.37333950150289     -1.97866983248974     -0.45815227528493
  C   -1.36260596997850     -1.13614626280615     -0.08856410682439
  H   -1.23795036891633     -1.64001434093727     -1.04820074785034
  H   -1.00669547643990     -1.81482560891049      0.68576420958025
  H   -2.42246070541363     -0.94679856411751      0.08792644466233
  N   -1.33318058014858      1.27603960032044     -0.25461516689646
  H   -2.28257894059188      1.18878312327955     -0.57171992750950
  H   -0.85617597758580      2.15942726869006     -0.35116447610777
