15
Coordinates from ORCA-job run
  C   0.75194114054061      0.18392849525890      0.06307053726431
  C   -0.60167945635838      0.12892113583632     -0.12023500837481
  N   1.48746672695691     -1.01451074278678      0.43296792689125
  O   2.34931918419064     -1.40358428167140     -0.35328831514622
  O   1.17849302423304     -1.56438954591687      1.49201110298501
  N   1.56817135277006      1.35156460625936     -0.07944564551298
  O   1.02806255537652      2.36908550665911     -0.53720929956916
  O   2.73821588067609      1.28737478063102      0.28497801347790
  C   -1.33755832660743     -1.16018294097926      0.12158845784600
  H   -2.30034000464694     -1.14387657180609     -0.39215474309819
  H   -1.50840966793073     -1.29269583950813      1.19089279881012
  H   -0.77500806537143     -2.02242837756159     -0.23378310117007
  N   -1.35973731684451      1.19070649977049     -0.44748727494542
  H   -2.31760673515264      1.04194908516859     -0.71050673677692
  H   -0.90233029183181      2.05013819064633     -0.71039871268081
