15
Coordinates from ORCA-job run
  C   0.75132159817924      0.16153921156176      0.08254733809039
  C   -0.60790609324430      0.15721062754699     -0.03119397035408
  N   1.48946343834527     -1.07965561523466      0.28118171222803
  O   1.45733666053487     -1.58807235818100      1.40241292014024
  O   2.08848489523854     -1.52488513236518     -0.69684187352284
  N   1.60212306471649      1.30525786169851     -0.03226117794080
  O   1.06865176800584      2.39011711486819     -0.30277109887215
  O   2.80419934730425      1.14507406999393      0.16336473475898
  C   -1.37034159020377     -1.13460678468749      0.05883859168916
  H   -1.57960835602835     -1.50617193364624     -0.94831217648581
  H   -0.82368310421516     -1.89791210215844      0.60625000498712
  H   -2.31967678090121     -0.96628698454326      0.57104685759992
  N   -1.35513037708236      1.26390182996546     -0.22065488782648
  H   -2.31929559530159      1.14929406456124     -0.48080954448380
  H   -0.88493887534776      2.12519613062020     -0.45279743000786
