15
Coordinates from ORCA-job run
  C   0.74430841675061      0.15417646715615      0.15518601893306
  C   -0.57936582761031      0.15424246192790     -0.18580226335078
  N   1.62751228844153      1.27893825539155      0.08097506032130
  O   2.82725893126590      1.08398390049319      0.24973177900337
  O   1.12269365457194      2.38077562148807     -0.17894043680732
  N   1.37316144219437     -1.06367188780972      0.64126222169313
  O   1.83865418963469     -1.03313413192998      1.77913663429822
  O   1.37321638330121     -2.04046299768100     -0.11048434172486
  C   -1.37087209905115     -1.12213150042512     -0.11158709939674
  H   -1.10597640689302     -1.71449240274506      0.76319444974834
  H   -2.43820628741389     -0.89923039347103     -0.06464311500874
  H   -1.17445747368774     -1.72977669358178     -0.99612030044129
  N   -1.23238573048708      1.22960983395142     -0.66446098796526
  H   -2.23450709068301      1.19636832532173     -0.72619067994801
  H   -0.77103439033406      2.12580514191369     -0.62925693935441
