15
Coordinates from ORCA-job run
  C   0.76058690381731      0.14866463637319      0.06529435264963
  C   -0.60185873530879      0.16733828477372     -0.05209942681647
  N   1.62656630887180      1.27728068205218     -0.08916856001629
  O   2.83487835487884      1.07362896582939     -0.16006445504790
  O   1.09415067614149      2.39385128121351     -0.17411633217772
  N   1.45412258592883     -1.10061938140423      0.33557254300319
  O   1.31292811383228     -2.01591296787996     -0.47791408609390
  O   2.11433360815386     -1.15662426957289      1.37148870465260
  C   -1.38082535193395     -1.11609333828257      0.04021853996532
  H   -1.32928352528982     -1.65309064090203     -0.90811814349896
  H   -2.42371595950124     -0.90310845463658      0.27983343255653
  H   -0.98343147511968     -1.77434682014393      0.81186210284614
  N   -1.32701413132771      1.28689552258958     -0.22028711429701
  H   -0.84750223858575      2.16128557968855     -0.37009662108157
  H   -2.30093513455746      1.20785092030207     -0.45340493664357
