17
Coordinates from ORCA-job run
  C   -0.68152393370776      0.37589052189835      0.02850959540032
  C   0.84392627466018      0.33983607441396      0.09937337667218
  F   -1.05021626234453      1.60482127101240     -0.48291934976261
  H   1.13024653458627      1.16653516002103      0.76108538020729
  N   -1.18361234122125      0.37781797497241      1.46546466666487
  O   -1.89848296453958     -0.54701008925094      1.83410336061777
  O   -0.82277190598742      1.32961251085287      2.15128434617372
  C   -1.32446212161231     -0.71711449120913     -0.77035994822905
  H   -0.92748022316403     -0.67752781922849     -1.78396287973080
  H   -1.11197399139346     -1.68745887092676     -0.32689678517876
  H   -2.40458525220765     -0.57272013151039     -0.78761150332094
  N   1.35486322167443      0.47001078852225     -1.26177353934758
  H   2.36677273951252      0.51881467146995     -1.22669596604488
  H   1.02223080334003      1.33681015794073     -1.67081120980196
  N   1.23764101562174     -0.89759906836940      0.72935573742528
  H   2.11682595759537     -0.79952514310529      1.21731360237760
  H   1.33360244918744     -1.61919351750354      0.02454111587755
