17
Coordinates from ORCA-job run
  C   -0.64492822997359      0.12092598919930     -0.23636262358621
  C   0.82386070741878     -0.13004518543256      0.12104436731421
  F   -0.71381548884172      0.66340389355968     -1.48352203857694
  H   0.83695436471428     -0.74595174486651      1.02839286216775
  N   -1.19367057083416      1.16051143819400      0.72335039861983
  O   -0.97343296013187      0.93273721441925      1.91310184323030
  O   -1.82534780941409      2.10206275374568      0.27022530798463
  C   -1.52715760403318     -1.09752697651262     -0.16124228987662
  H   -1.11143198806323     -1.85616525909057     -0.82301145529715
  H   -2.53436537502833     -0.83411024864864     -0.48967822044029
  H   -1.56492488002136     -1.47900340386191      0.85924726223988
  N   1.49713149582182      1.15703182641155      0.28353555532217
  H   1.30140982089493      1.54848208180419      1.19815575402834
  H   2.49716551892038      1.01325914465892      0.22069257435537
  N   1.37092564995361     -0.91772811097966     -0.95814405746589
  H   2.26481364405846     -1.31151235180988     -0.69571506989517
  H   1.49581370455928     -0.32437106079023     -1.77007017012421
