17
Coordinates from ORCA-job run
  C   -0.64221583867652      0.14378743816867     -0.13988064378709
  C   0.82287193333714     -0.11345228048175      0.20035915623475
  F   -0.67347125323146      0.90695623119543     -1.28280392134225
  H   0.84171822521047     -0.69090943572447      1.12713670542815
  N   -1.21659144189726      0.99397321656120      0.97770442978743
  O   -1.23262553823841      0.44784449644412      2.07608300680375
  O   -1.62205107904900      2.11412304127024      0.70984185749405
  C   -1.50891671480269     -1.07173807153208     -0.32060175775721
  H   -1.10493159851484     -1.66916491721692     -1.13534649269232
  H   -2.52724039403019     -0.75748578269203     -0.55866907812427
  H   -1.51770059081606     -1.66381843317916      0.59341938168668
  N   1.43142805487482      1.17567692897410      0.47528350704782
  H   2.37705117067351      1.06163080447725      0.81580286553476
  H   1.45332967479352      1.74436592302661     -0.36283129248004
  N   1.37150545104485     -0.94953583881021     -0.85874755962235
  H   1.44828899546341     -0.40844938248978     -1.71281003238907
  H   2.29955094385871     -1.26380393799123     -0.60394013182279
