17
Coordinates from ORCA-job run
  C   -0.65174810747170      0.32482593350635      0.01339352623023
  C   0.88681884297964      0.45323116680282      0.04664455849105
  F   -1.13776790168776      1.42905429201293     -0.64132504986909
  H   1.11061906389565      1.29807023684795      0.71705227996797
  N   -1.21449952633908      0.41571042236922      1.42493291612312
  O   -0.60385686183934     -0.19801391395362      2.29912540422873
  O   -2.24555138016947      1.05396196889333      1.58384766698710
  C   -1.19478400323509     -0.92308907897051     -0.62758855323183
  H   -0.74500920301727     -1.02212529548910     -1.61546230250839
  H   -0.96198016332632     -1.80124839741864     -0.02503779293534
  H   -2.27814493256284     -0.83133059972796     -0.72308807127134
  N   1.29574231311521      0.66523237723350     -1.33162227094294
  H   0.96532763468324      1.55823043642871     -1.67259678693136
  H   2.30850608700963      0.66196591996811     -1.34793127521092
  N   1.63335854281386     -0.68582286715181      0.51908690013203
  H   1.46397048302147     -1.48041912018990     -0.08590943032452
  H   1.37099911213017     -0.91723348116138      1.46647828106550
