15
Coordinates from ORCA-job run
  C   -0.44672840318340      0.37161573245638      0.34604492289709
  C   0.56046050444648     -0.65183079286743      0.83343556578735
  Br  -1.48520529446369      0.88223313461769      1.91877796570770
  H   0.05679279275318     -1.50809531536820      1.27854356156503
  H   1.24692531726454     -0.20692193815727      1.55293645081166
  N   0.28488163818420      1.64564499616169     -0.07932895163016
  O   1.27373294707575      1.95374686543980      0.57256985885914
  O   -0.19784491040434      2.27384519683234     -1.01129670261735
  C   -1.37358368841166     -0.11153981733394     -0.74332397155950
  H   -2.12904306772729      0.63978424113399     -0.96192914574846
  H   -0.80622422784115     -0.30786564651321     -1.65321367846610
  H   -1.86791368716162     -1.02607055672870     -0.41014090980722
  N   1.40716779947861     -1.18787044494953     -0.28032907523401
  O   1.86099787225573     -2.31514658583478     -0.12141239781359
  O   1.61558440773467     -0.44952906888885     -1.24033349275159
