15
Coordinates from ORCA-job run
  C   -0.29653445052990      0.38334720725150      0.25644650041738
  C   1.02884980249760     -0.37023337068703      0.31438990307082
  Br  -1.29218260559806      0.11173858735029      1.90401009943859
  H   1.62129552882119     -0.13059659402827     -0.56927398713080
  H   1.57675855030314     -0.13913407472857      1.22246582998083
  N   0.05291494980846      1.87901103753211      0.22829811295181
  O   1.19858920465108      2.19191285627734      0.53911431962263
  O   -0.84265242298217      2.64736633797917     -0.09129911014789
  C   -1.16445826481549      0.07176081675063     -0.94050533159593
  H   -1.47516047278306     -0.97090382974468     -0.92069289070755
  H   -2.04349110581563      0.71246750001353     -0.93107220565598
  H   -0.59800737917432      0.24846231580377     -1.85898100494965
  N   0.80046698624559     -1.84392696597686      0.29138963525193
  O   0.86578094820952     -2.43890611917133      1.36364215853452
  O   0.57083073116205     -2.35136570462160     -0.80593202908071
