15
Coordinates from ORCA-job run
  C   -0.44176287034595      0.36695554579545      0.35689211772158
  C   0.56116686792803     -0.67424652645392      0.81478768217587
  Br  -1.46669795337284      0.84857138115457      1.94777734770409
  H   0.05389166205334     -1.53685841912730      1.24321771879792
  H   1.25479237407599     -0.25067388032772      1.54027954955133
  N   0.29585462935824      1.64481748864597     -0.04460446029951
  O   1.29005817182747      1.93194123218763      0.60879969442948
  O   -0.18669176547431      2.29588127783076     -0.96081065149409
  C   -1.37916418028840     -0.08549445830222     -0.73672164080088
  H   -1.87774548307225     -1.00369560144758     -0.42043467634280
  H   -2.13081273624941      0.67555537267534     -0.93381485073077
  H   -0.81899824520073     -0.26545622088698     -1.65441645266472
  N   1.39766120077499     -1.19076827212542     -0.31583937067799
  O   1.84598741130078     -2.32374645120231     -0.18432502432676
  O   1.60446091668506     -0.43278246841627     -1.26078698304274
