15
Coordinates from ORCA-job run
  C   -0.41229453209106      0.26013603769194      0.14447708759108
  C   0.44645776076110     -0.97635494968008     -0.02957121326190
  Br  -1.19555866686010      0.27846736067278      1.90831139621887
  H   -0.16624959616129     -1.87481426919571      0.01343327113251
  H   0.98068380706276     -0.91896859587563     -0.97953119153779
  N   0.44624071655009      1.51345304629898     -0.08026730168054
  O   0.35418995976023      2.45484383798754      0.68659994224100
  O   1.11411468393068      1.46638331565075     -1.10863810815973
  C   -1.50767649462166      0.30520669177875     -0.90963525354808
  H   -2.17524032715770     -0.54848381269554     -0.78943436385857
  H   -2.09077050336808      1.22069196793294     -0.79796664940528
  H   -1.05844198622054      0.28381182302572     -1.90465836805418
  N   1.48868817279040     -1.11792764866534      1.03035652057910
  O   1.70427337653798     -2.25254534163031      1.44292595818028
  O   2.07158362908719     -0.09389946329680      1.37259827356322
