15
Coordinates from ORCA-job run
  C   -0.38050716323602      0.33461992775784      0.19747780735355
  C   0.84343099684460     -0.49078898416119      0.58245940118542
  Br  -1.92011050000850     -0.23961453296372      1.23545700140463
  H   1.00981763425902     -0.47442082515139      1.65499794474605
  H   1.71715904608241     -0.11754646908543      0.04727770556186
  N   -0.09483025052512      1.77831559082202      0.63782304979626
  O   -0.87065976197104      2.63554925004249      0.24150934977402
  O   0.88591188952485      1.96370946039625      1.35293580153266
  C   -0.71495217071464      0.35181303816317     -1.27652689218797
  H   -1.55391965386382      1.02205574223936     -1.45166471786462
  H   0.15258126192467      0.70233151459316     -1.84284037864264
  H   -0.97001534781696     -0.64891158254157     -1.61870867722892
  N   0.67079466608403     -1.91712493259206      0.18108106656522
  O   0.83274634868825     -2.18083871503823     -1.00989162364556
  O   0.39355300472826     -2.72014848248069      1.06761316165004
