15
Coordinates from ORCA-job run
  C   -0.37666157671500      0.33627789924458      0.20143981192125
  C   0.85242087358276     -0.48798118434539      0.57156230390899
  Br  -1.89933727168287     -0.22905515031056      1.26900601538119
  H   1.03678184209971     -0.46384781613668      1.64100520247275
  H   1.71782305953099     -0.11961704243949      0.01966028287837
  N   -0.08240629097523      1.78269470978130      0.62735684528691
  O   0.91106263539888      1.97217990678259      1.32358341016878
  O   -0.86461710761988      2.63792805164097      0.23954551245487
  C   -0.73610273477035      0.34434596974961     -1.26679876730604
  H   -1.57631054153195      1.01553456921558     -1.43210433362891
  H   -0.99928683102234     -0.65812188037926     -1.59749173402974
  H   0.12246557592228      0.68878380217777     -1.85022373370068
  N   0.67155561269995     -1.91682852191193      0.18308376989876
  O   0.40979132714540     -2.71341795280591      1.08006099876430
  O   0.81182142793766     -2.18887536026319     -1.00868558447080
