15
Coordinates from ORCA-job run
  C   -0.49774195267964      0.36198609597026      0.34814415598806
  C   0.50029727179354     -0.67317629312249      0.86700652032071
  Br  -1.68110111764337      0.72318143581908      1.84377644924026
  H   -0.05441709762765     -1.54129601125289      1.22330649770716
  H   1.10179386693973     -0.25156003833206      1.67088378683600
  N   0.27481388747046      1.63416728132722     -0.01176391348372
  O   1.19039513349777      1.42409744058335     -0.80411528469628
  O   -0.06435689257129      2.71600645189209      0.43934764830691
  C   -1.31202887763727     -0.02269804564030     -0.87117756608224
  H   -0.65412527115418     -0.18234782322420     -1.72379411952228
  H   -2.02100314398125      0.77670892413964     -1.09393960566527
  H   -1.86344462287263     -0.94211553499396     -0.67455832168856
  N   1.45814185693177     -1.19661573759628     -0.15876267631764
  O   0.97232420137101     -1.83872112439521     -1.08605523115793
  O   2.65045275816301     -0.98661702117424      0.03270166021481
