17

C	-0.427251	-0.019972	-1.447335
C	0.0	0.0	0.0
Cl	-0.0868	1.569918	-2.20318
H	1.093965	0.0	0.0
H	-0.363456	0.921342	0.460497
C	0.255587	-1.095958	-2.256515
H	-0.019102	-2.083377	-1.884449
H	-0.017612	-1.030441	-3.309693
H	1.331956	-0.947219	-2.120118
N	-1.954331	-0.175431	-1.504525
O	-2.413395	-1.175888	-2.058564
O	-2.627221	0.672955	-0.925027
C	-0.485245	-1.213008	0.786209
H	-1.576328	-1.280488	0.847349
H	-0.092042	-1.137304	1.802994
H	-0.097757	-2.144194	0.368667
H	2.958053	0.0	0.0
