17

C	-0.398059	0.034344	-1.458244
C	0.0	0.0	0.0
Cl	-2.159847	0.42798	-1.675953
H	1.093574	0.0	0.0
H	-0.299154	0.973464	0.405107
C	0.439642	1.035226	-2.217288
H	0.232091	1.002153	-3.287813
H	0.207193	2.031292	-1.836278
H	1.493381	0.818152	-2.011181
N	-0.215703	-1.354501	-2.071351
O	-1.031449	-2.224023	-1.776004
O	0.767368	-1.523433	-2.78716
C	-0.55426	-1.12362	0.858014
H	-0.122778	-2.084502	0.575587
H	-1.642654	-1.203928	0.79917
H	-0.269966	-0.934503	1.896341
H	2.94142	0.0	0.0
