17

C	-0.396863	-0.03458	-1.460379
C	0.0	0.0	0.0
Cl	-0.176119	1.585459	-2.191975
H	1.093896	0.0	0.0
H	-0.375131	0.920902	0.452064
C	0.400599	-1.034368	-2.25968
H	1.454364	-0.784552	-2.099983
H	0.223946	-2.043324	-1.889121
H	0.139329	-0.995962	-3.317923
N	-1.898908	-0.321122	-1.548598
O	-2.249432	-1.387104	-2.055737
O	-2.660161	0.486521	-1.025607
C	-0.488913	-1.212934	0.784109
H	-0.0565	-1.16795	1.786678
H	-1.579274	-1.246385	0.881769
H	-0.149598	-2.149285	0.336253
H	2.960587	0.0	0.0
