18

C	-0.435799	0.01649	-1.442052
C	0.0	0.0	0.0
Cl	0.454058	1.193213	-2.373345
H	1.095725	0.0	0.0
N	-0.243768	-1.371574	-2.056693
O	0.879248	-1.672155	-2.425727
O	-1.231796	-2.104847	-2.045272
N	-1.939918	0.283294	-1.661437
O	-2.312819	0.50751	-2.806145
O	-2.665981	0.210538	-0.676627
C	-0.411257	-1.23672	0.786379
H	-0.004599	-2.147075	0.339791
H	0.058234	-1.14163	1.769056
H	-1.492759	-1.346363	0.909294
N	-0.396715	1.275776	0.58542
H	-1.210022	1.169474	1.178413
H	0.389111	1.602332	1.133435
F	2.583171	0.0	0.0
