18

C	-0.398722	0.028771	-1.454866
C	0.0	0.0	0.0
Cl	-2.132147	0.357635	-1.752065
H	1.093577	0.0	0.0
N	0.3397	1.080001	-2.290424
O	0.305196	0.914677	-3.505599
O	0.855611	2.017205	-1.701607
N	-0.029869	-1.300973	-2.107786
O	-0.911969	-2.134582	-2.272833
O	1.164132	-1.438368	-2.33315
C	-0.48394	-1.277401	0.667823
H	0.012176	-2.157608	0.254713
H	-0.196252	-1.194142	1.716165
H	-1.570225	-1.417957	0.609631
N	-0.426404	1.169735	0.751352
H	0.23127	1.91211	0.55588
H	-1.355667	1.47743	0.487615
F	2.566103	0.0	0.0
