18

C	-0.510259	-0.056271	-1.413474
C	0.0	0.0	0.0
Cl	-2.234406	-0.486223	-1.56548
H	1.092183	0.0	0.0
N	-0.265601	1.301151	-2.079178
O	0.920283	1.56801	-2.204585
O	-1.218799	1.99306	-2.400911
N	0.223585	-1.053516	-2.310517
O	0.20613	-0.81588	-3.515148
O	0.712557	-2.035326	-1.772273
C	-0.456692	-1.152741	0.876225
H	0.154954	-1.121998	1.78257
H	-1.515621	-1.065652	1.155187
H	-0.295146	-2.118536	0.398781
N	-0.37524	1.310561	0.534529
H	-1.131404	1.237154	1.205056
H	0.449217	1.674489	0.99766
F	2.566698	0.0	0.0
