18

C	-0.468943	-0.005182	-1.427144
C	0.0	0.0	0.0
Cl	0.364638	-1.189944	-2.411114
H	1.094383	0.0	0.0
N	-1.98944	-0.217007	-1.593012
O	-2.414529	-0.606933	-2.674268
O	-2.675781	0.060603	-0.612017
N	-0.24066	1.383975	-2.042209
O	-1.239084	2.056752	-2.281692
O	0.919865	1.704323	-2.217792
C	-0.386451	-1.262523	0.760171
H	-1.454719	-1.312853	0.998919
H	-0.096862	-2.163406	0.211974
H	0.189336	-1.259976	1.691439
N	-0.392038	1.257266	0.62058
H	0.380041	1.544518	1.210248
H	-1.240466	1.169801	1.167001
F	2.57949	0.0	0.0
