18

C	-0.375395	0.003676	-1.458942
C	0.0	0.0	0.0
Cl	0.500119	-1.207205	-2.373622
H	1.093902	0.0	0.0
N	-1.883581	-0.16298	-1.742954
O	-2.238689	-0.556034	-2.846626
O	-2.634812	0.150617	-0.823355
N	-0.053814	1.38509	-2.053986
O	-1.005467	2.080779	-2.393551
O	1.1254	1.673706	-2.116872
C	-0.465477	-1.253105	0.725778
H	0.03192	-1.273253	1.698583
H	-1.549899	-1.26579	0.880625
H	-0.17024	-2.161307	0.194738
N	-0.405917	1.26393	0.594886
H	-1.298753	1.195788	1.066477
H	0.318088	1.536966	1.247126
F	2.584485	0.0	0.0
