18

C	-0.483117	0.001227	-1.421195
C	0.0	0.0	0.0
Cl	0.348952	-1.180577	-2.410002
H	1.094557	0.0	0.0
N	-2.005396	-0.210463	-1.583628
O	-2.433452	-0.594846	-2.664473
O	-2.690055	0.063185	-0.602429
N	-0.260014	1.394435	-2.026596
O	0.899358	1.713037	-2.21118
O	-1.257002	2.074952	-2.241187
C	-0.389254	-1.262565	0.759731
H	0.231826	-1.2939	1.65854
H	-0.162056	-2.164454	0.18537
H	-1.445704	-1.278801	1.04873
N	-0.379143	1.254791	0.634553
H	-1.207871	1.15987	1.207553
H	0.408371	1.545892	1.200453
F	2.577135	0.0	0.0
