12

C	-0.403276	0.006374	-1.482397
C	0.0	0.0	0.0
F	0.032559	1.175153	-2.05805
H	1.096771	0.0	0.0
H	0.096639	-0.832587	-1.975446
C	-1.862488	-0.091372	-1.670077
N	-3.025205	-0.161689	-1.820762
C	-0.476986	-1.228144	0.630257
N	-0.855675	-2.234276	1.103436
C	-0.513943	1.181382	0.687166
N	-0.923735	2.138257	1.230804
Cl	3.140171	0.0	0.0
