12

C	-0.378667	0.058379	-1.481033
C	0.0	0.0	0.0
F	-1.74009	0.262973	-1.642957
H	1.097476	0.0	0.0
H	0.149242	0.903559	-1.930496
C	-0.015063	-1.181633	-2.179812
N	0.221455	-2.186097	-2.738804
C	-0.532698	-1.189938	0.656271
N	-0.968891	-2.149437	1.173958
C	-0.469569	1.214291	0.664993
N	-0.838591	2.201586	1.182245
Cl	3.12148	0.0	0.0
