12

C	-0.403224	0.005777	-1.482422
C	0.0	0.0	0.0
F	0.031805	1.174747	-2.058298
H	1.096759	0.0	0.0
H	0.097351	-0.832923	-1.97525
C	-1.862355	-0.093137	-1.67017
N	-3.02502	-0.164569	-1.820731
C	-0.476882	-1.227977	0.630678
N	-0.856279	-2.233814	1.103921
C	-0.514153	1.181544	0.686715
N	-0.924442	2.138643	1.229584
Cl	3.140203	0.0	0.0
