12

C	-0.379814	0.068492	-1.480357
C	0.0	0.0	0.0
F	-1.739457	0.284729	-1.6401
H	1.09758	0.0	0.0
H	0.154457	0.911562	-1.925852
C	-0.026746	-1.17086	-2.185803
N	0.202396	-2.174547	-2.749256
C	-0.534045	-1.192808	0.649898
N	-0.972431	-2.154071	1.162326
C	-0.467385	1.210926	0.672798
N	-0.83417	2.195269	1.197216
Cl	3.121294	0.0	0.0
