15

C	0.0	0.0	0.0
C	-0.562544	0.141369	-1.407002
Br	1.94822	0.0	0.0
H	-0.319988	1.168265	-1.701009
H	-1.651717	0.093717	-1.259949
C	-0.400727	1.121605	0.845844
N	-0.598279	2.077249	1.501066
N	-0.395773	-1.302897	0.710073
O	-0.497647	-2.296523	0.007369
O	-0.499574	-1.251607	1.926579
C	-0.095242	-0.829229	-2.483808
H	-0.460958	-0.462898	-3.447278
H	0.994033	-0.897136	-2.541527
H	-0.501845	-1.824669	-2.322769
Cl	-3.552761	0.0	0.0
