15

C	0.0	0.0	0.0
C	-0.537316	-0.057345	-1.423939
Br	1.955429	0.0	0.0
H	-0.195612	0.878003	-1.881016
H	-1.629332	0.00521	-1.307307
C	-0.383242	1.247906	0.655448
N	-0.559415	2.325998	1.088558
N	-0.408268	-1.16985	0.891813
O	-0.461495	-2.268384	0.358547
O	-0.560712	-0.925195	2.079833
C	-0.147785	-1.243126	-2.299982
H	0.915237	-1.488949	-2.23304
H	-0.372286	-0.983414	-3.340888
H	-0.728172	-2.125016	-2.038986
Cl	-3.506994	0.0	0.0
