17

C	0.0	0.0	0.0
C	-0.187334	-0.03098	-1.558046
F	1.362155	0.0	0.0
H	0.50554	-0.84146	-1.83413
C	-0.511376	1.163423	0.711053
N	-0.5844	2.169603	1.317535
N	-0.396293	-1.274652	0.688873
O	-0.48907	-1.240232	1.910114
O	-0.428826	-2.291115	0.000818
N	0.315961	1.277278	-2.008254
H	0.107087	1.37623	-2.993858
H	1.321172	1.318929	-1.898106
C	-1.494188	-0.314072	-2.26548
H	-2.194258	0.499541	-2.11039
H	-1.954969	-1.217295	-1.882791
H	-1.253195	-0.44112	-3.334352
F	-2.287527	0.0	0.0
