17

C	0.0	0.0	0.0
C	-0.400899	-0.135067	-1.505276
F	1.356148	0.0	0.0
H	0.574774	-0.101179	-2.007939
C	-0.453731	1.237038	0.648736
N	-0.542988	2.261393	1.217621
N	-0.345878	-1.169518	0.91852
O	-0.76797	-0.930097	2.039549
O	-0.026714	-2.279458	0.500855
N	-1.129708	1.078476	-1.870202
H	-1.34181	1.021696	-2.86114
H	-1.998711	0.958959	-1.324221
C	-1.109316	-1.424527	-1.923733
H	-2.02376	-1.493949	-1.337384
H	-0.487873	-2.312159	-1.802612
H	-1.358282	-1.323074	-2.987215
F	-2.479581	0.0	0.0
