17

C	0.0	0.0	0.0
C	-0.417123	-0.110559	-1.488149
F	1.357502	0.0	0.0
H	-1.374678	-0.618807	-1.459945
C	-0.492594	1.17197	0.722112
N	-0.564604	2.205351	1.282014
N	-0.382174	-1.250468	0.774212
O	-0.526241	-2.290433	0.145743
O	-0.382278	-1.151882	1.998456
N	0.589371	-0.892014	-2.210026
H	1.174576	-0.288909	-2.774862
H	0.118251	-1.544698	-2.81896
C	-0.631541	1.282984	-2.065255
H	-0.842456	1.201667	-3.135947
H	-1.485362	1.737321	-1.563896
H	0.255172	1.915872	-1.936372
F	-2.382909	0.0	0.0
