17

C	0.0	0.0	0.0
C	-0.400585	-0.342856	-1.471541
F	1.358858	0.0	0.0
H	0.574939	-0.381104	-1.973528
C	-0.451087	1.315515	0.471446
N	-0.538652	2.411397	0.886308
N	-0.345509	-1.030403	1.071236
O	-0.772846	-0.639391	2.147
O	-0.021149	-2.186671	0.81245
N	-1.127862	0.810081	-1.999461
H	-1.342238	0.617327	-2.972658
H	-1.996381	0.766604	-1.441315
C	-1.112241	-1.675655	-1.705768
H	-2.026635	-1.658615	-1.115717
H	-0.49468	-2.539848	-1.460987
H	-1.360094	-1.722754	-2.773113
F	-2.481407	0.0	0.0
