14

C	-0.323609	-0.052517	-1.494464
C	0.0	0.0	0.0
Cl	-0.155774	1.704557	-2.124721
H	1.093435	0.0	0.0
H	-0.405225	0.896239	0.467763
N	0.626846	-0.915398	-2.085283
H	0.624282	-0.851201	-3.095627
H	1.565374	-0.725944	-1.706031
N	-1.706017	-0.378524	-1.777799
H	-1.868427	-0.287162	-2.775527
H	-1.818961	-1.358639	-1.533823
C	-0.501921	-1.189618	0.665516
N	-0.920048	-2.150383	1.198367
H	2.7993	0.0	0.0
