14

C	-0.208398	-0.01105	-1.499636
C	0.0	0.0	0.0
Cl	-1.976247	-0.118684	-1.986126
H	1.096964	0.0	0.0
H	-0.356047	-0.934133	0.434546
N	0.282455	1.245923	-2.01263
H	1.246244	1.322659	-1.677808
H	0.294986	1.21639	-3.027075
N	0.424267	-1.226581	-1.963515
H	0.453787	-1.220499	-2.977425
H	1.386086	-1.1846	-1.608182
C	-0.55102	1.147352	0.688346
N	-0.972532	2.058531	1.29869
H	2.756161	0.0	0.0
