14

C	-0.330881	0.080951	-1.483427
C	0.0	0.0	0.0
Cl	-0.039955	-1.733009	-2.188164
H	1.091733	0.0	0.0
H	-0.309492	0.957658	0.431783
N	-1.684399	0.411706	-1.766841
H	-1.832026	0.435715	-2.770109
H	-2.28372	-0.31019	-1.383919
N	0.591609	0.956258	-2.066139
H	0.590908	0.901198	-3.07623
H	1.531034	0.758708	-1.694298
C	-0.633649	-1.08098	0.721114
N	-1.168228	-1.949833	1.305306
H	2.773758	0.0	0.0
