14

C	-0.271593	-0.045849	-1.497017
C	0.0	0.0	0.0
Cl	-2.025163	-0.860954	-1.740454
H	1.094264	0.0	0.0
H	-0.320555	-0.932618	0.468039
N	-0.215336	1.217862	-2.080346
H	-0.856749	1.885048	-1.675517
H	-0.301859	1.15228	-3.083228
N	0.635654	-0.911797	-2.19637
H	1.570135	-0.647672	-1.843954
H	0.474202	-1.86352	-1.888166
C	-0.589015	1.134265	0.677162
N	-1.057722	2.078075	1.19878
H	2.753017	0.0	0.0
