12

C	-0.391264	0.024342	-1.487552
C	0.0	0.0	0.0
Cl	0.234197	-1.432472	-2.312882
H	1.096633	0.0	0.0
H	-1.475255	0.006861	-1.628877
C	0.139368	1.220002	-2.14062
N	0.499544	2.187465	-2.700222
C	-0.521971	-1.183692	0.655331
N	-0.926052	-2.150215	1.19009
C	-0.487439	1.203461	0.649631
N	-0.885332	2.182458	1.166721
F	2.430714	0.0	0.0
