12

C	-0.261738	-0.000991	-1.513138
C	0.0	0.0	0.0
Cl	0.31831	1.520024	-2.240338
H	1.096528	0.0	0.0
H	0.356901	-0.798789	-1.929475
C	-1.662273	-0.199114	-1.88465
N	-2.789653	-0.370574	-2.169593
C	-0.454453	-1.254543	0.570424
N	-0.809627	-2.290116	1.00068
C	-0.571822	1.143543	0.679042
N	-1.002494	2.080268	1.244946
F	2.439729	0.0	0.0
