12

C	-0.176086	0.012446	-1.511598
C	0.0	0.0	0.0
Cl	-1.882126	0.201985	-2.078055
H	1.098177	0.0	0.0
H	0.373532	0.877453	-1.888415
C	0.38277	-1.197181	-2.112931
N	0.776202	-2.183855	-2.613217
C	-0.554304	-1.176365	0.634211
N	-0.978798	-2.141892	1.154591
C	-0.476128	1.230985	0.596132
N	-0.833204	2.250102	1.062208
F	2.425738	0.0	0.0
