12

C	-0.191637	0.02512	-1.508021
C	0.0	0.0	0.0
Cl	-1.910162	0.177311	-2.047926
H	1.098114	0.0	0.0
H	0.330328	0.907613	-1.882421
C	0.386051	-1.164503	-2.129098
N	0.79287	-2.139179	-2.642039
C	-0.546665	-1.184362	0.625185
N	-0.961254	-2.158616	1.136992
C	-0.478846	1.222379	0.611025
N	-0.841512	2.235007	1.086572
F	2.428191	0.0	0.0
