12

C	-0.19382	0.017304	-1.508275
C	0.0	0.0	0.0
Cl	-1.910645	0.187017	-2.048255
H	1.098193	0.0	0.0
H	0.33871	0.890955	-1.888625
C	0.369049	-1.182559	-2.123497
N	0.77004	-2.160961	-2.634151
C	-0.54546	-1.180689	0.634238
N	-0.961847	-2.150035	1.15382
C	-0.476978	1.225772	0.605619
N	-0.837575	2.240248	1.078474
F	2.426684	0.0	0.0
