12

C	-0.260545	-0.018598	-1.513347
C	0.0	0.0	0.0
Cl	0.319966	1.493783	-2.258804
H	1.096475	0.0	0.0
H	0.357886	-0.821129	-1.920406
C	-1.66047	-0.221074	-1.883652
N	-2.786222	-0.398933	-2.169282
C	-0.453752	-1.248187	0.584799
N	-0.804367	-2.280173	1.027735
C	-0.574084	1.150422	0.665495
N	-1.014179	2.089971	1.219094
F	2.439904	0.0	0.0
