17

C	-0.500977	-0.100451	-1.449829
C	0.0	0.0	0.0
Br	-2.458032	-0.198775	-1.524764
H	1.094891	0.0	0.0
N	-0.04839	1.155067	-2.220172
O	1.115842	1.104978	-2.592752
O	-0.827468	2.082379	-2.349424
C	0.016785	-1.265073	-2.154514
N	0.424185	-2.220161	-2.705907
C	-0.416041	-1.215972	0.819603
H	-1.493961	-1.228708	1.008508
H	0.114202	-1.166892	1.77365
H	-0.130519	-2.151022	0.331769
N	-0.426636	1.273297	0.551091
H	0.360901	1.70456	1.016656
H	-1.184087	1.159789	1.209895
Cl	3.325336	0.0	0.0
