17

C	-0.501552	0.076251	-1.444576
C	0.0	0.0	0.0
Br	-2.447628	-0.130958	-1.534146
H	1.097924	0.0	0.0
N	-0.138068	1.459496	-2.042299
O	0.962309	1.870775	-1.716392
O	-0.92576	1.988157	-2.812556
C	0.082055	-0.928516	-2.323155
N	0.524663	-1.76022	-3.025949
C	-0.395901	-1.310866	0.666927
H	0.146136	-1.375738	1.613162
H	-1.470851	-1.363607	0.862171
H	-0.104368	-2.17321	0.062158
N	-0.480561	1.18745	0.692256
H	-1.14787	0.946977	1.414563
H	0.311221	1.656456	1.11267
Cl	3.350745	0.0	0.0
