17

C	-0.465621	-0.018462	-1.475972
C	0.0	0.0	0.0
Br	0.421269	1.37319	-2.510753
H	1.092633	0.0	0.0
N	-0.139418	-1.3346	-2.187417
O	-0.947655	-1.718983	-3.031297
O	0.908908	-1.875111	-1.877622
C	-1.906931	0.193059	-1.572875
N	-3.062693	0.409603	-1.533427
C	-0.563649	-1.201502	0.744709
H	-1.658228	-1.166738	0.790037
H	-0.246265	-2.147872	0.306934
H	-0.177549	-1.151163	1.762929
N	-0.400981	1.221542	0.674814
H	-1.364076	1.476487	0.491209
H	0.212927	1.980627	0.412089
Cl	3.400621	0.0	0.0
