17

C	-0.363453	0.181446	-1.489169
C	0.0	0.0	0.0
Br	-2.308578	0.445435	-1.742623
H	1.093637	0.0	0.0
N	0.265701	1.436286	-2.133837
O	0.273862	1.460828	-3.358609
O	0.649002	2.323225	-1.389811
C	0.012208	-0.954489	-2.316247
N	0.280865	-1.919201	-2.932069
C	-0.477435	-1.35579	0.50102
H	-1.570753	-1.418708	0.51016
H	-0.072982	-2.1812	-0.086725
H	-0.116259	-1.451102	1.525427
N	-0.463519	1.038181	0.891755
H	0.043034	1.89205	0.707159
H	-1.455439	1.206022	0.770385
Cl	3.320168	0.0	0.0
