16

C	0.0	0.0	0.0
C	-0.222185	0.238519	-1.555874
Cl	1.793488	0.0	0.0
H	0.534642	0.995361	-1.773415
N	-0.409771	1.199944	0.832277
O	-0.412283	2.276775	0.252553
O	-0.571718	1.002714	2.025609
C	-0.485297	-1.246006	0.559847
N	-0.631301	-2.337889	0.972405
C	-1.485197	0.736712	-2.260138
H	-1.160272	0.994884	-3.276354
H	-1.880771	1.618168	-1.764562
H	-2.267082	-0.010651	-2.296232
C	0.22333	-0.993186	-2.219442
N	0.54026	-1.959204	-2.807173
Cl	-3.160076	0.0	0.0
