16

C	0.0	0.0	0.0
C	-0.420434	-0.021257	-1.521844
Cl	1.758353	0.0	0.0
H	0.520105	-0.228984	-2.043132
N	-0.385285	1.229101	0.83929
O	-0.359152	2.313194	0.279897
O	-0.546965	1.028786	2.03146
C	-0.421311	-1.201503	0.715899
N	-0.565955	-2.240968	1.247099
C	-0.968462	1.258264	-2.163661
H	-1.886626	1.564397	-1.672243
H	-1.179813	1.019784	-3.210164
H	-0.225963	2.054262	-2.12673
C	-1.243959	-1.183523	-1.873191
N	-1.693902	-2.140753	-2.389163
Cl	-3.024298	0.0	0.0
