16

C	0.0	0.0	0.0
C	-0.393753	0.084256	-1.523319
Cl	1.798439	0.0	0.0
H	0.54816	-0.117305	-2.043042
N	-0.366666	1.16908	0.919552
O	-0.273564	2.291437	0.446734
O	-0.582611	0.884327	2.085339
C	-0.410705	-1.252669	0.622628
N	-0.492914	-2.333329	1.080132
C	-0.88972	1.422433	-2.07954
H	-1.798273	1.733167	-1.572365
H	-0.119075	2.185514	-1.983255
H	-1.103958	1.264435	-3.140583
C	-1.243834	-1.029596	-1.960345
N	-1.687133	-1.950721	-2.541187
Cl	-2.973461	0.0	0.0
