15

C	-0.611315	0.066471	-1.385194
C	0.0	0.0	0.0
F	0.040393	1.097092	-2.088933
H	1.090283	0.0	0.0
H	-0.424195	-0.846731	-1.946139
N	-2.009553	0.330572	-1.29628
H	-2.390764	0.47866	-2.224024
H	-2.102575	1.190642	-0.764174
N	-0.408857	-1.305805	0.602113
O	-0.834955	-1.326698	1.761115
O	-0.260891	-2.317531	-0.081944
N	-0.43567	1.11786	0.806436
H	0.394064	1.464924	1.274128
H	-1.074224	0.791534	1.520097
F	2.558951	0.0	0.0
