15

C	-0.527131	0.034521	-1.426984
C	0.0	0.0	0.0
F	-0.119889	1.237569	-2.000507
H	1.089839	0.0	0.0
H	-0.050398	-0.748409	-2.019812
N	-1.966684	0.005667	-1.462263
H	-2.348517	-0.473129	-0.657984
H	-2.309779	-0.436277	-2.301644
N	-0.481816	-1.328684	0.525596
O	0.00733	-2.325182	-0.010228
O	-1.363311	-1.380309	1.389027
N	-0.464953	1.075993	0.815525
H	0.319506	1.701193	0.948657
H	-1.234023	1.577675	0.392646
F	2.582628	0.0	0.0
