15

C	-0.609277	-0.089761	-1.384593
C	0.0	0.0	0.0
F	0.018949	0.882714	-2.187047
H	1.097217	0.0	0.0
H	-0.396918	-1.049518	-1.850944
N	-2.014811	0.146292	-1.321955
H	-2.398175	0.193111	-2.258919
H	-2.13137	1.049809	-0.873526
N	-0.407309	-1.229106	0.740472
O	-0.848754	-1.125256	1.890049
O	-0.243892	-2.309288	0.174799
N	-0.443507	1.200332	0.677044
H	-1.039403	0.940826	1.452576
H	0.389181	1.621673	1.06627
F	2.55519	0.0	0.0
