15

C	-0.305098	0.146261	-1.508099
C	0.0	0.0	0.0
F	-0.933115	-1.020857	-2.013727
H	1.089699	0.0	0.0
H	-1.055796	0.931248	-1.65238
N	0.899378	0.40995	-2.19591
H	0.90294	1.298418	-2.665588
H	1.723721	0.285604	-1.585187
N	-0.521919	-1.306407	0.524456
O	-1.509983	-1.283228	1.271676
O	0.051591	-2.328701	0.171304
N	-0.491819	1.134768	0.716192
H	-1.459852	0.987727	0.976501
H	0.049294	1.241275	1.564021
F	2.653551	0.0	0.0
