15

C	-0.230216	0.129258	-1.504777
C	0.0	0.0	0.0
F	-0.169962	-1.174422	-2.072158
H	1.091699	0.0	0.0
H	-1.231248	0.491332	-1.775691
N	0.801046	0.975327	-1.969131
H	1.687154	0.689512	-1.518666
H	0.865271	0.96696	-2.977638
N	-0.675107	-1.238226	0.473092
O	-0.003398	-2.203246	0.822087
O	-1.910268	-1.208843	0.473796
N	-0.474861	1.111302	0.780319
H	-1.26467	1.56907	0.342151
H	0.291574	1.766573	0.850894
F	2.664739	0.0	0.0
