13

C	0.0	0.0	0.0
C	-0.483368	-0.079892	-1.44188
F	1.405276	0.0	0.0
H	-0.184697	0.792766	-2.020731
H	-0.32883	0.980879	0.354953
H	-1.590217	-0.146692	-1.338601
N	-0.493652	-0.977313	0.906806
H	-0.38323	-1.888396	0.476061
H	-1.510383	-0.784987	0.919488
N	0.032601	-1.244341	-2.183489
O	0.513379	-1.048989	-3.304131
O	-0.064605	-2.362495	-1.669485
H	-3.013176	0.0	0.0
