13

C	0.0	0.0	0.0
C	-0.481828	0.034445	-1.435795
F	1.395834	0.0	0.0
H	-1.581096	0.171966	-1.346219
H	-0.322625	0.913358	0.500157
H	-0.235315	-0.880604	-1.972965
N	-0.529318	-1.112693	0.717144
H	-0.428788	-1.948609	0.147413
H	-1.549006	-0.900749	0.737951
N	0.10213	1.143712	-2.215557
O	0.47901	0.905046	-3.366682
O	0.149664	2.255253	-1.687742
H	-3.00212	0.0	0.0
