13

C	0.0	0.0	0.0
C	-0.517073	-0.150505	-1.4235
F	1.381811	0.0	0.0
H	-1.626774	-0.189221	-1.282425
H	-0.333466	0.997566	0.30507
H	-0.231185	0.687297	-2.058677
N	-0.494723	-0.925169	0.96688
H	-0.380091	-1.858628	0.588997
H	-1.510476	-0.736564	0.969308
N	-0.058634	-1.358138	-2.130077
O	-0.035274	-2.433104	-1.524036
O	0.242226	-1.244421	-3.320854
H	-3.019723	0.0	0.0
