13

C	0.0	0.0	0.0
C	-0.533587	0.066129	-1.406585
F	1.381848	0.0	0.0
H	-0.248503	-0.809883	-1.982399
H	-0.285523	0.919552	0.522801
H	-1.638477	0.149031	-1.275714
N	-0.514696	-1.200425	0.58752
H	-1.543601	-1.070442	0.511592
H	-0.303348	-1.175317	1.58049
N	-0.041258	1.249988	-2.131256
O	-0.109193	2.341171	-1.562301
O	0.369366	1.097692	-3.285184
H	-3.035644	0.0	0.0
