15
Coordinates from ORCA-job run
  C   -0.71345035028581      0.00408356066508      0.61925571711882
  C   0.72201665146518     -0.23012733835210      0.09697708831191
  Br  -0.82649343908363     -0.25475595009735      2.53296853435900
  H   1.06394691488869     -1.17112300226026      0.54017019553864
  N   -1.64402845862520     -1.03050417120875     -0.01243626258222
  O   -2.77537599601132     -0.67068443761408     -0.30062934580185
  O   -1.17191250687908     -2.15370032000617     -0.14283459879367
  C   -1.17427463128679      1.33634000333995      0.26702813773928
  N   -1.45462281724665      2.44375448295668     -0.00959686351205
  N   1.54107259317694      0.83831399881668      0.59492655680417
  H   2.52125613157384      0.59434067879170      0.56538888050451
  H   1.38558798458737      1.69165276997505      0.06995804950433
  N   0.61186360627741     -0.27166736040375     -1.35665129932937
  H   0.45568383574237     -1.21481267847750     -1.68972483331437
  H   1.45873048170669      0.08788976387482     -1.77579995654713
