15
Coordinates from ORCA-job run
  C   -0.62372594256983     -0.30435027673647      0.60796419472456
  C   0.53329688779032     -0.28257291737707     -0.41419024372011
  Br  -0.63493629266530     -1.94543353745393      1.64793598008351
  H   0.37414327882742     -1.15320013638871     -1.06174113541734
  N   -1.92891516372116     -0.26416362838242     -0.19314849636727
  O   -2.04266694776129     -1.12457497436917     -1.05257488492303
  O   -2.72842882392897      0.61636660799439      0.08452095365499
  C   -0.55899353284348      0.83967100003038      1.49977444959472
  N   -0.45777873008151      1.76854626045916      2.21292357481597
  N   1.79009271683246     -0.26733722198674      0.31143868729366
  H   2.54758855418791     -0.15645648005189     -0.35200708801831
  H   1.93759782513365     -1.13411558788061      0.81524824995838
  N   0.33688827442609      0.91101077353941     -1.19494860316123
  H   0.80587499650582      1.69826926174602     -0.76226559806257
  H   0.64896289986787      0.79934085685766     -2.14893004045592
