15
Coordinates from ORCA-job run
  C   -0.71064295444118     -0.01812957587370      0.64638212300966
  C   0.71209128586238     -0.23303918418991      0.08481107130306
  Br  -0.76652721044233     -0.08161814818545      2.57441665716098
  H   1.04673958710233     -1.19051788868970      0.48968299720934
  N   -1.58374167799860     -1.16046538720453      0.12082366319559
  O   -1.16840469798809     -2.28405115215001      0.35329012279433
  O   -2.60378200682021     -0.85411400589360     -0.47806917367940
  C   -1.23461394648356      1.25423324969240      0.17537041022419
  N   -1.52717256085501      2.31919936575818     -0.22870231358409
  N   1.57067632689586      0.80949477216233      0.59309356125101
  H   1.39600538525979      1.68976762530525      0.12097029590059
  H   2.54301512337200      0.56267485789893      0.46412487768402
  N   0.53518082303581     -0.38564369252579     -1.34967595321787
  H   1.27492954334839     -0.94592061339648     -1.75172740341444
  H   0.51724698015242      0.51412977729210     -1.81579093583698
