15
Coordinates from ORCA-job run
  C   -0.66050287029531     -0.00331673420751      0.60036950551883
  C   0.47923947720474      0.21036794693000     -0.41849021576362
  Br  -0.02890593285711     -0.94345544127268      2.16858681133758
  H   0.01107674766464      0.76439503297946     -1.23725759493883
  N   -1.74230305698123     -0.83000928136429     -0.12878694069771
  O   -1.98749337863921     -1.96101223391774      0.24127952588525
  O   -2.23905022809417     -0.22512389382015     -1.07012819801279
  C   -1.26172979646637      1.25519958569699      1.00780074634172
  N   -1.76604215721898      2.26695492614491      1.32986728761183
  N   0.85097190161138     -1.08802301731489     -0.93739559953394
  H   1.36780168808281     -0.99049647852923     -1.80178281354779
  H   1.42023493398193     -1.60050327265356     -0.27431151721230
  N   1.46170613472563      1.07966122139796      0.18894837702979
  H   2.05649598415592      1.49200895837230     -0.51803104770742
  H   2.04050055312532      0.57335268155842      0.84833167368940
