14

C	0.0	0.0	0.0
C	-0.268829	-0.084112	-1.503171
F	1.393762	0.0	0.0
H	0.008032	-1.079993	-1.848764
H	-0.3706	0.936258	0.411631
H	0.376602	0.658709	-1.97932
C	-0.483365	-1.187331	0.787199
H	-1.580627	-1.116474	0.718136
H	-0.088842	-2.109461	0.342759
H	-0.133081	-1.113625	1.821928
N	-1.618266	0.19001	-2.074702
O	-2.211846	-0.761443	-2.575309
O	-1.923764	1.369849	-2.211317
F	-2.699832	0.0	0.0
