15

C	-0.301874	-0.046957	-1.488724
C	0.0	0.0	0.0
F	-1.676332	-0.290066	-1.712948
H	1.094362	0.0	0.0
H	-0.340684	-0.932869	0.455891
C	0.013945	1.26782	-2.175445
H	-0.608137	2.077718	-1.786367
H	1.069091	1.500899	-2.006522
H	-0.174963	1.167776	-3.250245
N	0.433513	-1.174255	-1.997594
H	1.370898	-1.13762	-1.58781
H	0.532951	-1.085006	-3.001855
C	-0.567849	1.140027	0.690191
N	-1.019224	2.06762	1.253904
H	2.797742	0.0	0.0
