14

C	0.0	0.0	0.0
C	-0.592635	-0.205336	-1.418914
Cl	1.770046	0.0	0.0
H	-1.192843	0.671176	-1.632838
H	-0.357858	0.933397	0.406639
N	-0.391119	-1.051068	0.998366
O	-0.386916	-2.216295	0.625919
O	-0.546671	-0.657206	2.146111
C	-1.407049	-1.388661	-1.664791
N	-1.973508	-2.323666	-2.09485
N	0.518977	-0.193971	-2.471329
O	0.796849	0.913167	-2.933772
O	1.061678	-1.248757	-2.780561
F	-2.31859	0.0	0.0
