14

C	0.0	0.0	0.0
C	-0.493861	0.062632	-1.454368
Cl	1.777747	0.0	0.0
H	0.29302	0.549125	-2.037382
H	-0.338536	0.881892	0.526131
N	-0.449028	-1.155623	0.846071
O	-0.565141	-2.252259	0.319603
O	-0.558623	-0.91098	2.039662
C	-1.741964	0.822861	-1.624948
N	-2.341052	1.63649	-2.240257
N	-0.582305	-1.300759	-2.110302
O	-1.681141	-1.749217	-2.399565
O	0.500232	-1.833359	-2.344978
F	-2.373501	0.0	0.0
