14

C	0.0	0.0	0.0
C	-0.458725	0.208048	-1.466715
Cl	1.79184	0.0	0.0
H	0.435675	0.247681	-2.102917
H	-0.317765	0.839999	0.59624
N	-0.416873	-1.199371	0.804297
O	-0.498948	-2.292467	0.268732
O	-0.499686	-0.980692	2.007079
C	-1.126015	1.502085	-1.555111
N	-1.44408	2.620314	-1.727346
N	-1.275947	-0.84608	-2.185865
O	-2.345679	-0.523873	-2.678953
O	-0.707127	-1.92165	-2.341831
F	-2.226208	0.0	0.0
