14

C	0.0	0.0	0.0
C	-0.282382	-0.354409	-1.479196
Cl	1.786015	0.0	0.0
H	0.191155	-1.323468	-1.652445
H	-0.394422	0.946695	0.332019
N	-0.42668	-1.06524	0.951254
O	-0.558773	-0.715927	2.116245
O	-0.462454	-2.214716	0.528644
C	0.345278	0.639173	-2.357248
N	0.851182	1.390817	-3.105109
N	-1.698187	-0.544253	-2.014468
O	-2.082218	-1.704926	-2.054478
O	-2.225449	0.41294	-2.561644
F	-2.258027	0.0	0.0
