14

C	0.0	0.0	0.0
C	-0.487544	0.083102	-1.453408
Cl	1.792533	0.0	0.0
H	0.288645	0.604285	-2.019502
H	-0.333017	0.873847	0.542982
N	-0.43318	-1.17547	0.824236
O	-0.532952	-2.262321	0.274029
O	-0.542541	-0.958429	2.023483
C	-1.758337	0.807109	-1.620855
N	-2.376616	1.59045	-2.257841
N	-0.535481	-1.268153	-2.140057
O	0.562137	-1.744968	-2.422841
O	-1.621044	-1.76399	-2.399204
F	-2.36933	0.0	0.0
