14

C	0.0	0.0	0.0
C	-0.303195	0.13217	-1.514416
Cl	1.75489	0.0	0.0
H	0.099748	-0.771755	-1.976278
H	-0.405321	0.790117	0.612176
N	-0.446309	-1.308578	0.565557
O	-0.573341	-1.343247	1.781409
O	-0.500793	-2.264724	-0.198106
C	0.39536	1.299376	-2.067066
N	0.954738	2.212257	-2.549631
N	-1.722772	0.223177	-2.060603
O	-2.160899	-0.818089	-2.532034
O	-2.193778	1.341471	-2.210072
F	-2.278137	0.0	0.0
