17

C	0.0	0.0	0.0
C	-0.212935	-0.300663	-1.542448
Cl	1.806152	0.0	0.0
H	0.401408	-1.172331	-1.768999
N	-0.600117	1.130492	0.599452
H	-1.600255	0.928273	0.720766
H	-0.507978	1.926047	-0.020916
C	-0.399718	-1.225767	0.705647
N	-0.655901	-2.233962	1.251155
N	0.4268	0.791879	-2.350677
O	1.176982	0.45213	-3.262328
O	0.120972	1.956098	-2.0909
C	-1.604732	-0.496316	-2.092914
H	-1.500181	-0.712055	-3.162556
H	-2.098775	-1.332807	-1.60159
H	-2.242472	0.369085	-1.939972
Br	-4.082509	0.0	0.0
