15
Coordinates from ORCA-job run
  C   0.53864355327125     -0.34711511520930     -0.49098693226765
  C   -0.86933868901706      0.21945539913557     -0.19851751143529
  H   0.59455211343483     -0.58572445945871     -1.55916159482818
  H   -1.57991603157208     -0.60338305776837     -0.33240867879560
  C   0.81554139577567     -1.60230237269442      0.33920871768817
  H   1.82263751226913     -1.97512009200404      0.14603414107908
  H   0.71132738936588     -1.37889846038352      1.39986557150301
  H   0.10113645560560     -2.38450902855036      0.07109137328289
  C   1.52984177285412      0.69645433113044     -0.21390784662042
  N   2.29987680268439      1.54210759980324      0.05279926649742
  C   -1.20707146355442      1.26314018212838     -1.18970108651336
  N   -1.48287370993858      2.11583956847544     -1.94968480215193
  N   -0.95175244871395      0.66096132788822      1.18413922327377
  H   -1.91208473698018      0.86894045793839      1.42936260145294
  H   -0.40951991548463      1.50915371956901      1.31086755783514
