15
Coordinates from ORCA-job run
  C   0.48226348961791     -0.48612925103824     -0.45769192132931
  C   -0.71979567649436      0.48845052747683     -0.40247468839964
  H   0.13270455367077     -1.37559690267918     -0.99737504181293
  H   -0.91157044289322      0.85191872313519     -1.42306559401273
  C   0.97034407447362     -0.89616267823151      0.93206733117935
  H   1.73660542639140     -1.66881861485518      0.85121944239872
  H   1.39840676401403     -0.04020642838822      1.45667522578883
  H   0.12857486260628     -1.28140622373288      1.50664679173094
  C   1.55849945583669      0.11210760864017     -1.25077166100355
  N   2.41922131606732      0.60418012163864     -1.88007544106972
  C   -0.37798000427274      1.65984216918785      0.41291620230142
  N   -0.11626929543769      2.59588525920910      1.07114823959417
  N   -1.85959703805566     -0.20351438827866      0.19718100236922
  H   -2.27108782597142     -0.82297765052448     -0.49188993352311
  H   -2.57031965955295      0.46242772844057      0.47549004578832
