15
Coordinates from ORCA-job run
  C   0.73702063386658     -0.15153653760827     -0.29162389757598
  C   -0.75469666118874      0.20543828130608     -0.48164946390496
  H   1.23395873163509     -0.06774375043983     -1.26482468081108
  H   -1.20037279051497     -0.59169191560204     -1.08659070851524
  C   0.90284476240322     -1.56972753232381      0.25853874177006
  H   1.95782672446519     -1.79791918878664      0.41818758107883
  H   0.49862500062798     -2.29044731307545     -0.45652192642082
  H   0.36605540375642     -1.66947459526975      1.20066657049059
  C   1.34412021430146      0.83526873318339      0.60602556195497
  N   1.79047398852941      1.62009916753967      1.35705236746660
  C   -0.87630021175789      1.46415147298411     -1.24727002957167
  N   -0.99052086427234      2.47828917358867     -1.82964485670473
  N   -1.43148350344109      0.22169108862423      0.80502768306464
  H   -2.43391024465590      0.27923835427441      0.67316156605436
  H   -1.14264118375444      1.03436456160524      1.33946549162439
