15
Coordinates from ORCA-job run
  C   0.31048512716252     -0.56546000583377     -0.00114863338211
  C   -0.62839816293051      0.66881318842721     -0.13585151707628
  H   -0.28611784414501     -1.39371976539837      0.40114332395025
  H   -0.02116203578006      1.50707904335922     -0.49793273900589
  C   1.51221552226664     -0.30250082634454      0.90941503946794
  H   2.15568990909828     -1.18204577695166      0.96070656181810
  H   2.10472304714805      0.53297656922933      0.52952035938370
  H   1.17316096850112     -0.06305030986812      1.91864037679489
  C   0.74057213479151     -0.93720148630616     -1.35024315752129
  N   1.07615101617246     -1.18855928029680     -2.44736420864935
  C   -1.11691419639905      1.02234684859856      1.20468838012259
  N   -1.49287989790279      1.25499548592904      2.29211915726511
  N   -1.75833576318796      0.52616660494558     -1.03451978007612
  H   -2.33525569346374     -0.26219422045378     -0.76612686603567
  H   -1.43293413133149      0.38235393096427     -1.98304629705589
