15
Coordinates from ORCA-job run
  C   0.35345773959460     -0.58533005917133     -0.18532774000194
  C   -0.54869860563876      0.66323649651214     -0.10134789580661
  H   -0.29446714487559     -1.46845174277452     -0.11570784271218
  H   0.08446260233834      1.54573738577650     -0.24356581538199
  C   1.40423473844652     -0.63536823202716      0.92715862607795
  H   2.03790322494060     -1.51543807611021      0.80954197857779
  H   2.04232324311555      0.25062745096806      0.89080011447368
  H   0.92369120302938     -0.68290385215710      1.90567674621038
  C   0.99605702323623     -0.60733824479748     -1.50163360546264
  N   1.56803992097424     -0.63101322627840     -2.52636718713635
  C   -1.14124199449958      0.74764376026060      1.25039032796604
  N   -1.66494414718918      0.79853031720954      2.30122453152968
  N   -1.53063303086033      0.63881668523058     -1.17193387314416
  H   -2.24244491465303     -0.05720889010081     -0.98166273469220
  H   -1.98973985795901      1.53746022745959     -1.25624563049744
