13

C	0.0	0.0	0.0
C	-0.52249	-0.117724	-1.436038
Cl	1.787672	0.0	0.0
H	-0.19051	-1.057342	-1.884418
H	-1.626702	-0.118871	-1.266224
N	-0.542795	1.182788	0.585095
H	-1.576875	0.976368	0.49393
H	-0.294849	1.210617	1.568897
C	-0.361989	-1.252382	0.713117
N	-0.579277	-2.257985	1.281129
C	-0.095979	0.997778	-2.267968
N	0.215644	1.862697	-2.998654
F	-2.77325	0.0	0.0
