17
Coordinates from ORCA-job run
  C   0.81782647926078      0.45391017059722     -0.61123635124434
  C   -0.44569546811558     -0.38013058425056     -0.40222357307566
  F   0.67631767852961      1.23962869837197     -1.71044930751923
  H   -0.57602542018952     -0.87260814500273     -1.37453258038322
  N   1.01421045169428      1.38993661782826      0.58472504761458
  O   0.63759397387271      2.54340139063555      0.45194156184883
  O   1.48153146258318      0.86449619034716      1.58848684261283
  C   2.03525792904870     -0.35122078563013     -0.74913590662931
  N   2.98469383103849     -1.02373924605628     -0.91055475140019
  C   -1.64679907785377      0.52844825962656     -0.14506509365532
  H   -2.56337820648217     -0.06034844602728     -0.21792062911583
  H   -1.70369474758351      1.34225874257372     -0.86856005941613
  H   -1.60789177635629      0.95967935224529      0.85838708080278
  C   -0.29472375398527     -1.45164750029942      0.67346247759598
  H   -1.19944957607414     -2.06320573737978      0.68953506390255
  H   0.55374974539798     -2.11116972085976      0.48123384430811
  H   -0.16652352478548     -1.00868925671979      1.66190633375358
