17
Coordinates from ORCA-job run
  C   0.80429011480044      0.48135288473725     -0.60825446058492
  C   -0.44036441134630     -0.38237811568759     -0.40594920191348
  F   0.63913544956941      1.28286349749765     -1.69281087180624
  H   -0.56679019633298     -0.86085380634012     -1.38571140560868
  N   0.98975518399024      1.40010550445400      0.60242191582024
  O   1.47560950139414      0.86710662282927      1.59333860568583
  O   0.58857086702752      2.54767995577216      0.49273889912371
  C   2.03706318014652     -0.29594519183628     -0.76834639384872
  N   2.99861984849978     -0.94682434236365     -0.94595212256007
  C   -1.65841642469182      0.49659995282592     -0.12632799728730
  H   -1.73836817461602      1.31953006467682     -0.83743043022866
  H   -2.56287041917620     -0.11043686599900     -0.20077013399870
  H   -1.62072804374871      0.91394331425087      0.88310340151835
  C   -0.26004097350773     -1.46821268711324      0.65067240602292
  H   -0.13426347893962     -1.03933446319214      1.64561005106387
  H   -1.15176517453249     -2.09857649312229      0.66282603153524
  H   0.60056315146383     -2.10661983138963      0.44184170706661
