17
Coordinates from ORCA-job run
  C   0.89038234676881      0.36021189114858     -0.27651274580530
  C   -0.34625692432944     -0.30725957976974      0.31516941807199
  F   0.81945913468502      0.41089955161783     -1.63004615017621
  H   -0.18921380376784     -0.32308991001157      1.39870100956686
  N   0.94600710141328      1.80436613633086      0.23599588810576
  O   0.73265806034381      2.69543468479726     -0.56905390663237
  O   1.15206412134257      1.90760689876729      1.43832760062257
  C   2.14324642856754     -0.28922521223974      0.12454823697888
  N   3.12666448425718     -0.84908570863739      0.43936643088749
  C   -0.45081881492564     -1.73871519086386     -0.20777471292653
  H   0.43737542222629     -2.32756241640846      0.03254725937412
  H   -0.59110310759358     -1.74667167105626     -1.29046396374473
  H   -1.31153201902098     -2.23039953349121      0.24974916123485
  C   -1.59592759268657      0.51075704882137     -0.00651452593886
  H   -1.70128364424139      0.65640684241336     -1.08350313706787
  H   -1.58377879105320      1.48996746296488      0.47645675411087
  H   -2.47794240198587     -0.02264129438322      0.35300738333848
