17
Coordinates from ORCA-job run
  C   0.82733904414405      0.48218338536711     -0.57575329033948
  C   -0.43459619082974     -0.36696211329601     -0.42593006409261
  F   0.70337337810929      1.30916719047057     -1.64651872678434
  H   -0.54156361918713     -0.82135146394842     -1.41942090698710
  N   0.99241588774913      1.37232810621592      0.65947832719196
  O   1.44259330443262      0.81108412691226      1.65160754690922
  O   0.61060300221918      2.52771919862110      0.56361798519578
  C   2.05310934454905     -0.30916052327173     -0.71913840566889
  N   3.01064506905363     -0.96896129292955     -0.88523044954986
  C   -1.64692689109553      0.52375444420394     -0.15904760426195
  H   -1.63027258797807      0.91873004422134      0.85991338648337
  H   -2.55742018506444     -0.06835772531729     -0.27062669287838
  H   -1.69630576254577      1.36289309855153     -0.85381723255074
  C   -0.29829440959531     -1.47880980373065      0.61002156957241
  H   -0.19195555355784     -1.07423551417464      1.61731751016967
  H   -1.19943016672479     -2.09525853836186      0.58478351468872
  H   0.55768633632166     -2.12576261953361      0.40874353290219
