17
Coordinates from ORCA-job run
  C   0.87066264753977      0.37412178637829     -0.32035563817418
  C   -0.32544940423665     -0.31584170101975      0.32700755464959
  F   0.71547091739284      0.46456861290266     -1.66463275305763
  H   -0.10336644683966     -0.35738563105618      1.39849026595546
  N   0.95393827034323      1.80230006916230      0.23072757045414
  O   1.24251289922189      1.87182332454265      1.41820736921200
  O   0.67634317518654      2.71469752075558     -0.52999526160213
  C   2.14677271462318     -0.28324344996490     -0.01764649215222
  N   3.14730383206132     -0.85219016183766      0.21638439960318
  C   -0.45435773827171     -1.73456046690720     -0.22435024780916
  H   -0.65420968107690     -1.71666321125830     -1.29750836537815
  H   0.44743805548723     -2.32522438853847     -0.04777432704085
  H   -1.28707057110428     -2.24109372045549      0.26749588041580
  C   -1.59620498653718      0.50156808452290      0.10114313324977
  H   -2.45089183430348     -0.04356827241733      0.50603689427885
  H   -1.55816702432532      1.47171611978908      0.60062828347520
  H   -1.77072482516079      0.66697548540180     -0.96385826607967
