17
Coordinates from ORCA-job run
  C   0.83126302307745      0.36063002458879     -0.42237824594628
  C   -0.28851359393349     -0.31770956432686      0.35956653132190
  F   0.50702046977889      0.48557918488861     -1.73337515662946
  H   0.06970154172975     -0.39251228753980      1.39155583201714
  N   1.02071967351072      1.77369013785746      0.14172029137642
  O   1.44698390747625      1.80824216568189      1.28893065332659
  O   0.68796509195670      2.71045416540300     -0.56483493528058
  C   2.11943668187350     -0.33052552862167     -0.30023031467573
  N   3.12890107008113     -0.92411030071937     -0.20796864245184
  C   -0.52633609780464     -1.71778965970505     -0.20294888944201
  H   0.37653391839499     -2.33167906049030     -0.16721925897504
  H   -1.29534189549797     -2.22025257977492      0.38699278487087
  H   -0.87147869689992     -1.66657389006811     -1.23742865075598
  C   -1.55502056606372      0.53579001541045      0.32060278532725
  H   -2.36571852276616     -0.00039828760647      0.81752568874932
  H   -1.85989783612314      0.73687436360677     -0.70836536740259
  H   -1.42621816879032      1.48929110141557      0.83685489457001
