17
Coordinates from ORCA-job run
  C   0.91954152736720      0.29259835049128     -0.46126829629618
  C   -0.50198709337091     -0.24062278831799     -0.34740120414763
  F   1.52036794279788     -0.19972094473438     -1.57926622254434
  H   -0.96418548208883      0.02537059516598     -1.30602095108379
  N   0.85319028547969      1.81133770370269     -0.63514251581886
  O   0.55325043466031      2.19559463931384     -1.75576522744263
  O   1.03432537889608      2.49375408894563      0.36639694082793
  C   1.74877263596442     -0.00887480748283      0.70907604927552
  N   2.38602864031892     -0.33165421308499      1.64158038200614
  C   -1.26364301381643      0.42159297617354      0.79713651318445
  H   -1.38416358967596      1.49634365491204      0.65375524688089
  H   -0.75947695523142      0.25811105607928      1.75337289994896
  H   -2.26078575844958     -0.01820279811092      0.86454787052540
  C   -0.46697737173278     -1.76074975888703     -0.20428573085539
  H   -1.48448384763167     -2.15313717264520     -0.26157165689282
  H   0.12051820209544     -2.22608898116617     -0.99689045702626
  H   -0.04729193558234     -2.05365160035479      0.76174635945861
