17
Coordinates from ORCA-job run
  C   0.81697761265416      0.45159411725404     -0.61303968095624
  C   -0.44682717204337     -0.38094158500491     -0.39989246223282
  F   0.67388878773295      1.23571307222523     -1.71332525046830
  H   -0.57840334954685     -0.87663426328896     -1.37042303564015
  N   1.01732290602878      1.38927751325493      0.58100735359712
  O   1.49014629873884      0.86557573005077      1.58311784105328
  O   0.63709745137014      2.54158400456545      0.44853221627892
  C   2.03318539504571     -0.35500063264686     -0.75301681526273
  N   2.98518041852355     -1.02278834625687     -0.91891290308687
  C   -1.64796497002196      0.52814519055795     -0.14515837814415
  H   -2.56369654322097     -0.06303069487323     -0.20834241633336
  H   -1.60544022534606      0.96896735462365      0.85401234360081
  H   -1.70962760004665      1.33517711023712     -0.87599953437389
  C   -0.29428920131148     -1.44857771578633      0.67948524412069
  H   -1.19885754276021     -2.06014798298919      0.69935987227686
  H   0.55401354935834     -2.10863012983317      0.48833523421198
  H   -0.16470581515491     -1.00228274208960      1.66626037135887
