16

C	-0.495772	-0.024491	-1.453966
C	0.0	0.0	0.0
F	0.034079	-1.100495	-2.069982
H	1.092505	0.0	0.0
C	-1.962363	-0.088864	-1.53339
N	-3.130742	-0.206714	-1.562826
N	-0.035821	1.211376	-2.237126
O	1.074953	1.143799	-2.732629
O	-0.829073	2.14693	-2.278408
N	-0.509038	-1.136847	0.66995
H	0.135255	-1.417297	1.397697
H	-1.425002	-0.953032	1.06195
N	-0.445779	1.321702	0.61577
O	0.189775	2.322595	0.300998
O	-1.414984	1.291993	1.378316
Br	3.391839	0.0	0.0
