16

C	-0.481258	0.001397	-1.448031
C	0.0	0.0	0.0
F	0.254019	0.7805	-2.256141
H	1.094186	0.0	0.0
C	-0.524651	-1.364182	-1.992405
N	-0.556518	-2.414216	-2.517508
N	-1.940292	0.510005	-1.532439
O	-2.243786	1.194416	-2.492967
O	-2.67563	0.134811	-0.625754
N	-0.431945	-1.138113	0.719761
H	-1.364205	-1.02987	1.092358
H	0.22827	-1.342888	1.456514
N	-0.39289	1.322445	0.639376
O	-0.520171	1.328783	1.858722
O	-0.515119	2.296842	-0.09951
Br	3.330245	0.0	0.0
