16

C	-0.485519	-0.017732	-1.46409
C	0.0	0.0	0.0
F	0.072958	-1.091795	-2.069865
H	1.091914	0.0	0.0
C	-1.947859	-0.115684	-1.578531
N	-3.11276	-0.259625	-1.634442
N	-0.053491	1.231162	-2.233015
O	0.943085	1.137855	-2.926073
O	-0.768331	2.212591	-2.057083
N	-0.426634	-1.129642	0.742035
H	0.246759	-1.876476	0.654421
H	-1.374131	-1.43148	0.568202
N	-0.523661	1.257764	0.639065
O	0.18287	2.258119	0.579387
O	-1.640678	1.186123	1.151393
Br	3.3816	0.0	0.0
