16

C	-0.492672	-0.069612	-1.43758
C	0.0	0.0	0.0
F	-0.139711	0.964517	-2.234587
H	1.093406	0.0	0.0
C	-0.042709	-1.324803	-2.053632
N	0.304236	-2.28674	-2.631212
N	-2.03684	-0.092467	-1.489187
O	-2.640097	0.257688	-0.479733
O	-2.532708	-0.399312	-2.567902
N	-0.445223	-1.173006	0.675012
H	0.288782	-1.498089	1.288558
H	-1.281168	-0.989817	1.210762
N	-0.405481	1.2903	0.678172
O	-0.811491	1.210437	1.834517
O	-0.256378	2.328246	0.04309
Br	3.314028	0.0	0.0
