16

C	-0.503516	0.028239	-1.423722
C	0.0	0.0	0.0
F	-0.309157	-1.206896	-1.990915
H	1.099934	0.0	0.0
H	-0.388583	-0.937294	0.414738
C	-1.945523	0.430427	-1.629259
H	-2.117494	1.419451	-1.21338
H	-2.5766	-0.284757	-1.09771
H	-2.18958	0.405315	-2.69507
N	0.339553	1.00091	-2.242329
O	0.866039	0.609388	-3.274886
O	0.367986	2.153388	-1.816481
N	-0.556328	1.130276	0.783017
H	0.048059	1.917028	0.566616
H	-0.353868	0.911162	1.753192
F	2.672677	0.0	0.0
