16

C	-0.624826	-0.042939	-1.374795
C	0.0	0.0	0.0
F	-0.095233	-1.094706	-2.091436
H	1.09154	0.0	0.0
H	-0.335193	-0.919606	0.501601
C	-2.128066	-0.176937	-1.388081
H	-2.518612	-0.142653	-2.407083
H	-2.374318	-1.14441	-0.943249
H	-2.57345	0.625171	-0.80393
N	-0.232853	1.210387	-2.147576
O	-1.075619	2.103343	-2.25142
O	0.901974	1.249127	-2.604687
N	-0.452139	1.213727	0.701686
H	0.392788	1.671255	1.023912
H	-0.999144	0.981977	1.519447
F	2.655954	0.0	0.0
