16

C	-0.423453	0.011876	-1.457822
C	0.0	0.0	0.0
F	-0.005567	-1.138184	-2.078225
H	1.094795	0.0	0.0
H	-0.38719	0.904461	0.47647
C	-1.900089	0.180248	-1.753378
H	-2.25813	1.126863	-1.351978
H	-2.453289	-0.640744	-1.293786
H	-2.071953	0.148345	-2.832911
N	0.278919	1.162784	-2.155753
O	0.03358	2.275845	-1.696929
O	0.978899	0.92987	-3.130844
N	-0.4314	-1.20082	0.711513
H	-1.335859	-1.539582	0.406964
H	0.2579	-1.914352	0.517053
F	2.644912	0.0	0.0
