16

C	-0.205938	-0.077284	-1.509888
C	0.0	0.0	0.0
F	-0.01018	1.165806	-2.061975
H	1.094631	0.0	0.0
H	-0.378677	-0.926135	0.445168
C	0.752233	-1.053366	-2.138159
H	0.714942	-0.983527	-3.229001
H	1.734633	-0.776548	-1.729735
H	0.511922	-2.068886	-1.826389
N	-1.657037	-0.41497	-1.819504
O	-1.988289	-1.596138	-1.711311
O	-2.433713	0.509165	-2.064363
N	-0.554994	1.17766	0.645298
H	0.091378	1.939722	0.479741
H	-1.442341	1.439647	0.227433
F	2.712295	0.0	0.0
