16

C	0.0	0.0	0.0
C	-0.610151	-0.133397	-1.409225
Cl	1.795744	0.0	0.0
H	-1.699504	-0.059898	-1.24155
C	-0.41156	1.281316	0.586223
N	-0.567249	2.349934	1.052875
C	-0.414825	-1.119541	0.859324
N	-0.627204	-2.046121	1.551229
N	-0.383745	-1.505052	-1.97526
O	-1.328994	-2.004923	-2.576685
O	0.733826	-2.012559	-1.861941
C	-0.111001	0.887441	-2.407476
H	-0.302745	1.893437	-2.031556
H	-0.666761	0.763303	-3.339184
H	0.955112	0.768331	-2.603582
Br	-3.62695	0.0	0.0
