13
Coordinates from ORCA-job run
  C   0.76133495420029      0.49936979567188     -0.35690123676513
  C   -0.57011185521773     -0.23156294720500     -0.27594587487886
  F   1.17146586180044      0.58648470482524     -1.64733477118484
  H   -0.39951949182353     -1.21074554157508     -0.73256836013798
  H   0.75301831265062      1.48862552808465      0.10193952968794
  N   1.77031675920084     -0.31905268980881      0.40271585677625
  O   1.96337815975927     -1.45440330337939     -0.01689311208647
  O   2.30887019640569      0.21930745636637      1.36306012260036
  C   -1.57414628484730      0.49559637803789     -1.07206524411948
  N   -2.40628020809897      1.09447371623659     -1.64535013330617
  N   -0.90398485387121     -0.41645266350086      1.12328048228430
  H   -1.56315714801858     -1.17403150756480      1.23897468597548
  H   -1.31218440213984      0.42239107381133      1.51708805515459
