13
Coordinates from ORCA-job run
  C   0.75314030066869      0.45125990548166     -0.42358802848528
  C   -0.57069130550587     -0.27983867421972     -0.28424104336219
  F   1.30597443011334      0.24298650815589     -1.64862815728311
  H   -0.39607975665736     -1.32777746099515     -0.55189810874901
  H   0.66849436117251      1.51699652623555     -0.21640642802867
  N   1.72023628766532     -0.10508381753400      0.59084111606613
  O   1.64109018811735     -1.30734835564131      0.83619085160699
  O   2.54244850231797      0.68143610884549      1.04715846247582
  C   -1.52226240562235      0.29054449547677     -1.23951415099894
  N   -2.30041027670448      0.76194586853092     -1.98097424174790
  N   -1.01572189509355     -0.09609411217565      1.09485005106799
  H   -2.00511072908960      0.10168935123908      1.14529775896580
  H   -0.82010770138197     -0.93071634339955      1.63091191847238
