13
Coordinates from ORCA-job run
  C   0.86018369582837     -0.41029355714316      0.04541735752658
  C   -0.55118419479270     -0.03672433327825     -0.38091841175612
  F   0.84380161424393     -0.97872997662520      1.27186309589035
  H   -0.47507469809200      0.42172382640278     -1.36982995856562
  H   1.31638141750329     -1.08723627146417     -0.67737004243342
  N   1.71213126982191      0.83516540849884      0.08389963912466
  O   2.17247308501426      1.19560898168140      1.15574327948599
  O   1.84725841544016      1.37546202680868     -1.00996171627150
  C   -1.10909625853525      0.96265659389216      0.55383675408188
  N   -1.60167275921986      1.72424979635097      1.30012017180208
  N   -1.31623687505558     -1.26603903673922     -0.48546329826384
  H   -1.48821383001603     -1.64675286920962      0.43740875744874
  H   -2.21075088214050     -1.08709058917522     -0.92374562806980
