13
Coordinates from ORCA-job run
  C   0.84355013292588     -0.43695931927140      0.10303873287010
  C   -0.53596404984666     -0.04132579486558     -0.40071451519449
  F   0.75845934153011     -0.93720803934515      1.35606905417051
  H   -0.40523534692462      0.35875131763496     -1.40921833114856
  H   1.30493129378072     -1.16612807165134     -0.56333603124834
  N   1.73422854884758      0.78139068780218      0.11112599803198
  O   1.94426740429322      1.24712950102725     -1.00495330966359
  O   2.14597297417838      1.19739839316074      1.18257547846597
  C   -1.09397308862793      1.02755086875468      0.45381447041012
  N   -1.58525727314395      1.84974101180859      1.13376920312459
  N   -1.33985835535552     -1.24800764814612     -0.46978994504314
  H   -2.20839391288401     -1.06449248800770     -0.95569509715083
  H   -1.56372766877320     -1.56984041890110      0.46431429237568
