13
Coordinates from ORCA-job run
  C   0.75120733795390      0.57008892349617     -0.25213283122301
  C   -0.53705488318094     -0.22401798019070     -0.38269915806769
  F   1.38129864437264      0.68922019793108     -1.45173146456336
  H   -0.29102256617327     -1.16605585735597     -0.88493284637752
  H   0.59753241213787      1.54887574174582      0.19976219842236
  N   1.68717036919750     -0.18037724175968      0.66039274692453
  O   1.66857219683039     -1.40757573112623      0.58890561989312
  O   2.42529964319709      0.50007551840229      1.36388380422023
  C   -1.46639371452087      0.52624881709277     -1.22910952995141
  N   -2.23005363676886      1.13885778840700     -1.87654388393571
  N   -1.06455063223956     -0.40376753480856      0.96785629972556
  H   -0.86026449370752     -1.33877451056708      1.29355814414978
  H   -2.06274067709836     -0.25279813126692      1.00379090078310
