17

C	-0.426999	0.01502	-1.447681
C	0.0	0.0	0.0
Br	0.146819	1.675957	-2.261021
H	1.09033	0.0	0.0
N	0.234726	-1.119575	-2.237694
O	0.148451	-1.070291	-3.458634
O	0.842408	-1.9547	-1.57795
N	-1.943737	-0.070275	-1.682295
O	-2.595081	0.747307	-1.040864
O	-2.38832	-0.906948	-2.449485
N	-0.498314	-1.22896	0.655884
O	-0.020973	-1.495094	1.754298
O	-1.348623	-1.914823	0.066477
N	-0.305148	1.129856	0.80926
H	0.530206	1.701396	0.88742
H	-1.10378	1.656709	0.491055
H	2.484473	0.0	0.0
