17

C	-0.47282	0.022342	-1.435777
C	0.0	0.0	0.0
Br	0.292012	1.550922	-2.330771
H	1.093186	0.0	0.0
N	-0.127015	-1.229246	-2.270419
O	-1.05462	-1.998353	-2.494147
O	1.033091	-1.343934	-2.62137
N	-2.014932	0.131293	-1.569803
O	-2.477353	0.436631	-2.658708
O	-2.653227	-0.136631	-0.556422
N	-0.368701	-1.271837	0.664269
O	-0.05662	-2.297349	0.044474
O	-0.838979	-1.255538	1.79908
N	-0.336227	1.132636	0.767723
H	-1.226342	1.56237	0.578038
H	0.436492	1.785696	0.772
H	2.46457	0.0	0.0
