17

C	-0.594821	0.002839	-1.37133
C	0.0	0.0	0.0
Br	-2.539202	-0.260647	-1.437215
H	1.091254	0.0	0.0
N	-0.257341	1.372135	-1.991658
O	0.913125	1.462462	-2.344031
O	-1.11358	2.234126	-2.051235
N	0.052133	-0.973309	-2.355788
O	1.03935	-1.580472	-1.968792
O	-0.423356	-0.980195	-3.485883
N	-0.386279	-1.201049	0.732384
O	-0.350693	-1.128162	1.972039
O	-0.625029	-2.239776	0.098899
N	-0.279709	1.219725	0.679747
H	0.523411	1.422963	1.268561
H	-1.107324	1.142308	1.256495
H	2.360931	0.0	0.0
