17

C	-0.608881	0.006892	-1.364269
C	0.0	0.0	0.0
Br	-2.557107	-0.246091	-1.420875
H	1.091208	0.0	0.0
N	-0.271807	1.374608	-1.984965
O	-1.124972	2.241941	-2.031786
O	0.895427	1.460737	-2.347797
N	0.029224	-0.968222	-2.35399
O	1.002483	-1.597647	-1.966596
O	-0.438791	-0.95496	-3.487435
N	-0.381879	-1.193443	0.742238
O	-0.651571	-2.230039	0.116517
O	-0.314852	-1.118312	1.980029
N	-0.258625	1.225968	0.681899
H	-1.067524	1.152324	1.286313
H	0.563883	1.429907	1.245105
H	2.350338	0.0	0.0
