17

C	-0.427601	-0.013596	-1.485409
C	0.0	0.0	0.0
Br	0.400568	-1.595813	-2.323731
H	1.114442	0.0	0.0
N	-1.90219	-0.038466	-1.699762
O	-2.498051	1.078027	-1.366366
O	-2.288761	-0.609514	-2.83154
N	0.033926	1.203924	-2.216499
O	-0.358868	1.165292	-3.483578
O	1.391796	1.306721	-2.029341
N	-0.472233	-1.160091	0.790807
O	0.262638	-1.338534	1.879474
O	-1.763268	-1.202592	0.93182
N	-0.418296	1.187369	0.746411
H	-1.442465	1.271604	0.742281
H	-0.047509	2.019796	0.26741
H	2.503759	0.0	0.0
