17

C	-0.614808	0.05168	-1.357518
C	0.0	0.0	0.0
Br	-2.562648	-0.214502	-1.424906
H	1.092111	0.0	0.0
N	-0.289763	1.444697	-1.929413
O	0.885651	1.561142	-2.261857
O	-1.156919	2.296798	-1.97449
N	0.025303	-0.883074	-2.386155
O	0.972967	-1.558031	-2.013882
O	-0.417245	-0.799464	-3.526362
N	-0.371757	-1.209654	0.717351
O	-0.681456	-2.225495	0.077276
O	-0.245583	-1.171155	1.950911
N	-0.244184	1.209443	0.717884
H	-1.033681	1.117579	1.343738
H	0.594189	1.397712	1.26496
H	2.33669	0.0	0.0
