18

C	-0.556549	0.019173	-1.432391
C	0.0	0.0	0.0
Br	0.190762	-1.487629	-2.477589
H	1.099822	0.0	0.0
C	-2.076991	-0.077783	-1.496114
H	-2.406429	-1.043458	-1.109862
H	-2.485355	0.72569	-0.87939
H	-2.432072	0.026928	-2.523468
C	-0.128573	1.238724	-2.121531
N	0.136318	2.237166	-2.683559
C	-0.48061	-1.186062	0.814057
H	0.130025	-1.23429	1.720482
H	-1.534831	-1.094328	1.102654
H	-0.340989	-2.126074	0.277658
N	-0.443073	1.271884	0.613886
H	-0.691012	1.095707	1.581742
H	0.380108	1.870067	0.638572
H	2.867044	0.0	0.0
