18

C	-0.287349	0.030764	-1.497766
C	0.0	0.0	0.0
Br	-2.271379	0.37413	-1.876421
H	1.099167	0.0	0.0
C	0.520361	1.113752	-2.185756
H	1.568405	0.935553	-1.895408
H	0.217038	2.093702	-1.817405
H	0.398357	1.082145	-3.269753
C	-0.038814	-1.262133	-2.127095
N	0.167556	-2.302791	-2.634948
C	-0.559961	-1.205193	0.724611
H	-1.655467	-1.188938	0.736722
H	-0.221703	-2.142108	0.275609
H	-0.202406	-1.167028	1.754904
N	-0.358205	1.234557	0.686491
H	0.410089	1.889568	0.599993
H	-1.200471	1.645282	0.300793
H	2.802924	0.0	0.0
