18

C	-0.389442	-0.036993	-1.499351
C	0.0	0.0	0.0
Br	0.158548	1.667738	-2.362813
H	1.096609	0.0	0.0
C	0.326517	-1.163996	-2.235541
H	-0.071854	-2.127132	-1.909171
H	0.189435	-1.077702	-3.315032
H	1.387302	-1.09989	-1.973498
C	-1.840094	-0.095397	-1.666366
N	-3.011864	-0.180316	-1.737889
C	-0.45883	-1.276545	0.697046
H	-1.548414	-1.404934	0.668018
H	0.020744	-2.164668	0.281386
H	-0.149224	-1.188673	1.739655
N	-0.488695	1.147651	0.74025
H	0.052395	1.96236	0.476601
H	-1.466626	1.329375	0.532688
H	2.929369	0.0	0.0
