18

C	-0.289427	0.039586	-1.496299
C	0.0	0.0	0.0
Br	-2.277185	0.352799	-1.868988
H	1.099139	0.0	0.0
C	0.500569	1.1431	-2.173236
H	0.17772	2.115428	-1.798308
H	1.551408	0.977262	-1.882126
H	0.381063	1.120306	-3.258121
C	-0.013465	-1.241673	-2.140052
N	0.196858	-2.274375	-2.66017
C	-0.554509	-1.213947	0.71309
H	-0.184949	-1.188709	1.739285
H	-1.649803	-1.202775	0.738141
H	-0.217717	-2.143683	0.247779
N	-0.369107	1.223296	0.69778
H	0.379128	1.898631	0.592008
H	-1.231049	1.611733	0.338513
H	2.808438	0.0	0.0
