18

C	-0.372783	0.031508	-1.474012
C	0.0	0.0	0.0
Br	-2.369987	0.294627	-1.709427
H	1.098867	0.0	0.0
C	0.348496	1.162753	-2.181333
H	1.420921	1.004625	-2.000895
H	0.128819	1.175793	-3.250829
H	0.050635	2.101186	-1.715986
C	-0.103592	-1.244987	-2.13112
N	0.116822	-2.270071	-2.663418
C	-0.497704	-1.217956	0.755002
H	-0.179839	-2.147916	0.277053
H	-0.065355	-1.199137	1.759421
H	-1.591137	-1.221623	0.839165
N	-0.362867	1.273587	0.615263
H	-1.186622	1.167972	1.195119
H	0.417109	1.5551	1.201218
H	2.806227	0.0	0.0
