16

C	0.0	0.0	0.0
C	-0.330011	0.274785	-1.475003
F	1.429442	0.0	0.0
H	0.127091	-0.54819	-2.04256
H	0.211447	1.183179	-1.763283
C	-0.521336	1.049645	0.945003
H	-1.613053	1.02076	0.938969
H	-0.176278	2.038414	0.631762
H	-0.160372	0.860172	1.960431
N	-0.482401	-1.284241	0.361364
H	0.020017	-2.008391	-0.133576
H	-0.442674	-1.447871	1.35764
N	-1.721431	0.400794	-1.852645
H	-2.107874	1.27002	-1.508465
H	-2.286915	-0.305013	-1.388941
Br	-4.616968	0.0	0.0
