16

C	0.0	0.0	0.0
C	-0.297849	-0.730651	-1.331834
F	1.397701	0.0	0.0
H	0.051767	-0.063441	-2.128406
H	0.382919	-1.587283	-1.322398
C	-0.45342	1.446761	0.010144
H	0.00237	1.998618	-0.815498
H	-0.164799	1.920642	0.95461
H	-1.542297	1.47265	-0.081995
N	-0.478748	-0.783635	1.104112
H	-1.477156	-0.924051	0.9554
H	-0.395504	-0.244546	1.960915
N	-1.62656	-1.20481	-1.649273
H	-2.344844	-0.512619	-1.457627
H	-1.86163	-1.991593	-1.05725
Br	-4.282146	0.0	0.0
