15

C	-0.559743	0.029625	-1.425374
C	0.0	0.0	0.0
Cl	0.13756	-1.356274	-2.33658
H	1.097336	0.0	0.0
H	-0.351726	-0.930734	0.45586
C	-2.079134	-0.087137	-1.445937
H	-2.365618	-1.036705	-0.987789
H	-2.495769	0.735652	-0.863838
H	-2.458624	-0.05813	-2.468775
C	-0.166926	1.265911	-2.10739
N	0.065789	2.284181	-2.643644
N	-0.547106	1.151152	0.737108
H	0.121949	1.910079	0.644705
H	-0.557221	0.916736	1.72266
Cl	3.504735	0.0	0.0
