15

C	-0.421519	0.051044	-1.470861
C	0.0	0.0	0.0
Cl	-2.231088	0.25157	-1.575948
H	1.094622	0.0	0.0
H	-0.367193	-0.930525	0.448439
C	0.250208	1.206965	-2.19005
H	-0.055281	1.251952	-3.236754
H	-0.025387	2.127561	-1.67651
H	1.332522	1.066209	-2.113611
C	-0.129181	-1.224319	-2.127271
N	0.086605	-2.249869	-2.658382
N	-0.432591	1.208892	0.690675
H	0.30572	1.497099	1.318741
H	-1.271846	1.042136	1.227355
Cl	3.433409	0.0	0.0
