15

C	-0.420542	0.0697	-1.470267
C	0.0	0.0	0.0
Cl	-2.230518	0.273498	-1.572758
H	1.094539	0.0	0.0
H	-0.367381	-0.936344	0.436324
C	0.252873	1.233188	-2.17604
H	-0.021818	2.148175	-1.651877
H	1.335138	1.090339	-2.101166
H	-0.052221	1.290733	-3.222243
C	-0.131278	-1.198233	-2.14175
N	0.079259	-2.217688	-2.686323
N	-0.43225	1.200403	0.705227
H	0.299599	1.470903	1.348335
H	-1.281653	1.032437	1.226321
Cl	3.433445	0.0	0.0
