15

C	-0.425849	-0.011691	-1.465405
C	0.0	0.0	0.0
Cl	-2.209027	0.354627	-1.573191
H	1.094843	0.0	0.0
H	-0.319258	0.967002	0.409523
C	0.344795	1.036438	-2.253696
H	0.05026	1.035656	-3.304391
H	1.412663	0.821351	-2.153036
H	0.147493	2.022533	-1.827595
C	-0.251353	-1.339094	-2.057158
N	-0.101941	-2.380086	-2.579728
N	-0.522522	-1.141361	0.73198
H	-1.261695	-0.868059	1.362516
H	0.225895	-1.557017	1.268989
Cl	3.446404	0.0	0.0
