15

C	-0.417505	0.033528	-1.468999
C	0.0	0.0	0.0
Cl	-2.165555	0.504653	-1.610779
H	1.09898	0.0	0.0
H	-0.338147	0.940318	0.444729
C	0.433316	1.035384	-2.236319
H	0.287467	2.028514	-1.804836
H	1.485715	0.760896	-2.119403
H	0.154272	1.059906	-3.29105
C	-0.306878	-1.300562	-2.063829
N	-0.203918	-2.362998	-2.554551
N	-0.599554	-1.129857	0.705282
H	-0.684041	-0.894619	1.68567
H	0.050546	-1.906282	0.654874
Cl	3.480567	0.0	0.0
