15

C	-0.371155	0.026507	-1.491504
C	0.0	0.0	0.0
Cl	-2.157471	0.360303	-1.662229
H	1.095378	0.0	0.0
H	-0.339172	0.951641	0.422677
C	0.415909	1.103963	-2.218948
H	0.182723	2.072658	-1.772116
H	0.168074	1.130621	-3.281771
H	1.482069	0.902136	-2.074956
C	-0.152135	-1.288795	-2.095283
N	0.018388	-2.347753	-2.574895
N	-0.511753	-1.103578	0.779681
H	0.018718	-1.940538	0.573463
H	-1.489323	-1.274735	0.572707
Cl	3.467356	0.0	0.0
