15

C	-0.383527	-0.048988	-1.500572
C	0.0	0.0	0.0
Cl	-0.075817	1.573718	-2.219845
H	1.094033	0.0	0.0
H	-0.386679	0.924597	0.434887
C	0.458313	-1.077822	-2.243704
H	0.239415	-1.067728	-3.312896
H	1.511694	-0.846692	-2.065402
H	0.243749	-2.073981	-1.848695
C	-1.814522	-0.322805	-1.656318
N	-2.956914	-0.590747	-1.729296
N	-0.444879	-1.146399	0.769395
H	-1.400619	-1.411787	0.568462
H	0.170631	-1.933058	0.62318
Cl	3.489896	0.0	0.0
