15

C	-0.383732	-0.05753	-1.499193
C	0.0	0.0	0.0
Cl	-0.068662	1.560389	-2.230137
H	1.094735	0.0	0.0
H	-0.387113	0.926575	0.429643
C	0.453505	-1.095188	-2.236165
H	0.236636	-1.086713	-3.305709
H	0.230694	-2.088691	-1.83842
H	1.50834	-0.87068	-2.056759
C	-1.816503	-0.326583	-1.653194
N	-2.960357	-0.591478	-1.715048
N	-0.443726	-1.142149	0.776799
H	0.175378	-1.927446	0.639798
H	-1.396264	-1.410697	0.573257
Cl	3.493695	0.0	0.0
