13
Coordinates from ORCA-job run
  C   -0.29113064711385      0.39134178423199      0.30460143402179
  C   1.19786812653886      0.07733419752845      0.06102110291652
  Br  -0.68900186065906      2.16377413389894     -0.43905652886023
  H   1.82000399721818      0.86326800421399      0.49598972254454
  H   1.43957717186586     -0.86223504728077      0.57052928823838
  C   -0.50929801276675      0.46251927932429      1.74750228719093
  N   -0.66501171937276      0.47465077356354      2.91264094114021
  C   -1.21628863642622     -0.63929412638126     -0.33243788513159
  H   -1.06797071437045     -0.65505391489052     -1.41308651642009
  H   -0.99276375146121     -1.62908342574750      0.07658083409093
  H   -2.25781689798188     -0.39741742435287     -0.12051024913053
  C   1.50041547147104     -0.05986555311893     -1.36077238337827
  N   1.73141747305826     -0.18893868098934     -2.50400204722260
