13
Coordinates from ORCA-job run
  C   -0.31165301032083      0.27551774009593      0.17023921843681
  C   0.91605176310443     -0.17994197763259     -0.63614655536936
  Br  -0.62171895553919      2.18036821970467     -0.18233841519953
  H   1.05272456058164     -1.25516338891297     -0.47476201249805
  H   0.71359324562522     -0.02061158305983     -1.69910127628647
  C   -0.06181681983662      0.12076737602611      1.60088721576920
  N   0.12610930047282     -0.05948816948106      2.74719939760919
  C   -1.54970556453563     -0.51346475222947     -0.24574465651164
  H   -1.73711130724875     -0.37215356702638     -1.31177909851991
  H   -2.42307654581633     -0.17657756799736      0.31259553835238
  H   -1.39036186900065     -1.57639632460221     -0.04321523133703
  C   2.14479867737689      0.51597919662459     -0.26553684247602
  N   3.14116652513699      1.06216479849056      0.02770271803041
