13
Coordinates from ORCA-job run
  C   -0.39448835015396      0.45210070681524      0.20118184756011
  C   0.93554111338990      0.59443423436516     -0.56327352993771
  Br  -1.41292093533179      2.10035338790332     -0.12774210430290
  H   0.71540256939330      0.73998488178391     -1.62466709112886
  H   1.47756039413845      1.47467242914281     -0.20886703611428
  C   -0.14081914903657      0.37335624100852      1.63755375750233
  N   0.07416919027954      0.28078133905143      2.78953175745898
  C   -1.21146354260625     -0.74336282032884     -0.27466287678441
  H   -0.65761092072679     -1.66546073802556     -0.08092174929038
  H   -1.40254699694495     -0.65557952927830     -1.34603652065474
  H   -2.16505180607935     -0.78636676703101      0.25171039654898
  C   1.76602411853111     -0.59720999681074     -0.39469960673054
  N   2.41520431514735     -1.56570336859594     -0.25810724412659
