13
Coordinates from ORCA-job run
  C   -0.37547236366039      0.47943004303531      0.17296562221493
  C   0.93104012005868      0.51374879032636     -0.64323310083516
  Br  -1.35979363229101      2.12202598540264     -0.26867194802323
  H   0.67893590852173      0.57136613646110     -1.70594085527984
  H   1.50846959386998      1.40518178934261     -0.38597507793091
  C   -0.07282089237281      0.52097188717596      1.60120686002782
  N   0.18870282373031      0.52753510980246      2.74736849313376
  C   -1.24021108435967     -0.72827646174846     -0.16830568562644
  H   -1.46572267301614     -0.72872642267089     -1.23650870751196
  H   -2.17593094934392     -0.69678913574721      0.38999067178215
  H   -0.70502909480491     -1.64600607829338      0.08812485490490
  C   1.73307677881047     -0.68341709867660     -0.39526157102531
  N   2.35575546485768     -1.65804454440990     -0.19475955583072
