13
Coordinates from ORCA-job run
  C   -0.73069254302279     -0.45445467904506     -0.74857342019863
  C   -0.04864729383674      0.40602859786596      0.30489329290567
  F   0.14487656467165     -0.75521574656509     -1.75693316970630
  H   -0.76822581212059      0.83149992419829      1.00460548133835
  H   -1.54351916936944      0.14137265021357     -1.17434681687287
  C   -1.28221778492400     -1.67002449119129     -0.14110661922772
  N   -1.77536571769551     -2.60974418151403      0.36010504040121
  N   0.61334804433038      1.56378638594152     -0.40819416741720
  O   -0.17729456696117      2.30457604725220     -0.97783937132069
  O   1.83019501369134      1.64656214098052     -0.37070335411876
  N   0.98965250294999     -0.30759619586094      1.10686666967771
  O   1.47848803886508     -1.32444677661890      0.62754849262445
  O   1.27040272342181      0.22865632434325      2.17367794191478
