13
Coordinates from ORCA-job run
  C   -0.62856380879022     -0.67445064344270     -0.77055735894220
  C   0.53501012264616      0.20872851149389     -0.33556560693867
  F   -0.10403208652428     -1.89105754652209     -1.13604859983771
  H   1.20444429594062      0.40860093848496     -1.17158713500903
  H   -1.08503329136298     -0.21437304533453     -1.65012790361138
  C   -1.65691300147077     -0.83597066822530      0.26273888111266
  N   -2.54187640405045     -0.92739294549049      1.02815467578183
  N   1.35740723548264     -0.40259747912966      0.75087056821495
  O   0.77859840037098     -1.11297533723189      1.56346628495747
  O   2.54688443763162     -0.10348067248612      0.73061372062313
  N   0.00001929565092      1.53249960303302      0.14332549856043
  O   0.24839823464801      1.88106953452457      1.28721239171557
  O   -0.65434343017225      2.13139975032633     -0.70249541662706
