13
Coordinates from ORCA-job run
  C   -0.97534636190480     -0.36978088749774     -0.46131826225044
  C   0.08276889307502      0.34819427656271      0.36326001697078
  F   -0.58070718911943     -0.45594285322976     -1.76953677571495
  H   -0.28879056286687      0.61482383711338      1.35282469878062
  H   -1.88289818572089      0.24005943917527     -0.42277414742386
  C   -1.25293458309151     -1.69598424611598      0.09963305801845
  N   -1.51619669403756     -2.73037731146839      0.58765529696047
  N   0.41656783944532      1.64126910246796     -0.34676572502430
  O   1.54639439335661      1.78619052909674     -0.78430194753186
  O   -0.52683365388280      2.41779498052987     -0.41845970198356
  N   1.34722636400108     -0.42435568324908      0.55226579576295
  O   1.58765218110545     -1.32513147126987     -0.24343927979667
  O   2.04109755964039     -0.04775971211511      1.49095697323237
