13
Coordinates from ORCA-job run
  C   -1.07349608649927     -0.29761312599675     -0.20549570264267
  C   0.38726537991775      0.11411809263963     -0.28124512332401
  F   -1.67663504937968      0.18089405098924     -1.34879514923753
  H   0.90529166423135     -0.29811261363557     -1.14486115282875
  H   -1.54591025526474      0.15969536435376      0.66381658155297
  C   -1.18276934142296     -1.75812541613649     -0.15628677447189
  N   -1.25892968445276     -2.92935749045139     -0.14003286527676
  N   1.13781872739203     -0.27840516909226      0.95512559713129
  O   0.47099005351188     -0.54839248365519      1.95021795836649
  O   2.35929614125740     -0.25638145592752      0.85809543649150
  N   0.47092182967468      1.61273487661731     -0.36797844095146
  O   1.15597282075678      2.07151942184007     -1.27316122115561
  O   -0.15081619972246      2.22842594845515      0.49160085634644
