13
Coordinates from ORCA-job run
  C   -0.98132130491503     -0.44556392925049     -0.35296436072056
  C   0.38546735911549      0.20554004789698     -0.22751361354746
  F   -1.54342881982033      0.03854539427615     -1.51433025825484
  H   1.04810526627905     -0.02069992185707     -1.06034374293924
  H   -1.60901686187315     -0.16184227668821      0.49167532459056
  C   -0.83755646237493     -1.90181549487301     -0.43528319329034
  N   -0.70852784124301     -3.06539413649391     -0.52062930166089
  N   1.07060426715611     -0.18932447154558      1.04552468359355
  O   2.27995285882407      0.00715029499949      1.07676585164821
  O   0.36128199662120     -0.63389674726624      1.94399757730554
  N   0.21714779553149      1.69923685062624     -0.16914121288625
  O   -0.59812160009617      2.11030804447619      0.64974491289645
  O   0.91641334679521      2.35775634569944     -0.92850266673474
