13
Coordinates from ORCA-job run
  C   -0.69334037941450     -0.47056627062187     -0.77333278066262
  C   -0.06502709980503      0.41021056127045      0.29652846135309
  F   0.22922844654048     -0.77982363349973     -1.73667160677306
  H   -0.81771597561656      0.84027240313440      0.95752721483310
  H   -1.48969590865718      0.11301384456676     -1.24475123292101
  C   -1.26329161070726     -1.68150555109710     -0.17406555406309
  N   -1.77169585903658     -2.61863410398748      0.31667026340008
  N   0.61972520419900      1.56253297147855     -0.40333641301933
  O   1.83312289571398      1.65499455159250     -0.31415993013440
  O   -0.15033489169236      2.28945169406181     -1.01721139851877
  N   0.94133779519438     -0.28407083906035      1.15463446789643
  O   1.17172692973161      0.27079786635417      2.22396179170868
  O   1.45596045355002     -1.30567349419213      0.71420671690089
