13
Coordinates from ORCA-job run
  C   -0.67347035885298     -0.62512494308262     -0.77380109352179
  C   0.53641411392519      0.19467501996247     -0.34163829467047
  F   -0.21001375913884     -1.85253534849948     -1.18362921681994
  H   1.19597231532964      0.38770464101220     -1.18706762174703
  H   -1.12812497357613     -0.12178896177432     -1.63033786253748
  C   -1.68594763536998     -0.77157727253259      0.27721731753237
  N   -2.55755123841286     -0.84692805642385      1.05955786021864
  N   1.35389028681678     -0.48072912859572      0.70991679501516
  O   0.76195957138125     -1.18788632348634      1.51588423559032
  O   2.55457594295807     -0.23241321105231      0.67154408227632
  N   0.07034273634348      1.52692298466972      0.18352616958237
  O   0.35738003172408      1.83308040963718      1.33050253736488
  O   -0.57442703312770      2.17660019016565     -0.63167490828334
