13
Coordinates from ORCA-job run
  C   -1.03930456617513     -0.35443865536199     -0.28330843331602
  C   0.40130082570867      0.12702416252209     -0.25564272321445
  F   -1.57036556636298      0.06003669649073     -1.48542776257574
  H   1.00553357301348     -0.27695898381352     -1.06532590931703
  H   -1.60152602045092      0.10255630471619      0.53095365754616
  C   -1.08110286933787     -1.81683754853368     -0.19468794864030
  N   -1.10113599219011     -2.98936525584169     -0.14338735185655
  N   1.06874924211042     -0.20219742274819      1.04515895167068
  O   2.29358145548314     -0.15969976790800      1.03527383314298
  O   0.33607883041309     -0.44504492349202      2.00027388172550
  N   0.42291748904248      1.62652847242996     -0.37229861718088
  O   -0.30997891872995      2.23029285354650      0.40396539905550
  O   1.17625251747569      2.09810406799362     -1.21454697703986
