13
Coordinates from ORCA-job run
  C   -1.04562785169020     -0.32572393129927     -0.29041136707375
  C   0.40883183520339      0.11236894812944     -0.24945949508406
  F   -1.55368644013441      0.10734187653363     -1.49596842680026
  H   1.01021455708900     -0.31625584027373     -1.04869460441671
  H   -1.60067421929217      0.14665909384935      0.52016878204533
  C   -1.13333658544290     -1.78618414229507     -0.20593408706671
  N   -1.19061835321317     -2.95767689964283     -0.15926408700639
  N   1.05214485429021     -0.22421155364747      1.06196126464516
  O   0.30479942093426     -0.49607332111805      1.99739602114841
  O   2.27581875665432     -0.15990487290909      1.07821387094609
  N   0.47423512431448      1.60922790811891     -0.37776065748683
  O   1.21845079081844      2.05311144537604     -1.24262319289608
  O   -0.22155188953126      2.23832128917813      0.41237597904581
