13
Coordinates from ORCA-job run
  C   -0.96382319976024     -0.44105595148692     -0.40446735813730
  C   0.39320177774967      0.21259802314584     -0.20708969009607
  F   -1.48065510839575      0.06777206372477     -1.57611924096860
  H   1.09192025906170      0.00844927142706     -1.01574889629908
  H   -1.62671033455558     -0.18018712215620      0.42047038155928
  C   -0.80886394757288     -1.89450278834856     -0.51484490526843
  N   -0.66934865374299     -3.05505800710719     -0.62225424860514
  N   1.02610014721886     -0.20964899412353      1.08456086115849
  O   0.28129459968824     -0.67697898919771      1.94177897960132
  O   2.23201600122523     -0.00943864791405      1.17139323530050
  N   0.21578927903445      1.70354379892643     -0.11961153249924
  O   0.94596941384186      2.38287955109529     -0.82999028514880
  O   -0.63689023379257      2.09162779201476      0.67192269940307
