13
Coordinates from ORCA-job run
  C   -0.79164258076885     -0.44101109647437     -0.69688586060007
  C   0.00782557043877      0.41707014899171      0.27470437243254
  F   0.01184358813802     -0.90961561867157     -1.69981056535491
  H   -0.63350425146686      0.82527227251037      1.05754639280244
  H   -1.56888110167185      0.18409254875495     -1.14273474763043
  C   -1.40130994123317     -1.56116348070844      0.03092745962137
  N   -1.90097143342881     -2.44377831937003      0.62199802469984
  N   0.63160747677545      1.59367007082865     -0.43733405399907
  O   -0.01025574266537      2.04577076377512     -1.37708041734388
  O   1.66774275839578      2.03291232395532      0.03751343557176
  N   1.08022793458441     -0.37985415173449      0.94797723883203
  O   0.90295122267448     -0.60228291911342      2.14248323607385
  O   2.00436650022800     -0.76108254274379      0.24169548489454
