13
Coordinates from ORCA-job run
  C   -1.00964000454017     -0.37995888258891     -0.35056801056300
  C   0.41252293417556      0.13965879279666     -0.22902667555635
  F   -1.47506467013406      0.02883551879047     -1.58152639846429
  H   1.07804185838752     -0.24291583357599     -1.00016863786875
  H   -1.63465089176935      0.05563091425048      0.42891201145737
  C   -1.01686955775692     -1.84366081246968     -0.27322707450248
  N   -1.00797968979980     -3.01661740595390     -0.23018138326664
  N   1.00504830098201     -0.18037833868781      1.11019784321229
  O   2.22631861547382     -0.10421595175642      1.17796813592480
  O   0.22056092430706     -0.45076998439247      2.01532213802965
  N   0.40159925572842      1.63974622036041     -0.33598206974907
  O   1.19452057532294      2.13708621536785     -1.12546964346172
  O   -0.39540765037703      2.21855954785931      0.39474976480820
