13
Coordinates from ORCA-job run
  C   -0.67162876907254     -0.62335760861705     -0.77707697079246
  C   0.52694461383762      0.21277187979512     -0.34511526944118
  F   -0.18865228819614     -1.83209164599945     -1.21887097526105
  H   1.17003587377710      0.43742859529377     -1.19540328979073
  H   -1.14900406718030     -0.11242167200664     -1.61657044092625
  C   -1.66558050286818     -0.81277961365048      0.28465708079498
  N   -2.52434454140786     -0.92188171504092      1.07708851224427
  N   1.37369076728800     -0.46669486114089      0.68040746212046
  O   0.80849537827525     -1.20270615826108      1.47971479145537
  O   2.56822254890966     -0.19211073270559      0.63030741489511
  N   0.04099159437911      1.52387821454200      0.21444224422333
  O   -0.62905359963053      2.17638816761660     -0.57777174612243
  O   0.33888299188879      1.81257715017459      1.36319118660059
