13
Coordinates from ORCA-job run
  C   -0.48270739944893     -0.59723498771855     -0.92308983210179
  C   0.52577503280737      0.32284561609476     -0.24342899928635
  F   0.22025132268535     -1.68694707303838     -1.38376964073271
  H   1.23104813332173      0.72823078218462     -0.96907889925382
  H   -0.90422154842230     -0.06811154070983     -1.77988066444500
  C   -1.57992356880496     -1.02160693673018     -0.04741175048700
  N   -2.51568655040353     -1.33532990717711      0.58772171830859
  N   1.32465442878190     -0.38845280989684      0.79862813639130
  O   0.70812968711244     -1.13496796608134      1.54879689857249
  O   2.52490580141865     -0.13636473854056      0.81165563907888
  N   -0.18330395305685      1.48618961544400      0.39778326035729
  O   -1.02473339014558      2.01372676221487     -0.32092128356645
  O   0.15581200415469      1.81802318395455      1.52299541716457
