13
Coordinates from ORCA-job run
  C   -0.78021220775155     -0.43510348953823     -0.70632153525779
  C   -0.03100395397963      0.38905216137286      0.33021912956374
  F   0.01778016368297     -0.66444609431448     -1.79519886324913
  H   -0.69728265305252      0.76149565492944      1.10848460742687
  H   -1.63599000333028      0.16199408688044     -1.03556459541748
  C   -1.25821755560691     -1.69223118517600     -0.12204455970016
  N   -1.69264129562311     -2.66856115139427      0.36332942022143
  N   0.54322490291116      1.59586804042917     -0.37694256135234
  O   -0.30894953168114      2.35404915709487     -0.82118022322438
  O   1.75657878111561      1.69419433193691     -0.46056113882972
  N   1.08695799049949     -0.33590919085255      1.00591320991783
  O   1.53395809339578     -1.33517748483306      0.45429595146573
  O   1.46479726942013      0.17377516346490      2.05557115843540
