13
Coordinates from ORCA-job run
  C   -1.04596651418800     -0.34247596713480     -0.27377768990283
  C   0.40183920659753      0.11741763374973     -0.25915525787893
  F   -1.57637319568319      0.06361345183234     -1.47915357740672
  H   0.99637832500293     -0.30666218746168     -1.06573586836383
  H   -1.59722139054086      0.13435928659816      0.53654411889476
  C   -1.10955367014344     -1.80268896879338     -0.16518627453848
  N   -1.14712325394010     -2.97398553089357     -0.09806302167978
  N   1.07022723671470     -0.20409874333439      1.04318371884169
  O   0.33831148228284     -0.42307957341643      2.00462008028704
  O   2.29549798764714     -0.18062446491113      1.02734316310518
  N   0.44549313691800      1.61477079334352     -0.39635654528655
  O   1.20240929472764      2.06344183756141     -1.24785222470337
  O   -0.27491864539518      2.24001243286022      0.37458937863183
