13
Coordinates from ORCA-job run
  C   -1.07129271754833     -0.31020918958268     -0.20662496823150
  C   0.38213838236742      0.12474635032265     -0.28430488813413
  F   -1.68691403105703      0.16641504268782     -1.34381941471411
  H   0.90172050091922     -0.26509848858978     -1.15718087331665
  H   -1.54774485609589      0.13256158626149      0.66792139081094
  C   -1.15512519570501     -1.77293270416194     -0.16743604378185
  N   -1.21000279522594     -2.94542805883015     -0.15704006140205
  N   1.14473127509979     -0.27736638944824      0.94145887957529
  O   2.36504820552356     -0.27754946772472      0.82738459706033
  O   0.48706966772460     -0.53050397253558      1.94715983792078
  N   0.44575054021555      1.62651219273466     -0.34629407675396
  O   -0.19950645189665      2.22157170920225      0.51029607338342
  O   1.14312747567870      2.10728138966423     -1.23052045241653
