13
Coordinates from ORCA-job run
  C   -0.78232562405994     -0.41511063023622     -0.71782308988841
  C   -0.03161658183708      0.37722320254482      0.34220792978086
  F   0.00747180583538     -0.60091487969564     -1.82053271235957
  H   -0.69617460330968      0.71697340730872      1.13679454719467
  H   -1.64517066464949      0.18650491832739     -1.01863321717221
  C   -1.24545740887798     -1.69530813835436     -0.17274023509345
  N   -1.66759682913992     -2.69016238585037      0.28500499603414
  N   0.53138874328068      1.61271368643128     -0.32361136772629
  O   1.74396375167787      1.73167399649964     -0.39077375193605
  O   -0.32726154841771      2.37253377858863     -0.75191781007829
  N   1.09413765855610     -0.36442203671871      0.98556637046623
  O   1.46015243406800      0.09502383906762      2.06233173392456
  O   1.55948886687376     -1.32572875791278      0.38412660685380
