13
Coordinates from ORCA-job run
  C   -0.99948614502515     -0.38503343910568     -0.37286697364801
  C   0.42146248622083      0.12982806620136     -0.21912460006607
  F   -1.41919934584103     -0.01331354114961     -1.63171085630817
  H   1.10971568288566     -0.28065549360366     -0.95513177039011
  H   -1.64751704992802      0.07941839128178      0.37027966354688
  C   -1.02006385594366     -1.84530653199146     -0.24896680119464
  N   -1.02115605518310     -3.01638649758924     -0.16862012820331
  N   0.96584285717613     -0.15120860791345      1.14866059979053
  O   2.18463034482061     -0.07950710536862      1.25647212324416
  O   0.14885314005257     -0.38835227832408      2.03430328523841
  N   0.42393756833251      1.62598637230404     -0.37383310984134
  O   1.24628869913694      2.09338986596786     -1.15143364308779
  O   -0.39330832670431      2.23214079929078      0.31097221091944
