13
Coordinates from ORCA-job run
  C   -0.93564092935693     -0.46770630791690     -0.43745649808120
  C   0.40807455704347      0.19747584900619     -0.19280309026353
  F   -1.36853604664260     -0.03908247623809     -1.67344779945647
  H   1.15884468869279     -0.06251774996622     -0.93617113321451
  H   -1.65245346589064     -0.15149917493128      0.32026266750553
  C   -0.78114102690363     -1.92524793546947     -0.43836336450778
  N   -0.64187355836535     -3.09063994632989     -0.45602371920922
  N   0.94909261678401     -0.13432451350962      1.16499663825370
  O   2.14746316437424      0.07043879720204      1.31994714932124
  O   0.14519203372016     -0.54031597915247      1.99974792827649
  N   0.23180293858618      1.69099301727617     -0.22254480824951
  O   1.00968712423341      2.31869003963526     -0.92981156198191
  O   -0.66951209627510      2.13373638039429      0.48166759160718
