13
Coordinates from ORCA-job run
  C   -0.50475180937178     -0.59006814836393     -0.91880545105863
  C   0.54123111238598      0.29346154511764     -0.24935579942237
  F   0.14778479888703     -1.69614348933078     -1.40893976608279
  H   1.25878379611105      0.66605994192326     -0.97963838721083
  H   -0.92257090330784     -0.03254615783227     -1.76042109112260
  C   -1.59866771500512     -0.97930149799587     -0.02273376937792
  N   -2.52873669690177     -1.23383663638450      0.64629158767069
  N   1.31874729627590     -0.42046274835526      0.80734489532310
  O   0.73668568336044     -1.28902864734623      1.44524662535991
  O   2.47627557188061     -0.03842474268261      0.94535319196764
  N   -0.13926269456365      1.48669672458158      0.36747909005054
  O   -0.76658870778988      2.16387377983845     -0.43904887460206
  O   -0.01892973196097      1.66872007683050      1.56922774850532
