13
Coordinates from ORCA-job run
  C   -0.97236106137277     -0.43413246999074     -0.39002728244751
  C   0.39891164689077      0.19515395945623     -0.21271299539036
  F   -1.47264890740848      0.04067209885335     -1.58304929048000
  H   1.09438168529494     -0.05645757842795     -1.01077068461832
  H   -1.63234506154470     -0.12590638089994      0.42073467777843
  C   -0.85119719895967     -1.89381239417390     -0.44318492015460
  N   -0.73936360282853     -3.06068048988896     -0.50452748770335
  N   1.01851612576606     -0.19052026189676      1.09628115727309
  O   2.22855213990483     -0.01436134034368      1.17943777151874
  O   0.26137870973233     -0.60799242156084      1.96834199521874
  N   0.25516976900094      1.69224708823781     -0.18559871823715
  O   0.99980660021555      2.32592313440910     -0.92263961535365
  O   -0.58880084469127      2.13086705622629      0.58871539259595
