13
Coordinates from ORCA-job run
  C   -0.88897393346808     -0.36531803226810     -0.61344660778173
  C   0.02872669376819      0.36358880449718      0.35675662563305
  F   -0.26964239788181     -0.52665666205763     -1.82381028966638
  H   -0.50549835240698      0.68973361320178      1.24930347370243
  H   -1.76647041051904      0.27011053952939     -0.76599229795172
  C   -1.30991273477100     -1.65424558583705     -0.05491360845241
  N   -1.69363880900887     -2.65590328216089      0.42151881184761
  N   0.53126121576184      1.60986430013825     -0.33740366230528
  O   1.72589974408665      1.70168571501295     -0.56841845373510
  O   -0.35505277782510      2.40778611494656     -0.61312192512518
  N   1.21001427144313     -0.43266838836076      0.80572637296113
  O   1.73635560946716     -0.02980558552063      1.83769951513908
  O   1.55693188135390     -1.37817155112106      0.10710204573451
