13
Coordinates from ORCA-job run
  C   -0.76072739758380     -0.47119218335946     -0.70882289542950
  C   -0.00103755592207      0.42688001276504      0.25872451888291
  F   0.08133966671844     -0.97558589812152     -1.66120929741395
  H   -0.67420824792080      0.86438111020649      0.99785142919945
  H   -1.52106537634066      0.13431812315142     -1.20768524796665
  C   -1.39872068915110     -1.56300358739692      0.03757719039951
  N   -1.92853691621461     -2.42029993448611      0.63948829040509
  N   0.64585362280111      1.57697399336065     -0.47624872188243
  O   0.02261046015404      2.00362064336581     -1.44033427151576
  O   1.67587203646242      2.02562965450882      0.00313416896157
  N   1.04438348767588     -0.33961453193343      1.00502720575863
  O   0.82208756721441     -0.51095855379169      2.20065314543123
  O   1.99314934210674     -0.75214884826910      0.35084448516991
