13
Coordinates from ORCA-job run
  C   -0.63142390620802     -0.59230223918375     -0.83123793590939
  C   0.52654120709346      0.25454308895517     -0.31479487810760
  F   -0.07287218799039     -1.76452659385172     -1.29611677107716
  H   1.23582171361737      0.46246050346543     -1.11645497282012
  H   -1.10128496749213     -0.07279039554955     -1.66830421954790
  C   -1.65039351311126     -0.89353494443185      0.17863815108471
  N   -2.51095994676942     -1.16733897076019      0.92824083271524
  N   1.27594095679116     -0.46150027364420      0.76471146061758
  O   2.42179500140063     -0.80262856375071      0.49529076661422
  O   0.66134270077063     -0.64419997404473      1.80897342007110
  N   0.05548027999065      1.56947471516093      0.23497490583476
  O   0.83875642529819      2.16381994045005      0.96079318634312
  O   -1.04774376339087      1.94852370718511     -0.14571394581856
