13
Coordinates from ORCA-job run
  C   -0.72090699513046     -0.55479984121943     -0.66109562093444
  C   -0.00162152863831      0.40818912772140      0.27580342053276
  F   0.20347396543302     -1.21608999906949     -1.42850916902240
  H   -0.62682738311243      0.73775902658203      1.10534068101100
  H   -1.37399882769071      0.01677764002141     -1.32521418596036
  C   -1.51686893471704     -1.52119377569074      0.10544754621343
  N   -2.18975161627180     -2.28057245563271      0.69551148870246
  N   0.48334911531408      1.63828321620446     -0.43272854400268
  O   0.95333206388830      2.49448496595050      0.30651581657867
  O   0.37158943798486      1.68556006592377     -1.65251306845164
  N   1.19863596804413     -0.28873984282670      0.86624216460128
  O   0.93255250949122     -1.04670712157340      1.79027984914210
  O   2.28604222540514     -0.07395100639112      0.35391962158981
