13
Coordinates from ORCA-job run
  C   -0.70897939133393     -0.53013803267267     -0.70102543178488
  C   -0.01743526155872      0.40823571803311      0.27920082435342
  F   0.22953634892759     -1.12431288923541     -1.50410141033316
  H   -0.67846762019682      0.73300694581193      1.08294797812268
  H   -1.38508096355344      0.05261850275111     -1.33141140123956
  C   -1.46457980832346     -1.55740723880044      0.02647489287478
  N   -2.09845533647296     -2.37027304764945      0.58786742191153
  N   0.50556118555566      1.64728091700486     -0.39209077924973
  O   1.08598995414296      2.42160760881487      0.35782594394564
  O   0.29051798439665      1.78929295020423     -1.59006519814988
  N   1.14711177772661     -0.30388490694270      0.91389992667920
  O   2.23408847886536     -0.19848648127623      0.36616000349015
  O   0.85919265182451     -0.96454004604322      1.90531722937980
