13
Coordinates from ORCA-job run
  C   -0.50098191870597     -0.66207882134143     -0.77265967573121
  C   0.22003191984493     -0.08313684057102      0.43255670241805
  F   -0.06839238430517     -1.96405201046848     -0.90308411471966
  H   0.01146506684987     -0.61743548069734      1.35715254172696
  H   -0.23237647856342     -0.10605363839758     -1.67077853245355
  C   -1.94954241387218     -0.63579671342783     -0.55109153935035
  N   -3.10656253077100     -0.62846528809107     -0.35334090203963
  N   -0.11541492940663      1.36362905194868      0.63427973964025
  O   0.14183362701638      1.81509956764266      1.74428058232989
  O   -0.57747308627698      1.96700476116252     -0.33034365608274
  N   1.70434781842417     -0.14160550921628      0.19504194476424
  O   2.08978439776521      0.31848114591196     -0.87449821399807
  O   2.38228091200080     -0.62559022445479      1.09248512349582
