13
Coordinates from ORCA-job run
  C   -0.89341947403613     -0.33989800530688     -0.60960294490407
  C   0.46929801161640      0.10307677761067     -0.10443636349686
  F   -0.96379135282537      0.03465221664376     -1.93377213264248
  H   1.29689784144886     -0.35806737863244     -0.63957403545258
  H   -1.68119281264704      0.16814360796133     -0.05336615080310
  C   -1.02209726816039     -1.79516329806948     -0.49297046811016
  N   -1.10439884266200     -2.96343318944252     -0.41422177978979
  N   0.63473619795301     -0.17771065130080      1.35834166357889
  O   1.78860486728427     -0.15900997876828      1.77090967090565
  O   -0.38981555389864     -0.36358964567001      2.00930979719395
  N   0.59281025244969      1.59320136584240     -0.26445620447158
  O   1.59877410120180      2.00087745550145     -0.83126257076744
  O   -0.32740596772445      2.25492072363081      0.20410151875955
