13
Coordinates from ORCA-job run
  C   -0.95877858526579     -0.36445491726583     -0.49817967219276
  C   0.07603667370026      0.37716274056557      0.33543727908882
  F   -0.47910851450518     -0.59089858106686     -1.76018148731204
  H   -0.35091774616504      0.75304708093785      1.26540989087657
  H   -1.83318890028269      0.28768852328697     -0.58155015204097
  C   -1.34498570122015     -1.61788867273062      0.15764671367411
  N   -1.69645823237839     -2.58850838221205      0.71601387999792
  N   0.52910428216810      1.58018113124123     -0.46158795340097
  O   -0.36370463426738      2.38949830588369     -0.67618475378715
  O   1.69365621916968      1.62982147994314     -0.82248560895656
  N   1.27918205227814     -0.43394013586592      0.68902895622977
  O   1.92098979640381     -0.00790296140797      1.64360007600689
  O   1.52917329036462     -1.41280561130918     -0.00496716818364
