13
Coordinates from ORCA-job run
  C   -0.66986209725096     -0.62515354015021     -0.77870396719481
  C   0.55344500713776      0.16450143402252     -0.32915892475341
  F   -0.23779852608887     -1.87751990877113     -1.14422806370072
  H   1.24763450257146      0.30848637792367     -1.15635803988141
  H   -1.08017726360467     -0.12823936244935     -1.66117501275723
  C   -1.71775204500885     -0.70865346516265      0.24413038768188
  N   -2.61147695341677     -0.72557906359103      1.00463389840272
  N   1.31187328928224     -0.50368624215174      0.77044990379789
  O   2.51614329263031     -0.27040525638329      0.78189446796926
  O   0.67572157620532     -1.19042585489374      1.56018403120830
  N   0.11616474284125      1.52743999829856      0.13869226690691
  O   -0.45133748688689      2.18399792894240     -0.72687786526076
  O   0.34442196158867      1.84623695436597      1.29551691758138
