15
Coordinates from ORCA-job run
  C   -0.82833748455078     -0.29712185653650     -0.02254505080331
  C   0.55857490674125     -0.84902749219840     -0.36988983386003
  Cl  -2.05656128907833     -1.40962351479470     -0.73396141961791
  H   0.62407972855996     -0.88675368874172     -1.46185890656696
  H   0.60969183786683     -1.88061961673354     -0.01094908744058
  C   -1.02081589439826     -0.30295895337797      1.42970559216708
  N   -1.13068523205053     -0.27785716328888      2.59921769396425
  C   -1.07704121898985      1.10067858085715     -0.57700717685375
  H   -2.10355947491760      1.41076929657971     -0.37947802827397
  H   -0.91132499985907      1.09607766452645     -1.65627039944895
  H   -0.40062617569443      1.81907619307434     -0.11045347079726
  C   1.70650101460634     -0.03078061445080      0.21338404406102
  H   1.75169454657662      0.97328992756187     -0.21163429070626
  H   2.65578617082702     -0.52271460407714     -0.00856686925336
  H   1.62462356436084      0.05556584160015      1.29930720343001
