15
Coordinates from ORCA-job run
  C   -0.74315088031351     -0.29567262501854      0.13727078045227
  C   0.72487227836592     -0.43251689594118      0.56391634028755
  Cl  -1.15901530663479     -1.62768305280327     -1.00744483790235
  H   0.85665092441246     -1.43300025008151      0.98497339534554
  H   0.88493761850597      0.28090424805140      1.38054782635365
  C   -1.59327731704047     -0.46616447697154      1.31841896181806
  N   -2.24926704560193     -0.56492641327051      2.28806207862181
  C   -1.06047761359821      1.03382209744775     -0.53692719786444
  H   -0.78069734511503      1.85648097054892      0.12665574952863
  H   -2.12617296007842      1.10334519776204     -0.75668863009210
  H   -0.50706751881422      1.12145381711031     -1.47151237491310
  C   1.73584606586254     -0.18736572116711     -0.54958520754385
  H   2.74101721818716     -0.40654945196441     -0.18375096997620
  H   1.54563360584945     -0.83217159517176     -1.40898696478038
  H   1.72916827601308      0.85104415146947     -0.88494894933507
