15
Coordinates from ORCA-job run
  C   -0.75860056388652     -0.26175382575358      0.11758598220428
  C   0.69682327511873     -0.50521425153860      0.53941638485972
  Cl  -1.24023199175309     -1.49900915949928     -1.10527018844037
  H   0.77062381666849     -1.53541074233602      0.89834149267062
  H   0.89171839047824      0.14660508424386      1.39873759672369
  C   -1.62431425496190     -0.45437154146508      1.28398418170772
  N   -2.29511038546541     -0.56958100438572      2.24158453774496
  C   -0.99846003336228      1.12049884356185     -0.47741967409704
  H   -2.05740225955111      1.26150196774417     -0.69560942450178
  H   -0.67793288283555      1.88630583467577      0.23410490738944
  H   -0.43559673651411      1.23236646377365     -1.40381184727768
  C   1.72667648431104     -0.24973340041714     -0.55430549234775
  H   2.71624432679013     -0.54425735953575     -0.19898131474390
  H   1.50731470945761     -0.83140090238248     -1.45089627059689
  H   1.77824810550575      0.80545399331435     -0.82746087129502
