15
Coordinates from ORCA-job run
  C   -0.67272123378038     -0.02411927887523      0.07777179569508
  C   0.75592549116294     -0.12743514250817     -0.46457084510253
  Cl  -1.35439546317612     -1.68235077553037      0.27494731627495
  H   0.69450655782850     -0.65743452302971     -1.42044743860703
  H   1.08429895527710      0.89587638668309     -0.68074836742496
  C   -0.66733785811893      0.60956950453630      1.39842722197201
  N   -0.63922307631304      1.15987624727665      2.43611723144729
  C   -1.58230537342660      0.75039806789949     -0.86935114663201
  H   -2.60290081555106      0.78151930427906     -0.48670928253682
  H   -1.21248077292326      1.77277870820489     -0.97847335528672
  H   -1.58589440525161      0.26322813384797     -1.84600509737414
  C   1.75065045187313     -0.80755503408084      0.46617371619380
  H   1.84372608326518     -0.26626910504056      1.41012863116562
  H   1.45045791947372     -1.83280895536879      0.68566896843050
  H   2.73669353966042     -0.83727353829377     -0.00192934821502
