19

C	0.0	0.0	0.0
C	-0.543986	-0.007535	-1.439168
Br	1.937626	0.0	0.0
H	-1.632185	0.020563	-1.294541
N	-0.535006	1.077964	0.711965
H	-0.327694	0.999731	1.699296
H	-1.554701	1.025206	0.592293
N	-0.311599	-1.367729	0.727561
O	-0.899726	-1.281469	1.798175
O	0.073958	-2.408966	0.209251
C	-0.219172	-1.216599	-2.308761
H	0.854626	-1.419785	-2.34552
H	-0.562767	-0.99817	-3.325702
H	-0.730635	-2.115465	-1.968273
C	-0.110761	1.277074	-2.151651
H	-0.227284	2.149341	-1.510331
H	0.933718	1.21317	-2.470958
H	-0.730294	1.413159	-3.04225
Cl	-3.67014	0.0	0.0
