19

C	0.0	0.0	0.0
C	-0.538889	-0.006985	-1.425255
Br	1.997228	0.0	0.0
H	-1.57021	-0.358627	-1.298426
N	-0.515193	1.035074	0.779328
H	-1.540102	0.995965	0.667138
H	-0.282762	0.876755	1.753442
N	-0.269963	-1.389708	0.705936
O	-0.573416	-2.360682	0.026583
O	-0.154682	-1.386235	1.927292
C	0.197638	-0.90164	-2.41947
H	1.123532	-0.428677	-2.756101
H	0.429814	-1.883006	-2.013591
H	-0.44839	-1.041633	-3.292038
C	-0.599216	1.420262	-1.967564
H	-0.925115	1.386916	-3.011745
H	-1.309358	2.029614	-1.411243
H	0.386403	1.896041	-1.927341
Cl	-3.577729	0.0	0.0
