13

C	0.0	0.0	0.0
C	-0.528532	0.065823	-1.419191
Cl	1.803471	0.0	0.0
H	-0.103559	-0.729075	-2.029557
H	-0.269048	-1.003183	0.357249
H	-1.629821	0.001158	-1.293911
N	-0.538784	1.076095	0.766216
H	-1.567408	0.960747	0.625091
H	-0.358233	0.894023	1.748466
N	-0.196924	1.337541	-2.100833
O	-0.913107	2.313946	-1.887874
O	0.776237	1.336962	-2.8653
H	-3.019347	0.0	0.0
