15
Coordinates from ORCA-job run
  C   0.83562374134019      0.10145515403667     -0.24437723003798
  C   -0.54656777769028     -0.32595453388174      0.30175785098676
  Cl  0.95361458703574      1.93377996716145     -0.15374495980485
  H   -0.56661554176444     -1.41548941207454      0.17806889153387
  N   1.86808337733874     -0.56750073126213      0.45911627201961
  H   2.78158165970588     -0.35337773804282      0.07842180823400
  H   1.85050441667383     -0.33293328787903      1.44558140229370
  C   0.91405827078412     -0.24054967121655     -1.66828047230379
  N   0.95991564074346     -0.53648669542854     -2.80405475474485
  C   -1.73979834001778      0.29569328358930     -0.42274195147392
  H   -2.66288797430763     -0.14407049260586     -0.04197063536652
  H   -1.67738903856071      0.09093540558531     -1.49317951957227
  H   -1.77673564010127      1.37293120279696     -0.26742165754243
  C   -0.58636892983017     -0.04973126902310      1.73870430189758
  N   -0.60601845134969      0.17029881824462      2.89212065388109
