15
Coordinates from ORCA-job run
  C   0.91611436170855      0.13387858377673      0.02286264080427
  C   -0.53018669174410      0.17704873307760      0.57620077974322
  Cl  1.94266387491074     -0.80632551637315      1.15065602919344
  H   -0.48667187120074      0.67392053121179      1.55154092398234
  N   0.93519165870364     -0.52514675419591     -1.25727925229921
  H   0.39272126376645      0.01229250970002     -1.92750130387406
  H   1.88633598768310     -0.60121613119605     -1.59944248990152
  C   1.46796184404863      1.50278615219094      0.00212647086225
  N   1.89384114246146      2.59637975472170     -0.07294465399358
  C   -1.16922850446561     -1.20643097571263      0.71645868183737
  H   -2.19710096914098     -1.09563042186284      1.06572681280614
  H   -1.16928509945066     -1.72416698051297     -0.24133534402046
  H   -0.61810937139293     -1.80406020639413      1.44148601471710
  C   -1.32146904311586      1.01550973422504     -0.32908758075322
  N   -1.94377858277168      1.65116098734386     -1.09646772910407
