15
Coordinates from ORCA-job run
  C   0.83898563826885      0.41766808321597     -0.06727474206540
  C   -0.45646064378702     -0.43429227367746      0.07952826602964
  Cl  0.66460707317173      1.89944178587268      0.92720147215540
  H   -0.29985436082521     -1.30311351081414     -0.57404358665817
  N   2.05816708540544     -0.23262507023925      0.33156716121344
  H   2.00164492241744     -0.52744052474322      1.30041773196370
  H   2.24987857749032     -1.03197231376446     -0.26189804835944
  C   0.95809335512496      0.81220897205518     -1.47739575551127
  N   1.02534156018447      1.07063292523950     -2.62128329627749
  C   -1.74755311199429      0.27290893144558     -0.33259601351700
  H   -1.96710973988432      1.10304689018101      0.33743222093514
  H   -2.57983516718686     -0.43201879549148     -0.29850400508656
  H   -1.65891376208310      0.65161910020236     -1.35259840877894
  C   -0.52447513186047     -0.93405260349808      1.45292942674962
  N   -0.56251629444195     -1.33101159598417      2.55751757720734
