15
Coordinates from ORCA-job run
  C   0.89019895822506      0.26798218253453     -0.03996602969777
  C   -0.54869889132497      0.23306011203006      0.52697643836242
  Cl  1.98508989619847     -0.42731145054274      1.27941881494509
  H   -0.51562538779897      0.71886735393094      1.50738281494286
  N   0.97534676066301     -0.41736702539901     -1.27191101384329
  H   1.87490225755810     -0.29313098251236     -1.71884092921817
  H   0.78017331343438     -1.40452658141989     -1.16786022219196
  C   1.33159638553272      1.65469386912092     -0.21439482542474
  N   1.68227842707029      2.76706544027956     -0.35507952384490
  C   -1.10783098258460     -1.18462453701901      0.67428831589772
  H   -2.07176756355420     -1.13962191633927      1.18296197058924
  H   -1.27379213840495     -1.64228171081581     -0.30220820513178
  H   -0.43527899467864     -1.80516554077370      1.26675618442688
  C   -1.41900573940396      1.02800790987178     -0.34372589570733
  N   -2.14958630093175      1.64535287705400     -1.02479789410427
