15
Coordinates from ORCA-job run
  C   0.96787000399751      0.34300400242441      0.09525778057145
  C   -0.42393842074243     -0.04597688237159      0.66796256065108
  Cl  1.85767596607265      1.18755681236683      1.40850810197433
  H   -0.22030332158134     -0.66672930802102      1.54925700452387
  N   1.77819697424782     -0.75657028198477     -0.34788567523470
  H   1.85006531402476     -1.47036953288773      0.36748865417380
  H   1.43398998616881     -1.15104303939395     -1.21392141368756
  C   0.78770503158195      1.27235875818350     -1.02623972099229
  N   0.59988064132883      1.97270003989251     -1.95052876348993
  C   -1.26385794044632     -0.82947850893353     -0.34378624697203
  H   -2.22824779220903     -1.08594358963734      0.09717496718474
  H   -1.44866031143642     -0.23392782373397     -1.24040624499503
  H   -0.76395660779288     -1.75780544930122     -0.62331112975181
  C   -1.15262540500242      1.14160064795301      1.11471619719439
  N   -1.77379411821147      2.08162415544487      1.44571392884969
