15
Coordinates from ORCA-job run
  C   0.91597389219082      0.26924085636188      0.17315575375721
  C   -0.49792460361323     -0.05685344373142      0.69444251711723
  Cl  1.83596199867723      1.06421258568557      1.48198235321258
  H   -0.33843556025250     -0.66366500257387      1.59200214731547
  N   1.59723625598412     -0.96553820766532     -0.15548595657584
  H   1.23401607339876     -1.33312272034129     -1.02894404898953
  H   2.58634226317845     -0.78240604298700     -0.28598872675332
  C   0.83484182668068      1.21421521586676     -0.95597251147224
  N   0.76441203577958      1.89140641414712     -1.91487450130818
  C   -1.32629100032181     -0.84105575977745     -0.32772489897101
  H   -2.33173150181110     -1.00327236948102      0.06300887082894
  H   -0.87806459043210     -1.81844069232616     -0.51027152429965
  H   -1.41476976206169     -0.29077420333783     -1.26744292348870
  C   -1.19356486488407      1.17278165817832      1.07760265853204
  N   -1.78900246251316      2.14327171198170      1.36451079109501
