15
Coordinates from ORCA-job run
  C   0.90188726241596      0.26355491150882     -0.01221620920352
  C   -0.44475458304916     -0.06200340261009      0.67046387115016
  Cl  1.91976770313744      1.18312738862939      1.20600797505049
  H   -0.20154075061910     -0.68574838527174      1.54005925047534
  N   1.51855956812200     -0.93624335310657     -0.45944493427846
  H   1.74135351319667     -1.53635225140549      0.32685633023687
  H   2.36587135253299     -0.74601703203155     -0.98057991502340
  C   0.69703858302916      1.16264453988626     -1.15105693101400
  N   0.52255662896514      1.86118755139173     -2.07934595277934
  C   -1.39482027505193     -0.81091536948282     -0.26938282671580
  H   -2.31745507045202     -1.05210755985890      0.26120065057542
  H   -0.92857963202164     -1.72957887778707     -0.62137736202382
  H   -1.64775794716042     -0.19017388966899     -1.13108502780126
  C   -1.08072294796695      1.15978577948579      1.16460182132616
  N   -1.64840340507815      2.11783995032122      1.53629926002518
