15
Coordinates from ORCA-job run
  C   0.96396905860529      0.27794722896965      0.01406843963381
  C   -0.50756045046357      0.21475406067545      0.53021893375917
  Cl  2.00920400100662     -0.42175855022712      1.29810546778683
  H   -0.55249259963490      0.78135398570639      1.46683895171904
  N   1.24295433267172     -0.40800910255842     -1.21513138761143
  H   1.00869545621919     -1.39029994360284     -1.14969210425306
  H   0.75142754731410      0.02319196648141     -1.99008672546653
  C   1.33974624163062      1.68972355004257     -0.14298423126505
  N   1.60224891917972      2.82697158019259     -0.27523604744342
  C   -1.02182616400157     -1.20760096328648      0.76148341048411
  H   -0.40290501762121     -1.72815848640669      1.49136390350697
  H   -2.04357316745798     -1.16549627840126      1.14153957610977
  H   -1.04002250162991     -1.77569015812301     -0.17014027060083
  C   -1.34530564704675      0.89091608627963     -0.46316007932592
  N   -2.00356000877136      1.39215502425812     -1.29718783703346
