15
Coordinates from ORCA-job run
  C   0.90019008172051      0.17918704367221      0.12539299264638
  C   -0.60318416696323      0.17585587119250      0.49882174522682
  Cl  1.82136301974042     -0.66043856362487      1.41212315963844
  H   -0.70053198280477      0.71628512224519      1.44670670307173
  N   1.10340996086408     -0.53297545180610     -1.10967396376656
  H   2.09197160110985     -0.58050757905994     -1.32913112834911
  H   0.62767749508971     -0.04959929576724     -1.86631925147477
  C   1.39057427419053      1.57129111463205      0.10432120544081
  N   1.77205057409070      2.68133226662206      0.03154825435712
  C   -1.19465988011997     -1.22962616067793      0.62881817341421
  H   -1.05903951993465     -1.78599336710314     -0.29710515462498
  H   -2.26052020611861     -1.15371319893584      0.85017701828342
  H   -0.70861833861387     -1.76949052371105      1.44041778261704
  C   -1.31391297711013      0.93386326044042     -0.53527967159902
  N   -1.86676993514057      1.50252946188167     -1.40181786488151
