15
Coordinates from ORCA-job run
  C   0.88751797929291      0.27940059729169      0.00398818440233
  C   -0.57118842080876      0.20711289613170      0.51427478125399
  Cl  1.94109784831049     -0.45085923998515      1.33711392250447
  H   -0.58077606906288      0.65606160240917      1.51258022024720
  N   1.02722993760634     -0.35965206240774     -1.24816415277481
  H   1.94156063637295     -0.20864805414984     -1.65514192593195
  H   0.84328632607341     -1.35261249604811     -1.18547549007099
  C   1.31685226410569      1.67663521239258     -0.10367651898838
  N   1.65823680120558      2.79732204687987     -0.19107261184804
  C   -1.11706422064940     -1.22135157475495      0.58754336172625
  H   -0.45855124769133     -1.85606794354403      1.18100664643440
  H   -1.24120044602977     -1.64359574072920     -0.41091310809632
  H   -2.09939698282581     -1.20710131802611      1.06170136357836
  C   -1.41805176290300      1.02425930098834     -0.35885191030104
  N   -2.12955264299642      1.65809677355177     -1.04491276213549
