15
Coordinates from ORCA-job run
  C   0.88954906457466      0.27251448673503     -0.01540094139989
  C   -0.56064963608826      0.21655604016691      0.52031359209948
  Cl  1.96012314915085     -0.45121394016271      1.30865135106089
  H   -0.54975123436295      0.67582548187249      1.51383419824770
  N   1.00392103345553     -0.38091184625158     -1.26218860040717
  H   1.91205703826916     -0.24158013315602     -1.68657694051175
  H   0.81157521308483     -1.37130148550854     -1.18742025884364
  C   1.32704657428654      1.66549865049096     -0.14418241706457
  N   1.67440530849988      2.78351867244031     -0.24214576349096
  C   -1.11592379256867     -1.20677674103799      0.61859634986712
  H   -1.26012160889821     -1.63937645026077     -0.37274368246711
  H   -2.08999904338496     -1.17938449749002      1.10903067492894
  H   -0.45220815848396     -1.83972662297111      1.20812799337436
  C   -1.41653456918594      1.03157730387714     -0.34594464070442
  N   -2.13548933834850      1.66678108125590     -1.02295091468899
