15
Coordinates from ORCA-job run
  C   0.91418295126446      0.13622072298272      0.05599192697459
  C   -0.55076825069742      0.16634533865111      0.55873872444137
  Cl  1.90395100637724     -0.82040622362779      1.20253485562187
  H   -0.54369052743354      0.64873336117974      1.54222422752132
  N   0.98014344395552     -0.50107465772656     -1.23370019413175
  H   1.94358466955060     -0.57356520358822     -1.54073551191833
  H   0.46481324545342      0.04932312348669     -1.91495652136354
  C   1.46217906687045      1.50675459752840      0.07893388784351
  N   1.88720979658130      2.60260103536867      0.04310582050929
  C   -1.18930997055349     -1.22096521502271      0.65578216571061
  H   -0.65914597654664     -1.82910658225881      1.38748345025169
  H   -1.15804291243107     -1.72272773672071     -0.30986253688649
  H   -2.22769239864380     -1.11870213718730      0.97486853423015
  C   -1.31273332549826      1.01563292920056     -0.36166569234723
  N   -1.91268081824876      1.66093664773420     -1.13874313645704
