15
Coordinates from ORCA-job run
  C   0.89212649301940      0.25795734247899     -0.05353053073864
  C   -0.51952559630041      0.18393327409829      0.57497684374981
  Cl  2.03307776121751     -0.58780757597469      1.13199720321490
  H   -0.43176289997723      0.56183059829033      1.59854836120265
  N   0.90705428889785     -0.29523246697889     -1.35299747706133
  H   0.70002484538469     -1.28547254456819     -1.34324598246740
  H   1.78633982048426     -0.13556792205369     -1.82795663198993
  C   1.35195404542609      1.64874610082512     -0.10360640649129
  N   1.71946944985931      2.76385783356928     -0.14469817842864
  C   -1.09840300337797     -1.23326972464930      0.59790915707998
  H   -1.31800509307156     -1.58150493920738     -0.41259345556792
  H   -2.03671130274049     -1.22925624183077      1.15425325204984
  H   -0.41112705844246     -1.92307970046775      1.08832237840384
  C   -1.41337683783800      1.07908172480386     -0.16471997784234
  N   -2.16213491254099      1.77478424166480     -0.74265855511353
