15
Coordinates from ORCA-job run
  C   0.90296883299932      0.22375136460693     -0.00568570589439
  C   -0.53063107101685      0.15761477101943      0.57191121905804
  Cl  1.96979028859401     -0.76320182286915      1.13871633871041
  H   -0.46214660150566      0.44642255110999      1.62552366512963
  N   0.93956702270963     -0.22133544128918     -1.34576809836566
  H   0.69453236847670     -1.19985853881234     -1.42391855077904
  H   1.84013310932497     -0.06049017173585     -1.77868708384725
  C   1.41759868859415      1.59383475142509      0.07399918682268
  N   1.82732564032018      2.69305438781120      0.13742832316624
  C   -1.16540437440783     -1.23099955353110      0.46015876511381
  H   -0.52371426944579     -1.98622954737918      0.91452983678427
  H   -2.12205516365618     -1.23207703736444      0.98433584834376
  H   -1.36259594728953     -1.48762146091362     -0.58189656833004
  C   -1.36344206267700      1.14745380628160     -0.11655365095636
  N   -2.06392646102014      1.92068194164062     -0.65509352495610
