15
Coordinates from ORCA-job run
  C   0.92043444466499      0.26838893689300      0.14776623492064
  C   -0.48230818460402     -0.04291093739074      0.70652748196916
  Cl  1.87251691127268      1.08327167314542      1.42090570307214
  H   -0.30506128443219     -0.63504001617631      1.61055765529974
  N   1.59011130283919     -0.97454014372634     -0.17413133562847
  H   1.20815873848660     -1.35476070723664     -1.03400819343959
  H   2.57709177686755     -0.79778537028156     -0.32724386563486
  C   0.81671860431974      1.19347979190668     -0.99600662238408
  N   0.72750715535744      1.85352015842565     -1.96525952517312
  C   -1.33655308274913     -0.84126768025942     -0.28300950381974
  H   -2.33256644116784     -0.99484848523040      0.13449692992668
  H   -0.89476431585099     -1.82245764477436     -0.46070659653693
  H   -1.44652600116654     -0.30570640780165     -1.22896835084342
  C   -1.16495593771635      1.19600131546635      1.08352653265962
  N   -1.75080368612114      2.17365551704031      1.36555345561220
