15
Coordinates from ORCA-job run
  C   0.90667127928000      0.24336903163719     -0.04377845607692
  C   -0.42119834727016     -0.05921691297787      0.68473415689906
  Cl  1.99027304015719      1.12537997358118      1.14450139862595
  H   -0.16065293116710     -0.69898598927520      1.53749940036543
  N   1.47799756757921     -0.96559542843770     -0.52606269121886
  H   2.31336763749993     -0.78910300145644     -1.07115120962892
  H   1.71161830870930     -1.58026520055659      0.24585443513448
  C   0.67984192472347      1.15928047320252     -1.16507389108526
  N   0.48306029567163      1.87027764840576     -2.07922101740469
  C   -1.42263927047536     -0.77457319942927     -0.22730583248491
  H   -0.99208960007211     -1.70026747269517     -0.60528121266593
  H   -1.69124523524263     -0.13872758722836     -1.07304421561608
  H   -2.33110512638553     -0.99942643993302      0.33401039696228
  C   -1.00890919219634      1.17054488455031      1.21726342349461
  N   -1.53599035081150      2.13630922061266      1.62705531469977
