15
Coordinates from ORCA-job run
  C   0.79038461572688      0.27847550465603     -0.25518439456824
  C   -0.45978645052062     -0.43830077633910      0.30597357221763
  Cl  0.52124194457916      2.09258933364001     -0.13602506971156
  H   -0.25050439999696     -1.50603735375865      0.16797005506554
  N   1.95393283620093     -0.16666687002066      0.42091323056859
  H   1.90477368245641      0.04415651836466      1.41161608985082
  H   2.79427823461000      0.24236402804452      0.03112793017746
  C   0.91342332128924     -0.02068754603069     -1.68549368178102
  N   1.00458457833455     -0.28279485467272     -2.82695375644076
  C   -1.77019523664434     -0.07630380557322     -0.39175050596330
  H   -1.68722184144983     -0.25887948074146     -1.46485868678742
  H   -2.57388338104788     -0.70045246908740      0.00203806607400
  H   -2.02778038523890      0.96893134486693     -0.22654900018845
  C   -0.53229261694470     -0.19018008521993      1.74684192557192
  N   -0.57995490135396      0.01378651187168      2.90233422591481
