15
Coordinates from ORCA-job run
  C   0.95872651852030      0.28973879512403      0.06247040584180
  C   -0.53171350226103      0.18729671593418      0.51486990441153
  Cl  1.96137858382036     -0.45107248239980      1.35702679828660
  H   -0.62392327261696      0.72047194463266      1.46752522128233
  N   1.29668842723437     -0.33990729468410     -1.18205851739558
  H   0.82491106035071      0.11336591434827     -1.95681474469028
  H   1.07862943833830     -1.32799024832417     -1.16485107044422
  C   1.31944406911385      1.71185322410562     -0.01761001840030
  N   1.56602020741471      2.85868336290636     -0.08122152548902
  C   -1.03398591040719     -1.24895442125635      0.67591928731854
  H   -0.44287060734917     -1.78396847347766      1.41823545471596
  H   -0.99822538077540     -1.78702879491503     -0.27289526490176
  H   -2.07340615835500     -1.23329678425961      1.00696267810336
  C   -1.33681951896943      0.88568129584107     -0.49003255039315
  N   -1.96285395405843      1.40512724642452     -1.33752605824581
