15
Coordinates from ORCA-job run
  C   0.90547204715555      0.24855307313045     -0.04335434201253
  C   -0.42488492064007     -0.04739252119784      0.68336756633263
  Cl  1.97508859848284      1.16429725605533      1.13214036933401
  H   -0.16529093812393     -0.66686584259067      1.55130386576597
  N   1.48837536082031     -0.96645765545358     -0.49526204000431
  H   2.32375135967614     -0.79618582507275     -1.04209888947436
  H   1.72366205385051     -1.56176816959866      0.29110484121502
  C   0.67910134556415      1.13796278842719     -1.18588326692872
  N   0.48267373113949      1.82913472550665     -2.11522325876288
  C   -1.41586261050116     -0.78890579292474     -0.21905766048648
  H   -2.32573434904884     -1.00909388669884      0.34180103466956
  H   -0.97608989722184     -1.71877999893661     -0.57553632404359
  H   -1.68459752546418     -0.17265973838862     -1.07913759142952
  C   -1.02425442892032      1.18931174416248      1.18610609091738
  N   -1.56140982676865      2.15984984358021      1.57072960490783
