15
Coordinates from ORCA-job run
  C   0.92608584356366      0.24700480352359      0.15161746252488
  C   -0.47897398823386     -0.05926759051481      0.70727831918167
  Cl  1.89967072427755      0.99828321789343      1.44705772124239
  H   -0.30702048538351     -0.68766624702153      1.58755696274928
  N   1.57103033147544     -0.99562298698980     -0.21871560200087
  H   2.56058668995968     -0.83201019354294     -0.36971290194651
  H   1.17863806509225     -1.33660623866230     -1.09021552684281
  C   0.83341098805956      1.21310951595885     -0.95859221972593
  N   0.75104039996494      1.90427616352218     -1.90634815583613
  C   -1.35314199279263     -0.80465331859547     -0.30576440546540
  H   -2.34963256341203     -0.95529979281463      0.11164116014433
  H   -0.93043130010195     -1.78646181934758     -0.52226653796949
  H   -1.45816765053207     -0.23248267577436     -1.23063085475328
  C   -1.13716615342663      1.17610688927363      1.13554438221645
  N   -1.70592890851040      2.15029027309174      1.46155019648143
