15
Coordinates from ORCA-job run
  C   0.91609445511504      0.13140663471355      0.03141365225009
  C   -0.53234593137096      0.15383868862331      0.58031229321032
  Cl  1.93603063813509     -0.85928684755004      1.12110823417268
  H   -0.49254430600958      0.61079713362526      1.57511643307504
  N   0.93900345332419     -0.47174685972519     -1.27621482942111
  H   0.40475171809187      0.09845534208670     -1.92601111732474
  H   1.89206247050754     -0.53887836893577     -1.61520947539942
  C   1.47048284211184      1.49873242611499      0.07195517005759
  N   1.89610136640382      2.59467215954951      0.04780655096840
  C   -1.17345259476134     -1.23340522464356      0.66158139349826
  H   -0.63121308655244     -1.85788390182471      1.37037539380919
  H   -1.16209154187550     -1.71473599537922     -0.31490023650111
  H   -2.20538611759810     -1.13517345149470      1.00245029760479
  C   -1.31866486614792      1.02920676156354     -0.29384367781713
  N   -1.93782849937354      1.69600150327635     -1.03694008218286
