15
Coordinates from ORCA-job run
  C   0.97734607695852      0.32226413711713      0.06655864326343
  C   -0.40213804356711     -0.04774112850982      0.68023640686447
  Cl  1.92800180874606      1.12877461718066      1.36009066187169
  H   -0.18151641912304     -0.68631801616867      1.54451606620270
  N   1.75071266449576     -0.78685736770605     -0.41874855787667
  H   1.83846378320252     -1.50681892202389      0.28882948440224
  H   1.36119810754824     -1.17011662142504     -1.27088968285466
  C   0.77856959018970      1.27132984551330     -1.03516706844591
  N   0.57208140075341      1.99035096810576     -1.94091358629963
  C   -1.29186804670539     -0.79821903287432     -0.31387100923462
  H   -0.82201514680871     -1.73264929101615     -0.62342846791315
  H   -1.49369919619025     -0.18546726827677     -1.19502741320385
  H   -2.24627382590465     -1.04100838442765      0.15546364443839
  C   -1.09069554642897      1.14720194494361      1.16897554954990
  N   -1.68016720716609      2.09527451956792      1.53337532923569
