15
Coordinates from ORCA-job run
  C   0.90521266466710      0.16903363409820      0.09992248790927
  C   -0.58948738231210      0.19624663276559      0.50566943658623
  Cl  1.84248464926103     -0.65074010738691      1.38835177343637
  H   -0.65850228165668      0.76227435239649      1.44102366621779
  N   1.07216519466760     -0.57687545640797     -1.12025147386651
  H   2.05445767230999     -0.63944720764518     -1.36255654595607
  H   0.58173110873945     -0.11016724094793     -1.87781671506059
  C   1.41375975603193      1.55310785823627      0.03359173525501
  N   1.80747594293225      2.65621203710165     -0.07224159050218
  C   -1.19643309490420     -1.19694948494811      0.68613500857835
  H   -2.25833209380976     -1.10111370010039      0.91815142871332
  H   -0.70663179566026     -1.71727964878537      1.50821144775176
  H   -1.07909352342403     -1.78362101637651     -0.22343359531890
  C   -1.31260849044817      0.93897805316798     -0.53082072027914
  N   -1.87719832639415      1.49834129483219     -1.39593634346472
