15
Coordinates from ORCA-job run
  C   0.90322607559550      0.25526396505115     -0.05359404805379
  C   -0.42185009543290     -0.03216439225594      0.68604173221813
  Cl  1.96800744454119      1.21502122306789      1.09027053894840
  H   -0.15383823031216     -0.62552466576985      1.56956921755831
  N   1.49623699695851     -0.96698764657535     -0.47178255391680
  H   2.32915589096251     -0.80467911237353     -1.02493568186268
  H   1.73896501410640     -1.53663003877757      0.33110810262279
  C   0.66460073212347      1.10852371107148     -1.22083433084193
  N   0.45745502392213      1.76953332375816     -2.16949781784216
  C   -1.40965045126023     -0.80651494616976     -0.19229672077417
  H   -0.95992040743810     -1.73786557299719     -0.53261097799963
  H   -2.31168218595539     -1.02699501119675      0.38109007141383
  H   -1.69396881230240     -0.21211012470502     -1.06284845438604
  C   -1.03095509567061      1.21254974433874      1.15643338772839
  N   -1.57678189983793      2.18857954353355      1.51388753518735
