15
Coordinates from ORCA-job run
  C   0.78721341015211      0.28388057718273     -0.25947215495041
  C   -0.45422716492892     -0.42835241853827      0.32625496075073
  Cl  0.46355854958168      2.09324553568184     -0.27718395607508
  H   -0.21292424898397     -1.49647811074146      0.26524788297533
  N   1.94762286420139     -0.07639118704915      0.47004192602205
  H   1.87183037294871      0.20494753515566      1.44144353127806
  H   2.78477225108742      0.32621655444180      0.06702559495089
  C   0.95009170852446     -0.11305688682752     -1.66183803569207
  N   1.07296132017474     -0.45468004541133     -2.77900875281146
  C   -1.75960143802409     -0.15281938645561     -0.41882127984029
  H   -2.05237127332827      0.89206182279676     -0.32654284700382
  H   -1.64792151697577     -0.40058168338319     -1.47612137617941
  H   -2.55229694900353     -0.77586598114351     -0.00174566121610
  C   -0.56182658199132     -0.08662086554590      1.74547855793680
  N   -0.63488130343462      0.18649453983715      2.88524160985479
