15
Coordinates from ORCA-job run
  C   0.90139138333916      0.22588554699229      0.04518064298834
  C   -0.56320761264169      0.16113116558910      0.53966409415236
  Cl  1.90295033060322     -0.74345652025765      1.26037793287233
  H   -0.55573344397922      0.45855692650875      1.59309418173884
  N   1.01665400317552     -0.23482321693802     -1.28557210286956
  H   1.93948491565150     -0.07232123930047     -1.66843255078347
  H   0.78428373713338     -1.21633407496400     -1.36510375169615
  C   1.40572394165766      1.59902546420653      0.13630633240314
  N   1.80713011553606      2.70090842091976      0.20760033235924
  C   -1.18740480539337     -1.22991556638409      0.40310468892927
  H   -2.17631024101084     -1.22698795033191      0.86395501175473
  H   -0.57503133136435     -1.97824728602988      0.90717673687978
  H   -1.31589211566552     -1.49883263634518     -0.64675355691702
  C   -1.35660413688192      1.14398954236597     -0.20275059579028
  N   -2.02643474015960      1.91142142396881     -0.78684739602155
