15
Coordinates from ORCA-job run
  C   0.93011225450401      0.24757138843665      0.12059504934283
  C   -0.45867828016180     -0.04645228313110      0.72254826882727
  Cl  1.94192733635207      1.02011564106740      1.37372646244249
  H   -0.26145246059160     -0.65768293714766      1.60953638623835
  N   1.56256932908598     -1.00256689937501     -0.24602983761897
  H   2.54755718161070     -0.84332848966813     -0.42833919229994
  H   1.14474973094010     -1.35854727852874     -1.09961488591956
  C   0.80539616177969      1.19467816609297     -1.00274109924893
  N   0.68875548607907      1.87365130399706     -1.95576236567283
  C   -1.36196208996166     -0.81089767704050     -0.24990324525379
  H   -2.34619595977880     -0.95205206388152      0.19872169380919
  H   -1.49314336983009     -0.25714367204934     -1.18256630482582
  H   -0.94613057506715     -1.79726007895238     -0.45870236594694
  C   -1.10255233576096      1.19885112034321      1.14354415500960
  N   -1.65195240919955      2.18906375983710      1.45398728111707
