15
Coordinates from ORCA-job run
  C   0.97620762320537      0.32785875062039      0.02273980871879
  C   -0.38128775223162     -0.01778631166615      0.69632839346172
  Cl  1.96401316699719      1.19467651074389      1.24884164580143
  H   -0.13116271291442     -0.61526486521455      1.58170316677065
  N   1.73682064233177     -0.79943972545241     -0.43805315063430
  H   1.33296504386303     -1.20958398515598     -1.27038261192071
  H   1.83946351243162     -1.49536437079639      0.29100800235634
  C   0.73977725467027      1.22632602489109     -1.11342978294396
  N   0.52183628465110      1.89649059839067     -2.05328474244827
  C   -1.29812516070846     -0.81545407111274     -0.23432903430864
  H   -0.83357688050589     -1.76164840511459     -0.51496822667666
  H   -2.23682409414375     -1.03875120003502      0.27475687193942
  H   -1.52903688582595     -0.24443352501252     -1.13621510597152
  C   -1.05930446365844      1.19617478420611      1.15210234188529
  N   -1.64176557816182      2.15719979070819      1.49318242397042
