15
Coordinates from ORCA-job run
  C   0.81418511454174      0.16942396557332     -0.27644609512253
  C   -0.51434394434213     -0.38750373474587      0.28643000371027
  Cl  0.87304301685177      1.97611663746510      0.05513077441476
  H   -0.50271764202203     -1.45054654858166      0.01728020082757
  N   1.91252227408921     -0.54211712747005      0.26846869223775
  H   1.95085517107849     -0.43843403604658      1.27675733126335
  H   2.79144794849235     -0.24061568407824     -0.13413295032918
  C   0.81324508827007      0.02420205458196     -1.73573497194847
  N   0.79577862268631     -0.11291834792482     -2.90221410322874
  C   -1.77271971559000      0.27199603971098     -0.27611928434890
  H   -1.77276554786153      0.21202822171408     -1.36614871854354
  H   -1.83649647825367      1.31709661979724      0.02362805573893
  H   -2.65365542834252     -0.25277943854488      0.09703257123435
  C   -0.47209948906782     -0.30640744717901      1.74727478334488
  N   -0.42627899053022     -0.23954117427155      2.91879371074948
