15
Coordinates from ORCA-job run
  C   0.92742745450828      0.26536731052475      0.10299632410418
  C   -0.45482926285060     -0.01686005282558      0.72498263168815
  Cl  1.93401600178165      1.11145949059673      1.31199531115864
  H   -0.24615231004580     -0.58293433139116      1.63898194684987
  N   1.57488573651484     -0.99274710933003     -0.20504777881979
  H   1.15831029285783     -1.39579501809971     -1.03796734742782
  H   2.55694044430240     -0.82988716795686     -0.39956295520444
  C   0.78591221164230      1.15476374043210     -1.06467935180298
  N   0.66191260206525      1.78430344207696     -2.05019667278193
  C   -1.35280102878825     -0.83742275986449     -0.20570872516410
  H   -0.92523801231412     -1.82709864424824     -0.37057850160051
  H   -1.49585185551769     -0.32972870625615     -1.16251321645001
  H   -2.33283379630429     -0.97008445225025      0.25454910776221
  C   -1.11300022059637      1.23826775768943      1.09154489587694
  N   -1.67969825725543      2.22839650090250      1.36920433181158
