15
Coordinates from ORCA-job run
  C   0.80951001880470      0.17845010590106     -0.28439585447437
  C   -0.50081003479355     -0.37970805268020      0.31855951121304
  Cl  0.78403490360533      2.00990533683242     -0.13306822768166
  H   -0.43845165628177     -1.46256861142611      0.15674619063311
  N   1.93050404765909     -0.42542673061282      0.33842814414758
  H   1.94941321190926     -0.22392534625709      1.33230107722525
  H   2.80094041534140     -0.12458415342277     -0.08255327041249
  C   0.83543470832827     -0.11045354331001     -1.72198229904191
  N   0.84169346433722     -0.36584943124335     -2.86848322470727
  C   -1.77906328490515      0.16311315180971     -0.31884700465435
  H   -1.89220712838264      1.22906113456631     -0.12668036896217
  H   -1.76196787865256     -0.00593882990672     -1.39714280292292
  H   -2.64120911701901     -0.36026106799033      0.09745494277506
  C   -0.48236676064507     -0.15273210287500      1.76445519322217
  N   -0.45445490930553      0.02991814061490      2.92420799364093
