15
Coordinates from ORCA-job run
  C   0.84637707635080      0.33075517163918     -0.24061943215292
  C   -0.46344858082054     -0.35585993098818      0.24784417045206
  Cl  0.75076885581486      2.08051067067962      0.14008330440839
  H   -0.35526014436264     -1.41003603748850     -0.04126035471045
  N   2.06352140871610     -0.17365999304956      0.33525190850203
  H   2.21301694687055     -1.14091031469245      0.07104072267161
  H   2.03903699581951     -0.09051292052598      1.34586008808455
  C   0.91714995081883      0.17300452077216     -1.69945208267941
  N   0.94135185541597     -0.01126333116061     -2.85930830749626
  C   -1.75185114525526      0.19788357444630     -0.36067624453612
  H   -2.60017883062443     -0.40885542770720     -0.03963325749769
  H   -1.92031177512593      1.22646773825265     -0.04440207971925
  H   -1.69709472647450      0.16408787058761     -1.45045227252210
  C   -0.48894256096383     -0.30989574114242      1.70999309024369
  N   -0.49413532617949     -0.27071584962261      2.88373074695185
