15
Coordinates from ORCA-job run
  C   0.96893463741788      0.25589843051493      0.02416144056090
  C   -0.49425390450319      0.16898810813161      0.56021407390833
  Cl  2.02049415148877     -0.59866862308069      1.20505017618726
  H   -0.51016626919851      0.63630489843003      1.55102838950277
  N   1.21028051043793     -0.30072632802348     -1.27631255822204
  H   0.95780119704347     -1.28018908979801     -1.30959238480752
  H   0.71222674674787      0.21843939566544     -1.99097664346003
  C   1.37484065077597      1.66797164866697      0.01006600900300
  N   1.68558888417171      2.80044868033152     -0.02052219226444
  C   -1.03706260476717     -1.25838483049478      0.65380439935034
  H   -0.42067401672158     -1.86290031842974      1.31819249164484
  H   -1.07913924746373     -1.72871420745516     -0.33005445979331
  H   -2.05284097865820     -1.23383920745748      1.05101755993794
  C   -1.33370389974216      0.96145401823591     -0.34158131467967
  N   -2.00232585702907      1.55391742476294     -1.10449498686837
