15
Coordinates from ORCA-job run
  C   0.92633914505736      0.26125146484708      0.12106681287002
  C   -0.46369228193613     -0.03490414656412      0.71925068941598
  Cl  1.91933559653369      1.07365722249865      1.36377912824836
  H   -0.26610805625806     -0.62408550888271      1.62095588191283
  N   1.57569397580099     -0.98979207537040     -0.21228938298123
  H   2.56092231860027     -0.82379603293163     -0.38701162290975
  H   1.17150077965832     -1.36737193717143     -1.06314377621856
  C   0.79967815209934      1.18093339095793     -1.02453777333961
  N   0.68785542722391      1.83746176537552     -1.99378939170566
  C   -1.35067111549816     -0.83116994617730     -0.24261289578506
  H   -0.92106621446848     -1.81635536907967     -0.42759378404223
  H   -1.48253904389433     -0.29911514497491     -1.18773111333506
  H   -2.33606287592627     -0.97502021956595      0.20266626565696
  C   -1.12517799084580      1.21156320344732      1.10802593657221
  N   -1.69400781614667      2.19574333359162      1.40196502564081
