18

C	-0.352318	0.036812	-1.497338
C	0.0	0.0	0.0
F	-1.71219	0.379968	-1.642007
H	1.091169	0.0	0.0
N	0.418551	1.125092	-2.040136
H	0.423663	1.069086	-3.052056
H	1.383091	1.049884	-1.718062
C	-0.166517	-1.288586	-2.207775
H	0.85954	-1.635104	-2.069063
H	-0.363472	-1.143322	-3.274691
H	-0.856701	-2.045423	-1.830436
N	-0.52999	-1.278646	0.575788
O	-1.702115	-1.275325	0.954054
O	0.207076	-2.263027	0.571316
N	-0.496275	1.103568	0.760375
H	0.199375	1.835695	0.745592
H	-1.351906	1.447814	0.347885
Br	3.494452	0.0	0.0
