18

C	-0.41193	-0.005218	-1.478953
C	0.0	0.0	0.0
F	-0.112437	1.334131	-1.917022
H	1.096571	0.0	0.0
N	0.377001	-0.953445	-2.154933
H	0.271367	-0.864161	-3.155619
H	1.356186	-0.869345	-1.891919
C	-1.891912	-0.173753	-1.737003
H	-2.088124	-0.002359	-2.799245
H	-2.213433	-1.179304	-1.470162
H	-2.453667	0.548641	-1.145932
N	-0.453026	-1.298511	0.615174
O	0.334222	-2.239832	0.557123
O	-1.577895	-1.347708	1.116586
N	-0.601439	1.107387	0.700844
H	-0.092179	1.233313	1.57023
H	-0.412078	1.926166	0.134712
Br	3.543136	0.0	0.0
