18

C	-0.453574	0.001024	-1.466908
C	0.0	0.0	0.0
F	-1.863498	0.044514	-1.435669
H	1.090968	0.0	0.0
N	-0.002391	1.198771	-2.114112
H	0.979705	1.079078	-2.344407
H	-0.057907	1.949381	-1.431475
C	-0.032867	-1.209558	-2.264622
H	-0.286428	-1.022222	-3.309964
H	1.041764	-1.370635	-2.157706
H	-0.553492	-2.101517	-1.921683
N	-0.45862	-1.278808	0.68278
O	0.136151	-2.31572	0.401737
O	-1.411193	-1.207981	1.463626
N	-0.48524	1.165833	0.664474
H	0.059527	1.329265	1.500793
H	-1.457612	1.042055	0.914552
Br	3.478025	0.0	0.0
