18

C	-0.516598	0.025998	-1.442763
C	0.0	0.0	0.0
F	-0.177822	-1.227948	-2.003736
H	1.090114	0.0	0.0
N	-1.928021	0.230175	-1.494173
H	-2.389412	-0.517574	-0.98847
H	-2.233802	0.228867	-2.459178
C	0.217096	1.076866	-2.243615
H	1.28965	0.882284	-2.203829
H	-0.127055	1.044123	-3.282059
H	0.013494	2.067893	-1.836679
N	-0.423325	-1.328274	0.612248
O	0.445143	-2.081482	1.028736
O	-1.63742	-1.55818	0.675082
N	-0.509308	1.0524	0.817886
H	0.21793	1.721993	1.019718
H	-1.319895	1.485355	0.39824
Br	3.503685	0.0	0.0
