18

C	-0.401406	0.023476	-1.484984
C	0.0	0.0	0.0
F	-1.77839	0.313243	-1.536713
H	1.090057	0.0	0.0
N	0.271738	1.094132	-2.172579
H	0.243665	1.922992	-1.586308
H	1.254852	0.842212	-2.252982
C	-0.162995	-1.280291	-2.206352
H	-0.373158	-1.124384	-3.265763
H	0.872179	-1.598897	-2.070065
H	-0.822254	-2.056815	-1.819487
N	-0.516785	-1.271609	0.622813
O	-1.655811	-1.251353	1.088398
O	0.203882	-2.266888	0.566741
N	-0.468067	1.114801	0.755929
H	0.261515	1.795671	0.897619
H	-1.320188	1.513472	0.393045
Br	3.497853	0.0	0.0
