14

C	-0.391783	-0.085741	-1.466569
C	0.0	0.0	0.0
F	-1.748124	-0.383347	-1.612494
H	1.096724	0.0	0.0
H	0.17509	-0.903692	-1.921464
C	-0.12825	1.154697	-2.209173
N	0.047227	2.154047	-2.799614
C	-0.439905	-1.259521	0.751797
H	-0.058182	-1.218063	1.772736
H	-0.001498	-2.136278	0.26896
H	-1.525883	-1.361949	0.773876
C	-0.532987	1.201608	0.632106
N	-0.979989	2.142016	1.175914
Br	3.417204	0.0	0.0
