14

C	-0.408549	0.00756	-1.473729
C	0.0	0.0	0.0
F	-0.00209	-1.171147	-2.069703
H	1.096187	0.0	0.0
H	0.090484	0.832483	-1.989523
C	-1.869918	0.119578	-1.653555
N	-3.033242	0.194235	-1.793538
C	-0.515276	-1.229344	0.743801
H	-0.138487	-1.214426	1.767316
H	-0.131296	-2.125039	0.255633
H	-1.608209	-1.264926	0.766202
C	-0.471693	1.239441	0.611339
N	-0.887058	2.225371	1.097052
Br	3.44943	0.0	0.0
