14

C	-0.408424	0.008438	-1.473767
C	0.0	0.0	0.0
F	-0.002406	-1.1702	-2.070207
H	1.09618	0.0	0.0
H	0.091081	0.833359	-1.989155
C	-1.869693	0.121263	-1.653604
N	-3.03292	0.197185	-1.793395
C	-0.515418	-1.229779	0.742995
H	-0.131584	-2.125234	0.254215
H	-1.608369	-1.265187	0.765393
H	-0.138587	-1.215585	1.766537
C	-0.471589	1.239103	0.612088
N	-0.886311	2.224792	1.098839
Br	3.449397	0.0	0.0
