14

C	-0.408556	0.003982	-1.473739
C	0.0	0.0	0.0
F	-0.002233	-1.176253	-2.066766
H	1.096153	0.0	0.0
H	0.0906	0.827557	-1.991552
C	-1.869909	0.115741	-1.653839
N	-3.033213	0.190358	-1.79398
C	-0.515268	-1.227581	0.746696
H	-0.138499	-1.210225	1.770177
H	-0.131255	-2.124422	0.260668
H	-1.608204	-1.263149	0.769164
C	-0.47167	1.240937	0.608286
N	-0.886673	2.228425	1.091143
Br	3.449416	0.0	0.0
