17

C	-0.376329	-0.098593	-1.467669
C	0.0	0.0	0.0
Cl	0.038387	1.331999	-2.417987
H	1.096368	0.0	0.0
H	0.116646	-0.951837	-1.929449
N	-1.853026	-0.375166	-1.619002
O	-2.159221	-1.545794	-1.851214
O	-2.6467	0.541866	-1.430561
C	-0.441575	-1.270887	0.725287
H	-0.108626	-2.168865	0.198943
H	-1.529082	-1.324357	0.846244
H	0.016877	-1.282326	1.716457
C	-0.497714	1.250406	0.709918
H	-0.078867	1.259647	1.719184
H	-1.588668	1.276731	0.782144
H	-0.158965	2.156531	0.2069
Br	3.563529	0.0	0.0
