15
Coordinates from ORCA-job run
  C   0.67989896677023     -0.22364679012926      0.18209074635573
  C   -0.83716942487102     -0.15417168537418      0.38328455012935
  F   1.17505410553899     -1.29656859284282      0.85994172130358
  H   -1.05521509474851     -0.26570589033573      1.44473257787431
  N   1.05563333461390     -0.27522593709557     -1.14768034906312
  H   2.05123920035276     -0.14318086692181     -1.26948020590996
  H   0.52331115523032      0.33173288389609     -1.75523795962279
  N   1.28924117079208      0.97846604822213      0.97776902535041
  O   0.72957941811027      1.28756496146350      2.02375961286225
  O   2.31022216585010      1.46748400801872      0.51183127798109
  N   -1.45337023973336     -1.34395285463992     -0.32517160247418
  O   -1.54646079436402     -2.36085159258445      0.34939257240572
  O   -1.77118350086063     -1.19053197349364     -1.49741879393908
  C   -1.37625681330275      1.08708341358786     -0.14935651826367
  N   -1.77452364937835      2.10150486822909     -0.58745665498965
