15
Coordinates from ORCA-job run
  C   0.65752505670565     -0.25286153578784      0.22015369993478
  C   -0.86942209165589     -0.16125472499109      0.30155777271081
  F   1.07514857443282     -1.38448273559259      0.85341646355465
  H   -1.17736566714619     -0.34712994659175      1.32972374913377
  N   1.14162679856164     -0.21596511614623     -1.07479863805693
  H   2.14602184694930     -0.09852406013500     -1.10420048784204
  H   0.67160446896773      0.44556444991201     -1.67666202254736
  N   1.22309148735019      0.87175030437488      1.15048864947764
  O   0.57329189028799      1.13733031993461      2.15545310677665
  O   2.30239830627853      1.34575466841184      0.82014461708209
  N   -1.44512516244774     -1.27841745443558     -0.54522916797160
  O   -1.61242861769316     -2.34115028287564      0.03816955977918
  O   -1.65996801544074     -1.02931756101139     -1.72436233436989
  C   -1.34042906526564      1.12901039280641     -0.17660413794746
  N   -1.68396980988448      2.18169328212737     -0.56825082971428
