15
Coordinates from ORCA-job run
  C   0.54484589278984      0.08153519236806      0.43479252078138
  C   -0.73272677665466     -0.39090488503211     -0.26361725593580
  F   0.26299067890868      0.68601530555697      1.59934980477753
  H   -0.47900309030793     -0.85826231935476     -1.21769572011660
  N   1.39139560239259     -1.02108061137865      0.67814590052054
  H   2.14590341553831     -0.75941118982321      1.30211454386644
  H   1.75794238796374     -1.41783695180691     -0.17768999182601
  N   1.23773628106784      1.12504495099383     -0.46804981553686
  O   1.74644172640614      2.09597594750962      0.06282217011477
  O   1.29474814754089      0.79939248385637     -1.65156931917856
  N   -1.66870784502192      0.75285781988929     -0.62804899574293
  O   -1.27624467660433      1.89407345579148     -0.42694193119918
  O   -2.73461584677970      0.40807907489501     -1.11628918025782
  C   -1.45423860893943     -1.32278726689794      0.59141851208643
  N   -2.03846728830007     -2.07269100656704      1.28025875764666
