15
Coordinates from ORCA-job run
  C   0.67683927598533     -0.05106856647838      0.38298613398890
  C   -0.78838655852330     -0.48295168633716      0.22212061594057
  F   0.97604210221594     -0.33685007300471      1.70461886117443
  H   -0.81827462275216     -1.53173764378088      0.53102668221940
  N   1.53501157412100     -0.60733435905471     -0.55301558543611
  H   2.50290469509530     -0.39297461492983     -0.35039088718484
  H   1.37970529587288     -1.58625581838617     -0.74248197766139
  N   0.84927259887057      1.45920837409517      0.26801533333414
  O   1.92658372628255      1.88700772211069      0.65877603484727
  O   -0.06383514449007      2.08663216218634     -0.25363143826994
  N   -1.24469395660295     -0.50261167118883     -1.22468099892463
  O   -0.80778510016171     -1.45093238898157     -1.86957587502431
  O   -1.99846764639063      0.37461154859705     -1.61461952478388
  C   -1.69372166042881      0.28784343836098      1.05997741645664
  N   -2.43219457909395      0.84841357679201      1.77987520932376
