15
Coordinates from ORCA-job run
  C   0.53012680918524      0.26394868283704      0.41012879254648
  C   -0.63783963764647     -0.43699073852634     -0.32874076126101
  F   0.00206989020668      0.95903346346654      1.43506489548543
  H   -0.28560772415712     -0.76695818388836     -1.30902627009041
  N   1.57268006189346     -0.55926456687762      0.87714487904474
  H   1.24755535369062     -1.23325796196954      1.55876352837104
  H   2.07703281277094     -1.00450542183457      0.12262822514831
  N   1.17822247930942      1.24151756636132     -0.57257943494100
  O   1.17489563089685      2.42410706442537     -0.28656000029931
  O   1.67265526739921      0.70005810908157     -1.55574821109474
  N   -1.74425337547876      0.56418658801570     -0.58632704861949
  O   -2.80030274259037      0.42657230637059      0.01346660084501
  O   -1.44494731593784      1.44805357482578     -1.38095231558038
  C   -1.11951721069118     -1.55260732464962      0.46941356591845
  N   -1.42477029763399     -2.47289287002329      1.13232349781991
