15
Coordinates from ORCA-job run
  C   0.54314955878352      0.23247126154194      0.28360264465114
  C   -0.68581352095044     -0.47030444603355     -0.29861937046907
  F   0.13240021472440      1.07516966323407      1.27885744959925
  H   -0.42589375996184     -0.87421439131954     -1.27978729287562
  N   1.52236987258422     -0.69368047249448      0.66671248356250
  H   1.19039217176732     -1.31726726467252      1.39271314370048
  H   2.36417559693819     -0.22188100005119      0.97725402232364
  N   1.19910517334819      1.10236007835034     -0.79560992758264
  O   1.75976675726063      2.11045513520475     -0.39376645354793
  O   1.16825774458696      0.66928324931731     -1.93807513630834
  N   -1.80602997623802      0.52802656582526     -0.53983827843450
  O   -2.94780880448496      0.13309076353943     -0.35305465221527
  O   -1.45758184951086      1.62425261939625     -0.95498506546983
  C   -1.13966641047297     -1.51972775881246      0.60126932493479
  N   -1.41782276837435     -2.37703400302560      1.35432710813137
