15
Coordinates from ORCA-job run
  C   0.60461123045548      0.15566809426206      0.35915561645827
  C   -0.73295899347082     -0.30980340144292     -0.26999770459426
  F   0.30592348648373      0.90436305271150      1.43747683334093
  H   -0.53875582300524     -0.66799889670122     -1.28384570814981
  N   1.52431478962246     -0.84921360613263      0.71449644041838
  H   1.15155504701715     -1.47340750912619      1.41863625708479
  H   1.87049415543970     -1.35543079822923     -0.08896370363056
  N   1.31999161608646      1.03135358154778     -0.67201754316106
  O   1.61636610730059      0.43855913394211     -1.70395572714095
  O   1.55236209839290      2.18806279815384     -0.37497325925073
  N   -1.66476903329172      0.87629640384552     -0.40675379123767
  O   -2.66697830546622      0.90886407130484      0.29206825615159
  O   -1.29067556487166      1.71567166717073     -1.21772949501401
  C   -1.32662790859235     -1.34636938355558      0.55868864967292
  N   -1.72585290210049     -2.21761520775058      1.23771487905218
