15
Coordinates from ORCA-job run
  C   0.53704189307083      0.14763579713088      0.37055514276261
  C   -0.76881445939809     -0.39625264432804     -0.22978160707518
  F   0.25724268438092      1.03675908772756      1.34029011949816
  H   -0.55312554383040     -0.86160154677299     -1.19507453777193
  N   1.33082492475904     -0.88841546490207      0.89383950210006
  H   1.66422627092125     -1.51167190007514      0.16946433729594
  H   2.10746132616302     -0.51150108571742      1.42463872301660
  N   1.28707294348867      0.92160826603492     -0.74681326428928
  O   1.62081601772800      2.07397815822400     -0.53277137661553
  O   1.54195231193995      0.23433687447310     -1.73042269396379
  N   -1.68360850454277      0.78099746064824     -0.52917958816404
  O   -2.75435933678962      0.84194034047218      0.05520674354137
  O   -1.23618859780315      1.57264770303260     -1.34977102149497
  C   -1.41568032429735     -1.32923843355081      0.67824624248856
  N   -1.93486160579030     -2.11122261239702      1.38357327867142
