15
Coordinates from ORCA-job run
  C   0.66659564320461     -0.07889210294545      0.39455404037862
  C   -0.80817230850441     -0.46019798513620      0.19775983977878
  F   0.92851247883467     -0.39116061436537      1.71876012623891
  H   -0.87530697898809     -1.51403413323577      0.48305073739889
  N   1.52363560020748     -0.65243686699774     -0.53104656870718
  H   1.33991906551357     -1.62261956277693     -0.73798808947691
  H   2.49417022034183     -0.46987931849055     -0.31172023294777
  N   0.89397854908949      1.42574315085798      0.30555322126492
  O   1.99199930636799      1.80291077354924      0.69140884877072
  O   -0.00028233283574      2.10021792065025     -0.18910081562129
  N   -1.23546837534019     -0.43405090708358     -1.25709715141024
  O   -1.94798096994661      0.47889333482352     -1.64318763369919
  O   -0.82183786715176     -1.38509263168674     -1.91343772426681
  C   -1.70651044015697      0.31848927602073      1.03597763277558
  N   -2.44425159063587      0.87910966681659      1.75651376952299
