15
Coordinates from ORCA-job run
  C   0.60173081542274      0.12554436100547      0.22653614288887
  C   -0.78715472118969     -0.33225536798011     -0.22628045398831
  F   0.45307848595045      1.02166991660307      1.24845084691409
  H   -0.70334139686974     -0.76629793507382     -1.22530424643195
  N   1.42504857911134     -0.96911857421939      0.52202078230700
  H   1.05579137671029     -1.52537456232687      1.28387421627113
  H   2.36584229700274     -0.66377467756103      0.74424802902523
  N   1.29922206537126      0.86734497777350     -0.92012864338895
  O   2.07305148588560      1.75094892660410     -0.58471610856040
  O   1.07797632677526      0.45658851659213     -2.04966575379338
  N   -1.72096834846295      0.85865314541463     -0.36329244745458
  O   -2.89045876781883      0.68332287859597     -0.05338435692753
  O   -1.21940655788329      1.87274066938231     -0.82753558889631
  C   -1.33652029573722     -1.29022666696510      0.72107910837987
  N   -1.69289134426797     -2.09076560784486      1.50309847365522
