15
Coordinates from ORCA-job run
  C   0.57590143807027      0.21884361723060      0.37314770012082
  C   -0.69579376568336     -0.37761993174539     -0.28147768294551
  F   0.17782163445374      0.99166166495237      1.40114538429524
  H   -0.43362974625387     -0.76593448338281     -1.26860951671475
  N   1.55343362990611     -0.69442458445817      0.81183664903209
  H   1.96908661834695     -1.20940627937688      0.04785258161432
  H   1.20018644222864     -1.31186984615901      1.53180984206393
  N   1.26494035781690      1.09824605169050     -0.67272055056507
  O   1.64708226125313      0.48266608010482     -1.66228501675220
  O   1.39732731051830      2.28198959100056     -0.42481988368516
  N   -1.70853687486153      0.72478429340373     -0.51109341714102
  O   -2.73890110111450      0.71085110194580      0.14619785299125
  O   -1.36543583838417      1.55326843062300     -1.34665600673352
  C   -1.24249876787918     -1.41792457019938      0.57439327622564
  N   -1.60198359841743     -2.28513113562974      1.28027878819393
