15
Coordinates from ORCA-job run
  C   0.58527177441380      0.17329403827431      0.23747702578921
  C   -0.75650060444524     -0.39170872145997     -0.23602417228672
  F   0.34758152561185      1.08934951514969      1.22458850139956
  H   -0.61707741991964     -0.84659748077289     -1.21941655777224
  N   1.47147861020068     -0.85242879200491      0.59062470680098
  H   2.38365407043579     -0.47846926838085      0.82637694687232
  H   1.11905909092644     -1.41061331391729      1.35888659222228
  N   1.26259686708112      0.92531039116747     -0.91510522689779
  O   1.10833062701633      0.45884221255234     -2.03414770615248
  O   1.95772138104754      1.87605222733190     -0.59126122408233
  N   -1.76354200470588      0.72948527986518     -0.43107905147681
  O   -1.32015587116613      1.75558824471488     -0.92725661691606
  O   -2.92412020736662      0.49207526573004     -0.12910593374496
  C   -1.26546519130999     -1.35818869727916      0.72523185015314
  N   -1.58883264782004     -2.15999090097075      1.52021086609190
