15
Coordinates from ORCA-job run
  C   0.59008007862654      0.03349054692356      0.35476910138279
  C   -0.79070253554187     -0.38001536523100     -0.17707005572780
  F   0.46220961974975      0.71118552693808      1.50623868569067
  H   -0.67483655783404     -0.82356349849287     -1.16841763142317
  N   1.40909666583329     -1.09176098160179      0.54660710910347
  H   1.70169489124563     -1.49272785238288     -0.33517393057430
  H   2.21429362283976     -0.85562043769265      1.11431400322606
  N   1.17710578618786      1.02506620588531     -0.68938445792456
  O   1.28606153288484      2.20082627417429     -0.38111412061388
  O   1.48817105899508      0.49229023386170     -1.74974798312742
  N   -1.63043266561669      0.86885927799643     -0.36710869077731
  O   -1.51393923364081      1.40998358331268     -1.46172352641408
  O   -2.30689215357366      1.23960477218386      0.58180635929412
  C   -1.43960249551176     -1.29135913219925      0.75072330308002
  N   -1.97330761464391     -2.04625915367549      1.47428183480538
