15
Coordinates from ORCA-job run
  C   0.64741088872726     -0.02142230142124      0.26662497222319
  C   -0.88208381719914      0.03410227886449      0.23223030253324
  F   0.96862436916635     -0.93428937972471      1.26599011513303
  H   -1.24916528527026      0.36558937205323      1.20203842059977
  N   1.24226176006961     -0.23897179291903     -0.96015890734067
  H   2.25095213289882     -0.27101038649793     -0.89902217860420
  H   0.84494741473013     -1.02089566699978     -1.46190873515065
  N   1.18794957580836      1.30186551661966      0.81433953596760
  O   0.38322976596751      2.09919683148113      1.28318271245012
  O   2.40342714900741      1.42446327884476      0.75854381372473
  N   -1.40128303646981     -1.38059441181962      0.05390700925449
  O   -1.08967326375956     -1.95514348828120     -0.98457438016552
  O   -2.08509215090998     -1.82463457607946      0.96503550780845
  C   -1.38930981236003      0.87455899368968     -0.84043333667258
  N   -1.83219569040666      1.54618573219002     -1.69579485176098
