15
Coordinates from ORCA-job run
  C   0.65191134129406     -0.17571887617082      0.18563789813934
  C   -0.87491884430872     -0.08254342591754      0.24362243312864
  F   0.96044547755898     -1.49259465989811      0.51307165289862
  H   -1.20914705140556     -0.32808911358830      1.25018523410422
  N   1.21393967870712      0.30162875591844     -0.98167016898980
  H   0.78843138196235     -0.08574241316355     -1.81268795761413
  H   2.22274904682670      0.23267892155664     -0.97819920576867
  N   1.24973441343553      0.62248563006601      1.34766412547672
  O   0.48602408444878      1.02435984882827      2.21843320705098
  O   2.46526815932330      0.75276081500214      1.31323786751751
  N   -1.45174654642542     -1.15769320436811     -0.65793516354815
  O   -2.15700381648053     -1.99631310353539     -0.11552409229979
  O   -1.16420875716259     -1.09210891345603     -1.84893126319158
  C   -1.37300347431920      1.21832402081661     -0.17375644649693
  N   -1.80847509345479      2.25856571790973     -0.50114812040699
