15
Coordinates from ORCA-job run
  C   0.66470482704107     -0.07203352609857      0.39799304585429
  C   -0.80588957219089     -0.46560831747675      0.19420635052240
  F   0.92159208348685     -0.37809920183257      1.72457306368292
  H   -0.86637362593210     -1.51917667799056      0.48195337864669
  N   1.53174739215295     -0.64233022053309     -0.52104182853899
  H   2.49898899086773     -0.44844245832878     -0.29594993607696
  H   1.36065895710891     -1.61753763255048     -0.71681856833878
  N   0.88127075526474      1.43363108866413      0.30453734619059
  O   -0.01622813662583      2.09970839881924     -0.19570283834494
  O   1.97473669064134      1.82057648560366      0.69371220251167
  N   -1.22548412585632     -0.44655591898321     -1.26309168579623
  O   -0.79927423477628     -1.39485671241129     -1.91498925777922
  O   -1.94379896369937      0.45935630115431     -1.65505972304075
  C   -1.71514748167627      0.30774198748175      1.02568313399920
  N   -2.46150355580653      0.86362640448221      1.74099531650811
