15
Coordinates from ORCA-job run
  C   0.73849960328942     -0.11696221915440      0.46753508813891
  C   -0.75718382957918     -0.50966075471885      0.27950294504586
  F   0.99069303021447     -0.38341073374313      1.76990518004986
  H   -0.82733977603925     -1.57728213161692      0.50449852270866
  N   1.69607049365998     -0.71978006758008     -0.35485308411009
  H   1.72092919269941     -0.29978700413940     -1.27370668605169
  H   1.57133665462049     -1.72047790452057     -0.42441169709559
  N   0.84832165006753      1.39424051836025      0.26052522366186
  O   0.86916645060654      1.74949189553498     -0.91444591025974
  O   0.87257474935469      2.09699430889784      1.25670632669778
  N   -1.15517193423759     -0.36644113576609     -1.17079893023391
  O   -0.74273691081290     -1.25984755768926     -1.90427199879327
  O   -1.81580210769073      0.61163886275700     -1.49231513195479
  C   -1.64606205690094      0.25432026324961      1.13952447078066
  N   -2.36129520925194      0.84796366012902      1.85760568141549
