15
Coordinates from ORCA-job run
  C   0.75716900845409     -0.09522731907539      0.40073022654043
  C   -0.75136597519274     -0.46071970223773      0.24901667774847
  F   1.00200573293906     -0.12892157961333      1.73925230989587
  H   -0.81043740132212     -1.55453792243226      0.22284011043218
  N   1.71511875176194     -0.87474306067181     -0.24750018563829
  H   1.64094686214926     -0.82794009491472     -1.25278448706157
  H   1.72593744287192     -1.82544331982979      0.09473133017266
  N   0.91013812710460      1.37282578876605     -0.04292215073582
  O   0.01796758771027      2.11156327903461      0.36178528066281
  O   1.88225245845299      1.68073920972501     -0.71340762091337
  N   -1.27002933353141     -0.01786388167259     -1.10744006506997
  O   -0.45134875726486     -0.05655041814680     -2.02166937867136
  O   -2.44910294647311      0.28353908650324     -1.19315948550727
  C   -1.61100664325992      0.03613721309481      1.31105874739228
  N   -2.30924491439997      0.35814272147071      2.19846869075293
