15
Coordinates from ORCA-job run
  C   0.61448825444440     -0.16656316940210      0.37230592856529
  C   -0.89878216070959      0.04030765344538      0.25339676202069
  F   0.88054379215058     -0.92161990632275      1.47456508897415
  H   -1.28735887970483      0.34855380740564      1.22320710018907
  N   1.18099002010967     -0.73665858116610     -0.75314310952757
  H   2.19191157098133     -0.70323740590100     -0.73067634804741
  H   0.81658879357382     -0.38472992603215     -1.62736266535455
  N   1.22551152130679      1.21873655279022      0.76865122949656
  O   2.36435388763381      1.43316307997132      0.37371954020237
  O   0.54213186468297      1.93985312510503      1.48689907652966
  N   -1.52393429408459     -1.30142173317201     -0.07133295187482
  O   -1.64029890496294     -1.58947576166171     -1.25540347499875
  O   -1.82661520952612     -1.98350827921658      0.89865528381153
  C   -1.21224085783763      1.00929725854132     -0.78471868614876
  N   -1.42728939805767      1.79730328561549     -1.62876277383748
