15
Coordinates from ORCA-job run
  C   0.59809069724041      0.25491068483218      0.30948861547607
  C   -0.71929385334561     -0.39225255212845     -0.18841523259152
  F   0.26947647826757      1.20438301202023      1.20554755423945
  H   -0.51172582201708     -0.95133613211172     -1.10396648102340
  N   1.56324916438357     -0.60922831978690      0.86105814574068
  H   1.92593736176235     -1.26379604648600      0.18159176885275
  H   1.22137888041948     -1.07950559658904      1.68941624676627
  N   1.27031031399016      0.91813118797843     -0.89468735641834
  O   1.45075175753767      2.12071852529035     -0.85681820994112
  O   1.59041847830706      0.13021784217502     -1.77830651371364
  N   -1.70265198573515      0.69605958516091     -0.56457941087647
  O   -2.70108719187701      0.83815059498974      0.12608519743031
  O   -1.37027355200367      1.35477446454018     -1.54332126904585
  C   -1.26369295415429     -1.25057051719719      0.85098487366564
  N   -1.62188777277547     -1.97065673268774      1.70692207143919
