15
Coordinates from ORCA-job run
  C   0.62942032737728     -0.06032507112410      0.30025697076411
  C   -0.89573334891294     -0.00456624368799      0.17883568516922
  F   0.89981212817495     -1.11319271000611      1.16836709955639
  H   -1.32587889617653      0.17602862582208      1.16246898452270
  N   1.30191185121704     -0.08739393625728     -0.90570586378376
  H   0.95182241620544     -0.79373814144800     -1.53832789376798
  H   2.30526290844097     -0.12038989989748     -0.78446829157661
  N   1.11859323576599      1.16681772291105      1.07362137115133
  O   2.33374802000185      1.29950295599829      1.11404179650954
  O   0.27688663881820      1.88259066680027      1.60479286190969
  N   -1.38759680578598     -1.37634745771071     -0.24328536834414
  O   -2.13411034239791     -1.94731115371616      0.53886894035170
  O   -0.99579391438223     -1.79283197564940     -1.32882107731006
  C   -1.34373884434746      0.98855240881777     -0.78424689588894
  N   -1.73360537399868      1.78260420914779     -1.55639831926319
