15
Coordinates from ORCA-job run
  C   0.74030106780925     -0.10730106099843      0.46669072452813
  C   -0.75108485513863     -0.51870415661876      0.28828675581322
  F   0.99934266987344     -0.35535505843018      1.77218647482035
  H   -0.80815744355113     -1.58584870665861      0.51893900929894
  N   1.69525167531073     -0.71246246779796     -0.35547634333100
  H   1.74605808879733     -0.27154872177428     -1.26335264919804
  H   1.55422071700128     -1.70890554279066     -0.44888514561712
  N   0.83521257767663      1.40416485398921      0.24571215364758
  O   0.80131130991372      2.11449116442137      1.23661631446672
  O   0.90248552024136      1.75279868128963     -0.92938229388139
  N   -1.14989432099381     -0.38462860581997     -1.16207068737095
  O   -1.78577378336783      0.60710730445149     -1.49260526393780
  O   -0.75958278444775     -1.29489444227889     -1.88703913876350
  C   -1.64856219925967      0.23756617414099      1.14615920404856
  N   -2.37112823986490      0.82352058487506      1.86322088547631
