15
Coordinates from ORCA-job run
  C   0.60110400555066     -0.20076452363910      0.38152901751075
  C   -0.90537276925626      0.03176368778459      0.22781965926126
  F   0.82417935355448     -1.02539799483676      1.44225433375161
  H   -1.32102234590276      0.27799090195171      1.20422536350419
  N   1.19810170566154     -0.70580580975196     -0.75901682376966
  H   2.20797420474707     -0.68879207508795     -0.70138635102881
  H   0.87075879603456     -0.28772115815219     -1.61880309153923
  N   1.20666825228998      1.15394071055752      0.88257351021146
  O   2.32984042975759      1.42539396633360      0.47863468488037
  O   0.52957322257626      1.79526696216831      1.67816366490828
  N   -1.53415802186489     -1.27547154673478     -0.20910085101004
  O   -1.61994709591841     -1.47704341316491     -1.41356938743833
  O   -1.87038221439220     -2.02149572942053      0.70091385250495
  C   -1.17201002259875      1.07452580653275     -0.75028772082285
  N   -1.34630750023886      1.92461021545970     -1.54194986092396
