15
Coordinates from ORCA-job run
  C   0.70318457535966     -0.06714436727026      0.33084406028796
  C   -0.75709033614517     -0.53257200640832      0.28716299569213
  F   1.12794771284724     -0.28637595257159      1.63017500177880
  H   -0.74936006223517     -1.61396877558147      0.44873029393114
  N   1.43767897336991     -0.70472352225162     -0.65960243672628
  H   2.31552716540624     -0.24423389506516     -0.85670182259588
  H   1.54885202675767     -1.69462338353249     -0.49028040965329
  N   0.84084890523693      1.44893752628233      0.15429171369788
  O   0.11919262448180      2.12477603894715      0.87075512407298
  O   1.69904537712440      1.84782147740470     -0.62261345918778
  N   -1.27438066681252     -0.33182978101026     -1.11734079606874
  O   -1.59359631927040     -1.34289909892218     -1.72876322045861
  O   -1.31155349052971      0.82528172449324     -1.51418797564657
  C   -1.66044013156623      0.08570489204914      1.24697428933274
  N   -2.44785635402464      0.48784912343680      2.01955664154351
