15
Coordinates from ORCA-job run
  C   0.63635896329510     -0.17346934487627      0.48718488823185
  C   -0.83768936451915     -0.47987485826326      0.17013714488118
  F   0.77693277241415     -0.17416025399386      1.84222734557576
  H   -0.94913927160812     -1.56628938295307      0.25430460469938
  N   1.53065136566730     -1.09072791073007     -0.05971311352836
  H   1.41737087614938     -1.15812138462582     -1.06243518957966
  H   2.48202005748447     -0.83590145710291      0.17949515869503
  N   0.93926858682552      1.30397559051037      0.11079823535742
  O   2.12303389121529      1.61312721646905      0.15499013875407
  O   -0.00894552998441      2.03126443869599     -0.16539097596925
  N   -1.20016236821339     -0.15652695243637     -1.26940345473701
  O   -0.31012404024440     -0.33352427670068     -2.09479127930237
  O   -2.34832148954884      0.18343129614379     -1.49473940329533
  C   -1.75474910786568      0.17905667347685      1.08666082810457
  N   -2.49650534106722      0.65874060638626      1.85967507211270
