15
Coordinates from ORCA-job run
  C   0.56721813215383      0.13130903171969      0.36731671898686
  C   -0.77607634298324     -0.42798270595026     -0.12525326552938
  F   0.36515072985891      1.06386721161191      1.31145448924652
  H   -0.59947551346545     -1.09014676664279     -0.97563391238984
  N   1.38263966737530     -0.89549241089500      0.87126444609690
  H   2.15108280651314     -0.51201464956627      1.40853267961702
  H   1.72828532296600     -1.49276063548572      0.13129197939466
  N   1.20950639069478      0.85490155728779     -0.85098190599733
  O   1.57977920031374      0.08904842811071     -1.73504746657700
  O   1.30058863319527      2.07157253118546     -0.82628837283201
  N   -1.61559575904443      0.72145620658921     -0.65095470433000
  O   -2.35665303034346      1.28399137640903      0.14265781251274
  O   -1.43506524447497      0.99667453474284     -1.83249691626848
  C   -1.46876956352311     -1.10871635372814      0.95611470868971
  N   -2.03361542923632     -1.68470735538845      1.80902370937964
