15
Coordinates from ORCA-job run
  C   0.69838948030838      0.02758675840010      0.03491242347313
  C   -0.74238444879733     -0.27248413727508      0.45679727394464
  F   1.43291627936550     -1.10482832321767      0.37002140148379
  H   -0.77031544838821     -0.45302167069236      1.53005089416153
  N   0.83617430700459      0.47062833442681     -1.26589591689956
  H   0.36659957860117     -0.12180459560855     -1.93692338607683
  H   1.80002384735936      0.66071396083944     -1.50561908291638
  N   1.27807756445770      1.10666015552573      0.95344270652097
  O   2.37781171827403      1.52779047149432      0.62356657576535
  O   0.62543893608530      1.43138977874582      1.93917008453232
  N   -1.16347616912690     -1.57693001163756     -0.19436629812728
  O   -1.45118801789730     -2.49167990481436      0.56429145208430
  O   -1.17971320519758     -1.60056383635261     -1.42090814051175
  C   -1.66828282991727      0.78128962100859      0.07386340590456
  N   -2.43907159213144      1.61625339915738     -0.22140339333880
