17

C	-0.604407	0.074712	-1.407953
C	0.0	0.0	0.0
Br	0.016253	1.719555	-2.333605
H	1.105844	0.0	0.0
C	-0.137635	-1.046553	-2.221766
N	0.14066	-1.945042	-2.92619
C	-2.128978	0.096579	-1.396867
H	-2.524557	0.156366	-2.412466
H	-2.476304	0.946866	-0.810728
H	-2.471258	-0.827773	-0.926933
N	-0.417931	-1.275268	0.566214
H	-1.11108	-1.107669	1.286198
H	0.401831	-1.710585	0.977029
N	-0.509283	1.109932	0.824284
H	-0.289989	1.974188	0.333475
H	0.112046	1.119719	1.632953
H	2.853438	0.0	0.0
