17

C	-0.444228	-0.142675	-1.436506
C	0.0	0.0	0.0
Br	-2.471569	-0.336162	-1.510514
H	1.109653	0.0	0.0
C	-0.172285	1.069821	-2.203907
N	0.059034	1.992762	-2.893184
C	0.17888	-1.356548	-2.094211
H	1.265601	-1.238032	-1.991756
H	-0.102735	-1.433138	-3.146189
H	-0.126375	-2.245926	-1.546068
N	-0.34589	-1.204378	0.744197
H	0.376968	-1.34226	1.444744
H	-1.24096	-1.094244	1.20846
N	-0.413704	1.280482	0.540615
H	-1.332277	1.21832	0.966673
H	0.263358	1.557088	1.243925
H	2.755537	0.0	0.0
