17

C	-0.437124	-0.069532	-1.445607
C	0.0	0.0	0.0
Br	-2.457218	-0.28175	-1.539625
H	1.107314	0.0	0.0
C	-0.175621	1.185245	-2.146309
N	0.044832	2.142562	-2.791966
C	0.209743	-1.237246	-2.162874
H	-0.086929	-2.159303	-1.666597
H	-0.061171	-1.261013	-3.220137
H	1.293784	-1.109018	-2.043526
N	-0.343103	-1.244206	0.676176
H	0.389109	-1.429363	1.354826
H	-1.233663	-1.162848	1.155854
N	-0.417602	1.248936	0.606456
H	0.272279	1.504406	1.304902
H	-1.325536	1.157525	1.049234
H	2.759364	0.0	0.0
