17

C	-0.510557	0.041821	-1.447406
C	0.0	0.0	0.0
Br	0.066198	-1.587727	-2.391088
H	1.105517	0.0	0.0
C	-1.973306	0.043958	-1.470451
N	-3.149271	0.067118	-1.471265
C	0.072615	1.240891	-2.186521
H	1.158949	1.216668	-2.06051
H	-0.182769	1.211571	-3.247214
H	-0.331689	2.155858	-1.746377
N	-0.498467	-1.153489	0.698186
H	-1.371964	-0.955722	1.169572
H	0.199128	-1.460356	1.363123
N	-0.433606	1.279692	0.622592
H	-0.47525	1.100708	1.621417
H	0.349747	1.922778	0.510963
H	2.877382	0.0	0.0
