17

C	-0.602531	0.020807	-1.409897
C	0.0	0.0	0.0
Br	0.020822	1.630266	-2.39608
H	1.104605	0.0	0.0
C	-0.135422	-1.130025	-2.181061
N	0.145851	-2.053566	-2.851479
C	-2.127446	0.043194	-1.401817
H	-2.521727	0.066644	-2.419235
H	-2.475151	0.914228	-0.847239
H	-2.471445	-0.864305	-0.899684
N	-0.420012	-1.251828	0.614611
H	0.393658	-1.66307	1.06133
H	-1.130179	-1.056635	1.310127
N	-0.508265	1.141292	0.780466
H	0.10638	1.176318	1.592275
H	-0.281579	1.986087	0.26183
H	2.854696	0.0	0.0
