14

C	-0.469104	-0.032548	-1.431224
C	0.0	0.0	0.0
F	-1.874696	0.010271	-1.516039
H	1.094107	0.0	0.0
H	-0.335639	0.953941	0.421968
C	0.024984	1.131762	-2.193321
N	0.405029	2.04989	-2.817876
C	-0.057595	-1.268877	-2.128388
N	0.254397	-2.240264	-2.708907
C	-0.508246	-1.18482	0.80764
H	-0.101983	-2.12011	0.413181
H	-1.59953	-1.252937	0.828145
H	-0.142688	-1.088429	1.83278
H	2.849326	0.0	0.0
