14

C	-0.467781	-0.007017	-1.442201
C	0.0	0.0	0.0
F	-0.03098	1.13144	-2.103338
H	1.094153	0.0	0.0
H	-0.327267	-0.940106	0.459597
C	0.029216	-1.186691	-2.181984
N	0.388111	-2.106797	-2.816504
C	-1.948344	-0.009826	-1.535623
N	-3.123073	-0.009193	-1.562264
C	-0.516446	1.208097	0.767152
H	-0.216183	2.128428	0.262733
H	-0.04745	1.214823	1.753963
H	-1.604067	1.212483	0.896039
H	2.866939	0.0	0.0
