14

C	-0.468253	0.006729	-1.441286
C	0.0	0.0	0.0
F	-0.032533	-1.132417	-2.102835
H	1.094257	0.0	0.0
H	-0.32699	0.940248	0.459744
C	-1.948871	0.009007	-1.534219
N	-3.123538	0.005003	-1.560056
C	0.027404	1.185529	-2.182977
N	0.382475	2.106457	-2.81855
C	-0.517288	-1.208001	0.766782
H	-0.220886	-2.128302	0.260212
H	-1.604284	-1.210575	0.899423
H	-0.044625	-1.217113	1.751378
H	2.867116	0.0	0.0
