14

C	-0.474564	-0.026477	-1.437719
C	0.0	0.0	0.0
F	-0.048096	1.109111	-2.107499
H	1.093852	0.0	0.0
H	-0.355251	0.944893	0.426131
C	0.020393	-1.210202	-2.174798
N	0.379832	-2.132659	-2.806505
C	-1.955625	-0.041262	-1.519705
N	-3.130555	-0.048921	-1.534364
C	-0.490771	-1.20033	0.798228
H	-1.581346	-1.260117	0.87695
H	-0.117252	-2.129979	0.359982
H	-0.071811	-1.137797	1.804924
H	2.865197	0.0	0.0
