14

C	-0.473207	-0.032634	-1.438236
C	0.0	0.0	0.0
F	-0.042302	1.097943	-2.114091
H	1.093877	0.0	0.0
H	-0.354674	0.947666	0.420504
C	0.019265	-1.222059	-2.167919
N	0.382779	-2.148035	-2.792029
C	-1.954254	-0.042869	-1.521695
N	-3.129257	-0.041821	-1.537778
C	-0.494229	-1.194873	0.803541
H	-0.122053	-2.12785	0.370952
H	-0.077926	-1.128197	1.810942
H	-1.585178	-1.251832	0.880072
H	2.866518	0.0	0.0
