14

C	-0.470997	-0.023561	-1.431537
C	0.0	0.0	0.0
F	-1.875402	0.013542	-1.510918
H	1.094081	0.0	0.0
H	-0.337273	0.950339	0.428598
C	0.014807	1.14833	-2.188636
N	0.386321	2.075202	-2.805409
C	-0.056059	-1.252066	-2.138348
N	0.264159	-2.224339	-2.713818
C	-0.504517	-1.192441	0.799095
H	-0.094733	-2.123117	0.397777
H	-1.595288	-1.263086	0.818012
H	-0.140873	-1.102867	1.825186
H	2.849363	0.0	0.0
