13

C	-0.46607	0.028705	-1.465037
C	0.0	0.0	0.0
Cl	0.191452	1.44509	-2.308824
H	1.094096	0.0	0.0
H	-0.078051	-0.854605	-1.976243
C	-1.925894	0.044264	-1.549992
N	-3.099683	0.051771	-1.58519
C	-0.450325	-1.272944	0.587759
N	-0.845017	-2.257332	1.095061
N	-0.46665	1.164291	0.724921
H	-1.339614	0.98525	1.204728
H	0.239859	1.439794	1.396353
Br	3.421408	0.0	0.0
