13

C	-0.466033	0.046334	-1.46516
C	0.0	0.0	0.0
Cl	0.180029	1.482473	-2.286057
H	1.094072	0.0	0.0
H	-0.06852	-0.826032	-1.989249
C	-1.926122	0.049703	-1.552455
N	-3.100036	0.046839	-1.593949
C	-0.449994	-1.279176	0.573392
N	-0.850785	-2.266987	1.069133
N	-0.466657	1.15577	0.738913
H	-1.322118	0.964514	1.242342
H	0.254103	1.443582	1.388862
Br	3.412419	0.0	0.0
