13

C	-0.553311	0.09308	-1.430606
C	0.0	0.0	0.0
Cl	-0.088065	-1.322076	-2.414929
H	1.094096	0.0	0.0
H	-1.64514	0.103412	-1.384919
C	-0.112012	1.326695	-2.077706
N	0.222769	2.320115	-2.605955
C	-0.482138	-1.230271	0.634053
N	-0.929839	-2.162784	1.192176
N	-0.440413	1.195579	0.718997
H	0.368934	1.611186	1.161796
H	-1.13019	0.980499	1.425986
Br	3.404818	0.0	0.0
