14
Coordinates from ORCA-job run
  C   0.77558539173325     -0.68462329872619     -0.12431896060172
  C   -0.52220427423652      0.06009823805610      0.21494663284262
  Br  1.01399745592272     -0.98255513679108     -2.00133828786647
  H   -0.49949566943285      0.17007936134782      1.30753693583753
  H   0.82201913781403     -1.65178280741965      0.37675211814318
  N   1.91061069891911      0.12162907502656      0.46960673846752
  O   2.68261030356503      0.73022108960379     -0.24984467808201
  O   1.91541703250804      0.10112492411531      1.69921447494136
  N   -1.65302136304147     -0.72025603221974     -0.27224706989978
  H   -1.67601398894717     -1.63919950168807      0.15812020247833
  H   -2.51044782796248     -0.24239927575867     -0.02023552285706
  N   -0.46407947513555      1.38350998454437     -0.34427696160123
  H   -0.68115617520772      1.34897673435656     -1.33334076167055
  H   -1.11382124649841      2.00517664555288      0.11742513986829
