14
Coordinates from ORCA-job run
  C   0.79660376935487     -0.66396397319123     -0.09738853109870
  C   -0.54213250068327      0.03710877828511      0.16604405171368
  Br  1.22439087291021     -0.81535979407814     -1.95819480648382
  H   -0.62954887110525      0.06176045895826      1.26064067847104
  H   0.81310813957859     -1.66571392928494      0.33264459621249
  N   1.85218880485372      0.10829019764168      0.66515702976446
  O   1.73626808356266     -0.00490229266433      1.88418141328269
  O   2.67984957995162      0.77800342588809      0.07310802540193
  N   -1.60446222927054     -0.71581783260517     -0.48960860167324
  H   -2.49180690397142     -0.27063864281205     -0.28597120002385
  H   -1.65018021501925     -1.66671606893704     -0.13764503590736
  N   -0.45449426046040      1.40047703300141     -0.28235435064725
  H   -0.57170514700016      1.43978470764611     -1.28798626154278
  H   -1.15907912270138      1.97668793215224      0.15737299253071
