14
Coordinates from ORCA-job run
  C   0.76904478565246     -0.64823464513782      0.24551231873970
  C   -0.45675310210626     -0.00331227073662     -0.39812903763380
  Br  1.30906625588269     -2.28432851648305     -0.60630896536202
  H   -0.21127908595739      0.16074739765260     -1.44985452209789
  H   0.62095700914545     -0.85432286156394      1.30601473779779
  N   1.90582804239732      0.33324487600910      0.17974536327494
  O   2.22393870478247      0.74108727532985     -0.92862115569917
  O   2.40788350266036      0.65410169335406      1.25168078050029
  N   -0.59049409853810      1.30557004841243      0.22801079934843
  H   -1.04000648493760      1.22917800976202      1.13307934900936
  H   -1.13963421551695      1.92806410326273     -0.35011982785815
  N   -1.56644363564123     -0.93187046098225     -0.33305196097187
  H   -1.89559396874666     -1.03119190498886      0.62072238732915
  H   -2.33651370907656     -0.59873274389024     -0.89868026637678
