14
Coordinates from ORCA-job run
  C   0.76814570542461     -0.66148519816164      0.18207568231497
  C   -0.51784721580987     -0.03426281756311     -0.35107544496433
  Br  1.33884493794114     -2.17443692103468     -0.86226812823601
  H   -0.41153548925677      0.09476115880108     -1.43426985791727
  H   0.64917202165111     -0.97903727714213      1.21653994328986
  N   1.88744189724807      0.33824646240215      0.18336602390166
  O   1.95651382480327      1.09589007202286     -0.78253626682322
  O   2.65306062940537      0.31416338376819      1.14016349798440
  N   -0.70528009964356      1.21895498385769      0.38131872226046
  H   -1.66785358179496      1.51541970834169      0.27593704342079
  H   -0.11428892646605      1.94767621410715     -0.00236144744337
  N   -1.58316381609319     -0.97352767233798     -0.10473319793473
  H   -2.37645694329045     -0.79286955168190     -0.70417784818080
  H   -1.87775294411870     -0.90849254537937      0.86302127832760
