14
Coordinates from ORCA-job run
  C   0.86743779486666     -0.40493598649215     -0.32741778791600
  C   -0.41981456808438      0.38286759383597     -0.10302634461930
  Br  1.97648683016489      0.34944438577733     -1.71911640389890
  H   -0.12985345915105      1.40349288306512      0.17607668028700
  H   0.66005891150135     -1.44152120831361     -0.58546846624637
  N   1.64772458111509     -0.42300014892059      0.95281131101038
  O   1.90642161392570      0.65974427936669      1.46294224947142
  O   1.94521897189035     -1.52878817967926      1.39096848601769
  N   -1.06727744973524     -0.22646263484816      1.03564596880059
  H   -1.65433733271213     -0.99058341985511      0.72308874473378
  H   -1.62492525025650      0.43950937561041      1.55111805939466
  N   -1.23609829563837      0.28294180673710     -1.30635665842952
  H   -2.10194218960498      0.78675887010157     -1.15276298777582
  H   -0.76910015828139      0.70953238361468     -2.09850285082960
