14
Coordinates from ORCA-job run
  C   0.73355626420673     -0.64023448318031      0.18109953215907
  C   -0.56490833698157     -0.07582858600226     -0.41313902046504
  Br  1.36941056953010     -2.21336617210125     -0.72249470450573
  H   -0.41790283184663      0.00100590369653     -1.49320365740848
  H   0.62998979073346     -0.87601013479842      1.24068543332889
  N   1.78553775187900      0.42683001018907      0.10872009991406
  O   2.24288467184600      0.81961474226047      1.17976396510140
  O   2.05942674004288      0.86778568448299     -1.00194086176315
  N   -0.87526193105737      1.25919791431261      0.07425379164957
  H   -0.25041391169028      1.95853257868954     -0.30734510587851
  H   -0.84643944628293      1.30874094772126      1.08655019879749
  N   -1.60763004856135     -1.04000725875340     -0.15484721536171
  H   -1.80962626106526     -1.07090625273067      0.83927653539307
  H   -2.45162302075278     -0.72535489378617     -0.61837899096093
