14
Coordinates from ORCA-job run
  C   0.87351761253067     -0.62012661391702     -0.35260042647261
  C   -0.59703704347458     -0.18084367680732     -0.40114080583049
  Br  1.77438414015260     -0.30779815188748     -2.02525787300728
  H   -0.98863473782030     -0.56796191818323     -1.35206967708865
  H   0.93613944174539     -1.68016028052830     -0.11862994159350
  N   1.55812953310738      0.10954855566554      0.78110829639990
  O   2.27378300786724      1.06967021494787      0.55007381772019
  O   1.26361156201320     -0.33289591176350      1.88951082506159
  N   -0.64093454886008      1.27096659413955     -0.28378938940523
  H   -0.11845783688300      1.71662200183821     -1.03103402803003
  H   -1.60191165605552      1.58431660514580     -0.34536947738740
  N   -1.32346310426573     -0.85590788562412      0.64820191749537
  H   -2.31996614508915     -0.76215910917232      0.49647810612970
  H   -1.08916022496814     -0.44527042385370      1.54451865600845
