14
Coordinates from ORCA-job run
  C   0.84000479404097     -0.65105926523024     -0.34178062069200
  C   -0.56712686896732     -0.06169555159945     -0.48505184612042
  Br  1.95860549105642     -0.32849412281007     -1.86526498504219
  H   -1.02293186280763     -0.59762465005389     -1.33090507905086
  H   0.79580221880375     -1.72862625539865     -0.19267610865241
  N   1.49039650473093     -0.12042068561451      0.90660125454702
  O   1.69116703597036      1.08576692693522      0.97629798429467
  O   1.74007057535613     -0.95017457852324      1.77531143087446
  N   -0.54491088035575      1.32843879213451     -0.83598081217091
  H   -1.46510663713983      1.64240777640602     -1.11243831211066
  H   -0.20810467576761      1.88597094769013     -0.06171132140869
  N   -1.22106024622757     -0.31874907709670      0.80061077432043
  H   -2.13153010122832      0.12426939341767      0.80797605710955
  H   -1.35527534746453     -1.31200965025678      0.96001158410201
