14
Coordinates from ORCA-job run
  C   0.83249901325628     -0.46658437606069     -0.45625549193969
  C   -0.67283882864395     -0.11267088330739     -0.39663296028499
  Br  1.69178594354821      0.29282573899041     -2.00125100694733
  H   -1.11029666712993     -0.58418534540753     -1.29052186920415
  H   0.99090508862472     -1.54346686773890     -0.49504866660854
  N   1.51052903249430     -0.01146799256997      0.80039943169005
  O   1.57700638229229      1.19529968027311      1.00624634801652
  O   1.90083652633459     -0.90018081558601      1.55076536000846
  N   -1.02755408727999      1.27941015079644     -0.43101994596868
  H   -0.81314675003150      1.68587795531483     -1.33173186965007
  H   -0.51184640432948      1.78168841095006      0.28205175852849
  N   -1.14593425648765     -0.63861755645562      0.86955378488616
  H   -1.11950984547533     -1.65065846726472      0.89350754366025
  H   -2.10043514717256     -0.32826963193402      1.00093758381353
