14
Coordinates from ORCA-job run
  C   0.73681356280820     -0.63115737496193      0.07776542461253
  C   -0.60503264925583      0.11089526033309      0.22499469901974
  Br  1.13073666540309     -1.11024716979454     -1.74600924740333
  H   -0.70897350000104      0.27559508102935      1.30230400328323
  H   0.74193714034769     -1.54949898866769      0.66314072597525
  N   1.81929474182010      0.23792250865588      0.67716299763553
  O   2.63533207997780      0.79669034445316     -0.03525733790833
  O   1.72815345021070      0.32204387544550      1.89995624333024
  N   -1.76382113609905     -0.64808795529975     -0.20424647917246
  H   -1.65852517402274     -0.95247626125709     -1.16524916259265
  H   -1.91110545419140     -1.46451151220518      0.37828641864066
  N   -0.47365244232860      1.39933473613452     -0.40633911768017
  H   -0.34227008685581      1.29400058303995     -1.40616359466248
  H   -1.32988719781311      1.91949687309473     -0.25934557307776
