14
Coordinates from ORCA-job run
  C   0.63909987109543     -0.60211840029900      0.22050143981242
  C   -0.61041348656409      0.03276409905318     -0.43604879669872
  Br  1.14201631056918     -2.28554081945506     -0.58002877774751
  H   -0.39115523248986      0.12102999496682     -1.50386011538076
  H   0.49056124184223     -0.77041197621881      1.28695056710505
  N   1.77942417482772      0.36131023124401      0.10245725690235
  O   2.13705885595028      0.66925777652600     -1.02935859195062
  O   2.20705495104216      0.83202613940631      1.15506070853208
  N   -0.83968663692892      1.35831095963658      0.09239737305934
  H   -0.25665690714203      2.04931938446706     -0.35727804984140
  H   -0.69673297843135      1.40683436619535      1.09402344675624
  N   -1.80433348260604     -0.76386139534442     -0.26399774764340
  H   -1.63339354632239     -1.74185899696318     -0.45947512345159
  H   -2.16284313484232     -0.66606136321485      0.67765641054653
