14
Coordinates from ORCA-job run
  C   0.84914211054286     -0.65934516331408     -0.34114521419825
  C   -0.60351736982316     -0.16559198187834     -0.39831527743471
  Br  1.76113723156719     -0.41021466337694     -2.01824038697727
  H   -1.01017643044019     -0.55478399141094     -1.34207154002426
  H   0.87293906013191     -1.71663486056048     -0.08839410478566
  N   1.56088135522759      0.06416720089590      0.78019570079734
  O   2.31419237161114      0.99072718602890      0.53314073076898
  O   1.24809146066335     -0.34627995935974      1.89583471770751
  N   -0.59206870867011      1.28880271750586     -0.30734221468195
  H   -0.05347475320765      1.70113319387571     -1.06218873296872
  H   -1.54050602581587      1.63721408234394     -0.37418476957288
  N   -1.35567705338635     -0.79324663881011      0.66237607399716
  H   -2.34762895881359     -0.66181211378085      0.50881397596175
  H   -1.10433428958711     -0.37713500815883      1.55152104141096
