14
Coordinates from ORCA-job run
  C   0.83643324335897     -0.45224439529743     -0.34381908453720
  C   -0.40637096489469      0.39824607076841     -0.10007699890007
  Br  1.92971206556428      0.21167453535748     -1.79316549450650
  H   -0.06313305181984      1.41201247297081      0.14089429765800
  H   0.57504184899765     -1.48531720874225     -0.56405342670511
  N   1.65960444793725     -0.46960839270912      0.90922969600951
  O   1.97715688867779      0.61419568188570      1.38246281741294
  O   1.93227970267884     -1.57521426909365      1.36356314337760
  N   -1.04086072153542     -0.15186697287002      1.07593572827796
  H   -1.54468337123106      0.55296817767437      1.59509777044850
  H   -1.67656077816497     -0.89187531506470      0.80310346478026
  N   -1.26726758400761      0.30295847339608     -1.27196632207384
  H   -0.80841068993992      0.68349429475676     -2.09182681767681
  H   -2.10294103562126      0.85157684696757     -1.10537877356524
