14
Coordinates from ORCA-job run
  C   0.80569326159156     -0.63427607016798     -0.34741084448242
  C   -0.60866230553420     -0.07299889033929     -0.57933222068847
  Br  2.06328857970876     -0.24061776055238     -1.74763847975149
  H   -1.01031315808624     -0.66368260736295     -1.41084454944101
  H   0.76856125759418     -1.71655590672556     -0.24017430835184
  N   1.34035147653886     -0.14450110501317      0.96820531160419
  O   1.44767480085968      1.06915965867657      1.12497285419778
  O   1.57432679995029     -1.00147482449404      1.81666889536203
  N   -0.58236634958865      1.30581889575848     -0.98485809784687
  H   -0.08420747922703      1.87027118772195     -0.30847954569738
  H   -1.53726179716024      1.63544203776708     -1.04857781285505
  N   -1.47640803904924     -0.31721756331052      0.56792166051409
  H   -1.52992969125299     -1.29971870609474      0.81227333127321
  H   -1.17074735634472      0.20935165413655      1.37827380616321
