14
Coordinates from ORCA-job run
  C   0.68808047251742     -0.64161916012421      0.05664334589615
  C   -0.71012849931501      0.03555803136629      0.20717850868131
  Br  1.15910134085059     -0.96521641837344     -1.77794519693023
  H   -0.84503649538910      0.13040633583670      1.29102845978534
  H   0.73291935113889     -1.59308407133665      0.58585315438448
  N   1.68859526768179      0.24644297389605      0.74204332636980
  O   1.66188116584249      0.15123171263186      1.96887840367076
  O   2.35224896587643      1.04200421012181      0.09067940993404
  N   -1.78082624477385     -0.77914825400284     -0.31904469836110
  H   -1.85111191784923     -0.65654272692383     -1.32086807803255
  H   -1.64446130687850     -1.76231320318352     -0.11807573109881
  N   -0.77219409539306      1.34989511120725     -0.37280726754041
  H   -0.37805418934772      2.05265746971795      0.23518315060701
  H   -0.30201381496113      1.38872798916659     -1.26874678736580
