14
Coordinates from ORCA-job run
  C   0.62447433817011     -0.51893889789951      0.48354043828636
  C   -0.46118801637751      0.01724683592180     -0.45908588799885
  Br  0.93040359197856     -2.40987316790798      0.25751030347706
  H   -0.10745788921450     -0.16209042016586     -1.47746642368282
  H   0.38547553075216     -0.34667389748482      1.53330912626869
  N   1.90530746510197      0.22068056093388      0.22331291385753
  O   2.37046789255677      0.84633539883390      1.17059801803506
  O   2.35878128395050      0.16317048550481     -0.91179374352863
  N   -0.48304095085238      1.44716451658821     -0.23785581273213
  H   -0.89806824707399      1.65788018640075      0.66387485473273
  H   -1.06493580467052      1.87814722973064     -0.94602251818209
  N   -1.75853670026507     -0.61470560262631     -0.31983307188973
  H   -2.06885539411301     -0.59757276447189      0.64569531938892
  H   -1.73282709994309     -1.57977046335764     -0.62578351603211
