14
Coordinates from ORCA-job run
  C   0.79473330935936     -0.60622974156815     -0.34552288838382
  C   -0.66146389506182     -0.08828911278936     -0.42128893331543
  Br  1.80820829846459     -0.14178304583714     -1.91382102529444
  H   -1.10578936335133     -0.61682507583716     -1.27915011505246
  H   0.83100588663774     -1.69025308783914     -0.24629894761600
  N   1.45959509262480     -0.07364226674441      0.88796529032577
  O   1.71311750645511     -0.89939119072940      1.75913433947537
  O   1.65106760147795      1.13553094480686      0.95394893045988
  N   -0.85349164723668      1.31875055547917     -0.64070106506362
  H   -0.55237155733149      1.58539508616527     -1.56841430715399
  H   -0.31803282148941      1.84745428355748      0.03782560842045
  N   -1.25173592029338     -0.40028064733944      0.86634511407041
  H   -1.34566029911725     -1.39842013138582      1.00891139776525
  H   -2.16818219113817      0.02798343006123      0.90306660136263
