14
Coordinates from ORCA-job run
  C   0.80809979562242     -0.67213942947868     -0.29306886703670
  C   -0.60234397235786     -0.06392483758071     -0.51750162226678
  Br  1.85252540226667     -0.71890133171271     -1.89933152602547
  H   -0.92694583263628     -0.44514831039931     -1.48916382532800
  H   0.73582704061601     -1.68947015831405      0.08954095751522
  N   1.49915288917320      0.11484575989434      0.79634693199402
  O   2.46384443569207      0.81834920821208      0.55050868577650
  O   0.94575583085788      0.00433757780999      1.89441917714925
  N   -0.45592600437679      1.36848785467787     -0.63506730674874
  H   -0.31607556325856      1.77937083641581      0.28263588114385
  H   -1.32436762282359      1.74871456077380     -0.99058898258978
  N   -1.60013867980361     -0.47222319928954      0.45524579630395
  H   -1.82148505479001     -1.45683203024822      0.35919716216547
  H   -1.25692266418155     -0.31546650076066      1.39582753794720
