14
Coordinates from ORCA-job run
  C   0.81927629644730     -0.49323459056884     -0.32831457108431
  C   -0.39316551095640      0.40748271923652     -0.11431946771917
  Br  1.92888749559864      0.07649401139713     -1.80516630189574
  H   -0.01530904539916      1.41767458400097      0.08643261701803
  H   0.52237166438590     -1.52466764502699     -0.50745302204729
  N   1.64626544666803     -0.48994901106575      0.92229395865835
  O   2.00303889224466      0.60001589669759      1.35152357675360
  O   1.88175650054173     -1.58550580162867      1.41979535803966
  N   -1.04102497321487     -0.07567703233374      1.08373391371328
  H   -1.51958110025467      0.66513335529387      1.57612649860411
  H   -1.70234144828800     -0.80356269302896      0.84060843717122
  N   -1.26150841599798      0.29654456569589     -1.27955796348209
  H   -0.79235764881842      0.62919298304181     -2.11436298631619
  H   -2.07630815295675      0.88105865828917     -1.13234004741346
