14
Coordinates from ORCA-job run
  C   0.71150369851730     -0.57427200939211      0.24078121018230
  C   -0.50534219365127      0.11202560324630     -0.39419456065139
  Br  1.14644517476115     -2.24680941723683     -0.61556203973556
  H   -0.24450347891220      0.30860811081458     -1.43711779497696
  H   0.56782010766417     -0.77501668929186      1.30280136602549
  N   1.89372539456213      0.34726572371439      0.14886423816458
  O   2.39971164231252      0.68636843570679      1.21373914877799
  O   2.23199106475860      0.70531359826997     -0.97135249695393
  N   -0.62155039818752      1.38384127662961      0.28593953022021
  H   -0.95806889483027      1.24746784549352      1.23351424220134
  H   -1.30594932287808      1.95185375759421     -0.19859405261345
  N   -1.72567795259462     -0.67091215682925     -0.37991474172063
  H   -1.65155194219332     -1.47941210017530     -0.98527610664451
  H   -1.93655289932859     -0.99632197854401      0.55737205772452
