14
Coordinates from ORCA-job run
  C   0.77838339706721     -0.67484297822828     -0.01042831391466
  C   -0.53273068655691      0.04088701102875     -0.32705223424257
  Br  1.30846377050115     -1.89226749481568     -1.40381596689609
  H   -0.47523305797634      0.42068254227991     -1.35357368344978
  H   0.70753231121430     -1.22698378372732      0.92512465348365
  N   1.89192578206462      0.31327412191080      0.17833219454700
  O   2.69722219651802      0.07946674079678      1.07236019167056
  O   1.91651444561241      1.27566168293473     -0.58662684818818
  N   -0.69323010225208      1.08557984308164      0.68534637736103
  H   -1.66023508096600      1.38652693595141      0.68978608939292
  H   -0.12134703482105      1.89141462059285      0.45900309557307
  N   -1.58191985695881     -0.94551564103950     -0.26251961273299
  H   -2.40187147756991     -0.64173276485254     -0.76916069448202
  H   -1.83347460587660     -1.11215083591355      0.70522475187807
