14
Coordinates from ORCA-job run
  C   0.76010107700734     -0.62794978033557     -0.37539796528488
  C   -0.69236228904984     -0.10205736924318     -0.51149767759489
  Br  1.86703694863146     -0.09452235654501     -1.85251286927600
  H   -1.05709548632458     -0.55480024356637     -1.44265939747783
  H   0.77829348528993     -1.71546334966424     -0.32197518288435
  N   1.34928352201953     -0.15655946259106      0.92027490237394
  O   1.47678393421855     -1.01153966041374      1.79549080345098
  O   1.58657255784496      1.04102273541863      1.04317770902565
  N   -0.85094446021763      1.32283688546180     -0.64219526148334
  H   -0.22711029478892      1.81759086748346     -0.01570541108056
  H   -0.66279015564781      1.62421236711648     -1.58817463532068
  N   -1.46636632806318     -0.57323242332708      0.62297540027348
  H   -1.88654287543549      0.20683274024112      1.10411952348894
  H   -0.97385963548431     -1.17537095003525      1.26608006178955
