14
Coordinates from ORCA-job run
  C   0.76981833312069     -0.61931839198449      0.07706327458488
  C   -0.58011964820831     -0.05832411772760     -0.39362503360991
  Br  1.42915152379698     -2.05169191081815     -1.02279133146564
  H   -0.49002677461561      0.14125003158761     -1.46418871676099
  H   0.72814943466468     -0.97472751334284      1.10708280874886
  N   1.76851515356646      0.49955920501628      0.07789598815508
  O   1.96951290564692      1.07037818458511     -0.98825605623337
  O   2.25774722229168      0.79726959132123      1.16530377610402
  N   -0.92456239901027      1.19945871269330      0.25053264414764
  H   -0.34942347933306      1.96548980052576     -0.07730090736718
  H   -0.85100863390397      1.14046562198481      1.26002919732427
  N   -1.56516432872324     -1.09495935380653     -0.19671780520676
  H   -1.72100384670486     -1.23742309943316      0.79599516873602
  H   -2.44258546258809     -0.77742676060132     -0.59102300715694
