14
Coordinates from ORCA-job run
  C   0.74478810221821     -0.64611803141440     -0.33028565110895
  C   -0.70917273296636     -0.08508001347061     -0.49064429155230
  Br  1.76228083142512     -0.48421168635475     -1.95578448146116
  H   -1.09312338961165     -0.58427008036863     -1.38700142392253
  H   0.73003735974935     -1.69728640202214     -0.04833067750902
  N   1.40848784005218      0.08198057009084      0.79848219028859
  O   2.04123334598783      1.10462445167347      0.57182358605381
  O   1.15051685638992     -0.37680756511871      1.91461016396644
  N   -0.75995162618662      1.34229369546758     -0.69108976784003
  H   -0.77159920558706      1.83100855518300      0.19393232938063
  H   0.00927721254936      1.67986062125898     -1.25453685009256
  N   -1.56093990267108     -0.44242350465815      0.61861828566504
  H   -1.86164757762694     -1.40484843138463      0.55078718931199
  H   -1.09018711372228     -0.31972217888185      1.50741939882005
