14
Coordinates from ORCA-job run
  C   0.73893768065677     -0.63354848996731      0.03134279257411
  C   -0.59851772871625      0.10078762097292      0.24727882791037
  Br  1.07925065420110     -1.03779228601625     -1.82095961697103
  H   -0.67116667125884      0.22137021861891      1.33293134265517
  H   0.76011102643358     -1.57484876376525      0.57866364416161
  N   1.83788488501350      0.21159841348783      0.63406638093739
  O   1.78204460619634      0.24543454752748      1.86141190117067
  O   2.63207861993820      0.80103304707634     -0.07828921192204
  N   -1.76933384355643     -0.64100872714612     -0.17929594158244
  H   -1.89669915732027     -1.48415940234438      0.36894312575011
  H   -1.69367930699915     -0.90024947546178     -1.15621626421860
  N   -0.48508516921552      1.41348198225824     -0.33501418422175
  H   -1.33626037423217      1.92730215095691     -0.14357186531266
  H   -0.37956522114085      1.34959916380246     -1.34129093093092
