14
Coordinates from ORCA-job run
  C   0.74541318389878     -0.56343917835382      0.24313890975094
  C   -0.57810649894164     -0.03827409413089     -0.33027691310514
  Br  1.31891427425476     -2.20749995619907     -0.59283467197907
  H   -0.45262956823601      0.04727456439078     -1.41805034979068
  H   0.66498028230795     -0.73612761991330      1.31460730343629
  N   1.79843442257909      0.48125967192692      0.04665159933914
  O   2.02006969491948      0.84534728969706     -1.10372174495563
  O   2.30647041957521      0.94332089102047      1.06599335384164
  N   -0.92108655053709      1.27051052904714      0.17188420802190
  H   -0.92053273072792      1.28346469368933      1.18483145053021
  H   -0.31120924520619      1.99224450886174     -0.18726993775935
  N   -1.62220658477901     -0.94407746353653      0.10674520637154
  H   -1.53799642791999     -1.84298262496255     -0.35123681004144
  H   -2.51051467118744     -0.53102121153729     -0.15046160366033
