14
Coordinates from ORCA-job run
  C   0.60551479612419     -0.54764302675227      0.39049686689929
  C   -0.57817133341165     -0.05619149575805     -0.47691442884366
  Br  1.11348932961091     -2.37175015529938      0.01242041458577
  H   -0.28643878042591     -0.20812428652473     -1.51993139109829
  H   0.37983380637734     -0.47659067781580      1.45429589248013
  N   1.77889419059985      0.35115860087424      0.14954983470872
  O   2.21851371327347      0.40327649302876     -0.99397648978030
  O   2.15089596064934      1.03027135001502      1.10495538257985
  N   -0.80570880926312      1.35598041265056     -0.27057426492601
  H   -0.16733029566083      1.92189979423728     -0.81099252332638
  H   -0.73714818514249      1.62109181316643      0.70475222730027
  N   -1.80284566680546     -0.78018113794229     -0.21857094611926
  H   -1.64558831054552     -1.77863610950399     -0.17221108555139
  H   -2.22491041538013     -0.46456157437578      0.64570051109125
