14
Coordinates from ORCA-job run
  C   0.70219069012501     -0.59654991232921      0.17505654552199
  C   -0.56990046042184      0.07969088847484     -0.34722524011014
  Br  1.18081623868724     -2.15059362086398     -0.86975860295508
  H   -0.43963427233586      0.26832782178465     -1.41937001059185
  H   0.58512054296894     -0.90256742970958      1.21336787934405
  N   1.87074671595032      0.34612248899473      0.15102052510696
  O   2.66632202971135      0.26659977403557      1.08028540834214
  O   1.93887231316783      1.12158080980982     -0.80052926817319
  N   -0.74543578136929      1.27467421951084      0.46180553712095
  H   -0.15663878181842      2.02361849076980      0.11908542540082
  H   -1.71213123311612      1.56271910100960      0.36735184526724
  N   -1.75398682311104     -0.72855845757850     -0.17266437485771
  H   -1.72507820926843     -1.55373350382582     -0.75640526058520
  H   -1.84126296916967     -1.01233067008276      0.79697959116903
