14
Coordinates from ORCA-job run
  C   0.77346442956342     -0.65461839006863      0.06237140400848
  C   -0.58948754752161      0.03631906346545      0.12763650456828
  Br  1.37289907119735     -1.01763090082144     -1.73321253620960
  H   -0.70729596273449      0.29678994732601      1.19426442452943
  H   0.71538988444738     -1.60403488828775      0.58677828301501
  N   1.83231025331789      0.14086525106523      0.77355896770469
  O   1.95447901273666      1.32805079579901      0.48061521352374
  O   2.48878553620408     -0.46061987162951      1.61876589479600
  N   -1.58489029517792     -0.97455439058212     -0.16644187091229
  H   -2.48047170789147     -0.70594062276969      0.22099170022529
  H   -1.68354496515107     -1.02982986180790     -1.17477066779034
  N   -0.67343467585881      1.17004406698891     -0.77091927653512
  H   0.11063961275469      1.79660373589794     -0.63387297384265
  H   -1.52984264588609      1.67855606542448     -0.58676506708093
