14
Coordinates from ORCA-job run
  C   0.75708044289832     -0.65258100297766      0.15201313257569
  C   -0.50190718159776      0.09976711229862     -0.26819792885721
  Br  1.10011660356469     -2.21274755526241     -0.93658945253821
  H   -0.36070746238217      0.41026335354548     -1.31091086009759
  H   0.70213352965239     -0.97131796921225      1.19101239560117
  N   1.92927769581799      0.27530440746560      0.04359455397608
  O   2.10802298700149      0.82343391654173     -1.03680681439536
  O   2.60310284074764      0.41916334179226      1.05772264497223
  N   -0.54730500133727      1.28843737104249      0.55245080477476
  H   -1.00656141986383      2.05353688386534      0.07913285949654
  H   -1.03436634457895      1.08355607108306      1.41681695892851
  N   -1.65382722185841     -0.76174207878597     -0.03423135880166
  H   -1.60404246270706     -1.59726977144781     -0.60611485257937
  H   -2.49301700535707     -0.25880407994847     -0.29889208305558
