14
Coordinates from ORCA-job run
  C   0.73162945587085     -0.64166310098826      0.09372832419057
  C   -0.63379461206295      0.08422864439142      0.12044416744592
  Br  1.27697034214934     -1.20027804430984     -1.65542433127403
  H   -0.77310103768137      0.34044089674136      1.18477742952476
  H   0.69716714947647     -1.52122929861722      0.73385603931082
  N   1.75011412030777      0.26771913247559      0.73727162468003
  O   2.39115277900157      1.04757374348894      0.04345139449949
  O   1.77200980736210      0.19859999683863      1.96525950318495
  N   -1.74886334387833     -0.73897469187880     -0.26856351612717
  H   -1.62102622928214     -1.05718042672603     -1.22200707813104
  H   -1.86603734801947     -1.53357054695790      0.34693354770626
  N   -0.61038725173526      1.20922228605540     -0.78037028821485
  H   0.13601612360127      1.86008547270791     -0.57459429765538
  H   -1.50084995510985      1.68602593677881     -0.72476251914032
