14
Coordinates from ORCA-job run
  C   0.76768761994929     -0.59595726436986     -0.12286740492129
  C   -0.61712119441497      0.04338146165599      0.15463980645861
  Br  1.30497851544271     -0.50236018518544     -1.96173351423685
  H   -0.66439122633911      0.12385749007169      1.25460243059171
  H   0.79301584781447     -1.64182554970392      0.17889002824677
  N   1.77270485109980      0.08937923239729      0.75530291875030
  O   2.06487283128416      1.25238984502203      0.49668051835040
  O   2.15834916713963     -0.55512797268750      1.72894453931693
  N   -1.61310062695739     -0.83483148006357     -0.42190132708215
  H   -2.50956241231061     -0.36789211148922     -0.35597290142808
  H   -1.66806657435065     -1.71103217982933      0.08279812750225
  N   -0.84953415719089      1.35659466721679     -0.37869526360383
  H   -0.17281382568010      2.01902831101429     -0.02197425239745
  H   -0.76701881548635      1.32439573595076     -1.38871370554732
