14
Coordinates from ORCA-job run
  C   0.70016297645418     -0.63022208998793     -0.00566475586179
  C   -0.70237708809718      0.01087117679782      0.23482712742422
  Br  1.10597395073193     -0.84153874540170     -1.87210659556295
  H   -0.79738371537034      0.04255341607669      1.32652499671473
  H   0.78026340670765     -1.60917100182746      0.46602656788666
  N   1.71100507646182      0.23657030551900      0.69117025039668
  O   2.33725624429503      1.07881270108359      0.06192666793362
  O   1.73226421355133      0.07251013808661      1.91081067043044
  N   -1.77891538647061     -0.79299535647861     -0.29634533385848
  H   -1.88629965987641     -0.61887740415538     -1.28725730395620
  H   -1.61918524367462     -1.78288283002220     -0.15373030768466
  N   -0.80849288036454      1.35458988662423     -0.26696042995042
  H   -0.37213131564083      1.45227166621634     -1.17550424082983
  H   -0.40214057870741      2.02850813746902      0.36528268691798
