17

C	0.0	0.0	0.0
C	-0.463321	-0.058017	-1.496295
Br	1.969148	0.0	0.0
H	0.432805	0.080953	-2.112673
C	-0.396521	1.28018	0.741203
H	-1.490712	1.260625	0.743829
H	0.018502	1.260328	1.751307
H	-0.000288	2.148811	0.210417
C	-0.407358	-1.181471	0.757546
N	-0.563355	-2.160621	1.388994
C	-1.332983	1.069016	-1.844517
N	-1.84896	2.008517	-2.32488
C	-1.121893	-1.382559	-1.883717
H	-0.445073	-2.21746	-1.683475
H	-1.360059	-1.37203	-2.95054
H	-2.029658	-1.444003	-1.281957
F	-2.586999	0.0	0.0
