17

C	0.0	0.0	0.0
C	-0.465223	-0.015809	-1.497221
Br	1.968878	0.0	0.0
H	0.430896	0.1467	-2.109871
C	-0.399698	1.258383	0.773976
H	-1.494312	1.231899	0.775561
H	-0.00823	2.142269	0.26494
H	0.016885	1.215478	1.783299
C	-0.406782	-1.20158	0.724662
N	-0.573072	-2.196343	1.328773
C	-1.342731	1.116236	-1.815023
N	-1.869495	2.059901	-2.277709
C	-1.115621	-1.332941	-1.919448
H	-2.017659	-1.424843	-1.314551
H	-0.429514	-2.168656	-1.754788
H	-1.36364	-1.290596	-2.98442
F	-2.588563	0.0	0.0
