17

C	0.0	0.0	0.0
C	-0.627876	-0.23016	-1.378937
Br	1.965456	0.0	0.0
H	-1.728148	-0.29771	-1.035373
C	-0.482123	1.305542	0.626607
H	-0.135781	1.370802	1.660348
H	-1.577961	1.230657	0.57264
H	-0.089215	2.159152	0.071378
C	-0.357408	-1.124792	0.873796
N	-0.568032	-2.046247	1.572496
C	-0.167619	-1.469111	-1.981698
N	0.189366	-2.454241	-2.517224
C	-0.46739	0.948557	-2.334359
H	-1.071203	1.784581	-1.977905
H	-0.836919	0.670229	-3.324477
H	0.576158	1.263439	-2.432804
F	-2.854146	0.0	0.0
