13
Coordinates from ORCA-job run
  C   0.98595121876883     -0.06400135757316      0.12907825391097
  C   -0.31699978289431      0.16088629352596     -0.24821351649973
  C   1.63914314033503     -1.30335947051144     -0.12550443814017
  N   2.17187861765908     -2.32969121633094     -0.34277557099735
  C   1.70501573628733      0.97604145297627      0.78736508816290
  N   2.21621907401481      1.89297804782262      1.32029674836124
  C   -1.13868764982559     -0.87757377777223     -0.94703368691191
  H   -2.00949749928692     -1.13112523550370     -0.33670546354918
  H   -1.49797180848058     -0.48961425814914     -1.90487824790761
  H   -0.56675317297969     -1.78418889103822     -1.13439824251192
  N   -0.95569638696325      1.31587999436042      0.05655193609031
  H   -1.80908022270977      1.53502182946128     -0.42767765952542
  H   -0.42352126392497      2.09974658873229      0.40389479951786
