13
Coordinates from ORCA-job run
  C   1.02515040748291     -0.04744538446487     -0.01186423121829
  C   -0.31456791099708      0.16745947485519     -0.23465853282503
  C   1.80341206797612      0.99009314538599      0.57962667644520
  N   2.36072182015862      1.90177508311262      1.07393538965150
  C   1.65494810871718     -1.27966740822467     -0.34744157980939
  N   2.16576922701594     -2.30261568462356     -0.62491846760912
  C   -1.20152030062010     -0.87229983971330     -0.84615057404991
  H   -2.03459035442673     -1.09691854863637     -0.17338074002334
  H   -0.66115392917152     -1.79534897876801     -1.04631842031977
  H   -1.61697053889505     -0.49719467935801     -1.78518585294042
  N   -0.89439161487339      1.36428507282939      0.02297083808818
  H   -1.89754281275703      1.41212116814406      0.07041633622996
  H   -0.38726416960987      2.05575657946157      0.55496915838042
