13
Coordinates from ORCA-job run
  C   1.02168574077196     -0.02616519618817      0.00687981319932
  C   -0.31065476956951      0.16595745122870     -0.27370499454131
  C   1.62610858490146     -1.31382248056878     -0.05859222534087
  N   2.11669005606822     -2.38191725662811     -0.11256732888337
  C   1.81793147764797      1.09451798349036      0.38379876972800
  N   2.39122199737057      2.07634745017598      0.68946659957615
  C   -1.21585465967122     -0.95917304090553     -0.66910058187358
  H   -1.61539666521367     -0.77737209655166     -1.67029055389457
  H   -0.69487407944060     -1.91450131947533     -0.66781175473110
  H   -2.05915116982735     -1.02290020414721      0.02504532713947
  N   -0.86477670684514      1.40201224603863     -0.27608180251947
  H   -0.34601197812827      2.17756783670196      0.10829747656218
  H   -1.86691782806441      1.48044862682916     -0.25433874442086
