13
Coordinates from ORCA-job run
  C   0.99080546794938     -0.07334472872212      0.10967666831389
  C   -0.30632958643648      0.17597134196364     -0.27166164453924
  C   1.62801435886566     -1.31817502646944     -0.15813754560137
  N   2.14643107045918     -2.35096572085544     -0.37956823105091
  C   1.71489853178401      0.93925784543306      0.80418953446552
  N   2.23041626967978      1.83018335408661      1.37578163478764
  C   -1.13455207910530     -0.83655307019683     -1.00019790438324
  H   -1.40727430740866     -0.44935283039613     -1.98558081293328
  H   -0.60081661036763     -1.77611080808636     -1.12846807627861
  H   -2.05774337599630     -1.03445549661834     -0.44728825415342
  N   -0.88556693285810      1.38485298581756     -0.07461812292164
  H   -0.43156594528807      2.05695137758120      0.52602106701667
  H   -1.88671686127746      1.45174077646259     -0.14014831272202
