13
Coordinates from ORCA-job run
  C   0.99520817349529     -0.05854181105088      0.10217180892354
  C   -0.30762231976819      0.17148893573064     -0.27265936921702
  C   1.55440429546618     -1.36806007335845      0.11358178471241
  N   2.00857040669528     -2.45347658771717      0.11806988141072
  C   1.81109010625919      1.04665261313925      0.48272831981907
  N   2.40650118392181      2.01924370036083      0.77536266019655
  C   -1.22729650015405     -0.93321262057555     -0.69132543981524
  H   -1.60746143329913     -0.74196498866278     -1.69934548657064
  H   -0.72461749072608     -1.89826874926492     -0.68940148067421
  H   -2.08204268832615     -0.98019430093770     -0.01146812803465
  N   -0.85529192358355      1.40924504695047     -0.21476204337010
  H   -1.71466345054247      1.57814730072748     -0.70887302592510
  H   -0.25677835943811      2.20894153465879     -0.07107948145532
