13
Coordinates from ORCA-job run
  C   1.02893333220540     -0.02823028517151     -0.01467620235006
  C   -0.31117917028757      0.16554509968268     -0.25379137839029
  C   1.80190319125742      1.05681525951992      0.49267265658905
  N   2.34660500872760      2.01136119893970      0.91482368135980
  C   1.65813844260228     -1.28489721304130     -0.24504373003442
  N   2.16088749272416     -2.33020651756800     -0.44114302142327
  C   -1.19932568181746     -0.92269351714684     -0.77194377400547
  H   -1.99276938296692     -1.13259051285002     -0.04819520626025
  H   -1.66794179789667     -0.60284289939698     -1.70637298099808
  H   -0.64647732080088     -1.84235124527601     -0.95334011191558
  N   -0.89371875083894      1.37846086929553     -0.09154353588136
  H   -0.38804869238590      2.10796977476664      0.38890381835807
  H   -1.89700667052253      1.42465998824620     -0.04035021504815
