13
Coordinates from ORCA-job run
  C   0.98816615113413     -0.03988494253061      0.12543252346076
  C   -0.29624097042436      0.16995037753753     -0.31861950018797
  C   1.55230374084817     -1.34467355826839      0.20785154901959
  N   2.01032661569454     -2.42634249308221      0.27608417191219
  C   1.77369659582091      1.08079843073751      0.52422823302645
  N   2.34113260239194      2.06481108888175      0.83374563743797
  C   -1.18778809607958     -0.95318762697780     -0.74925381886191
  H   -0.70299934567185     -1.92007892061235     -0.63020211250975
  H   -2.10667366147216     -0.95037341040807     -0.15537703669565
  H   -1.46349394519035     -0.82480188524234     -1.79924202041429
  N   -0.80437055488947      1.41761351117029     -0.45773221083183
  H   -1.79858596941613      1.52487532153833     -0.56141672043767
  H   -0.30647316274578      2.20229410725636     -0.06449869491786
