13
Coordinates from ORCA-job run
  C   1.01529558191648     -0.04424916320439      0.03471418270917
  C   -0.32270789651745      0.15401098169021     -0.21357541202561
  C   1.78746292271810      1.03104605144430      0.56324672141219
  N   2.34216390405950      1.97719094686709      0.99122743727973
  C   1.65371231447674     -1.28734500260670     -0.23891590718042
  N   2.17260515600845     -2.31806382213431     -0.46806768266891
  C   -1.19711611551194     -0.91631316210222     -0.78967058056126
  H   -1.53706313822056     -0.62245772467727     -1.78769022116353
  H   -0.66954948333545     -1.86463628481127     -0.87373073371674
  H   -2.07782619556837     -1.05757347989506     -0.15788381773778
  N   -0.93787769032736      1.31854566737816      0.10096328580620
  H   -1.84616471470737      1.50686379081822     -0.28736495219188
  H   -0.38193464499075      2.12098120123325      0.35674768003885
