13
Coordinates from ORCA-job run
  C   0.99469585963995     -0.04010817418935      0.10506964108710
  C   -0.31746037276903      0.15897706724344     -0.25510660821256
  C   1.73668985445037      1.05057111943328      0.64550826073553
  N   2.26699997524553      2.00800821049201      1.07923189031655
  C   1.63504511238349     -1.30203795589134     -0.05208111503341
  N   2.15849389262959     -2.34701174286790     -0.18857376579521
  C   -1.16371033394513     -0.93306181101477     -0.83188384055231
  H   -0.60326134802305     -1.85882797798052     -0.94509947161320
  H   -2.02169454207505     -1.11871717803154     -0.18035486223430
  H   -1.54273151719664     -0.63463077105161     -1.81381770402736
  N   -0.93966285595801      1.34285692916876     -0.04301950270746
  H   -1.81047996631874      1.52273116093592     -0.51230535613084
  H   -0.39492375806330      2.15025112375363      0.22043243416745
