13
Coordinates from ORCA-job run
  C   0.97356066028614     -0.03880953633292      0.16545471068594
  C   -0.30731791479057      0.16491608505412     -0.29121906686611
  C   1.63080119424689      1.00900547952201      0.87396046411136
  N   2.08845378993040      1.92821237721093      1.44984643309613
  C   1.66009625702136     -1.26868846076030     -0.04389340255990
  N   2.21968990738982     -2.28872411992923     -0.21925521681360
  C   -1.06801942312392     -0.88673924648902     -1.03774219859282
  H   -2.00367053433559     -1.11268925517152     -0.51769325783010
  H   -0.49468574058423     -1.80659797216665     -1.13322656062333
  H   -1.31665986733006     -0.52202704525234     -2.03787694191649
  N   -0.92987710925315      1.35958318528240     -0.15018846514636
  H   -0.52648155022760      2.05941170473455      0.45464834146540
  H   -1.92588966922949      1.40214680429797     -0.28081483901012
