13
Coordinates from ORCA-job run
  C   0.96953187929077     -0.07731168876249      0.16971312209077
  C   -0.30760354621072      0.17131277698690     -0.27498387145001
  C   1.72360635148706      0.98967737396034      0.73973570124165
  N   2.26718732849679      1.93154649494929      1.19078785665156
  C   1.56443058305261     -1.36701843230427      0.06688255120409
  N   2.05080218627551     -2.43442731598772     -0.02532126860319
  C   -1.16183565727321     -0.89234503608575     -0.89194523096723
  H   -1.47142232196775     -0.58796927709305     -1.89622595852049
  H   -2.06263370192595     -1.03814640019664     -0.28996939265770
  H   -0.63302961215646     -1.84043356081515     -0.96636470586843
  N   -0.89230096716706      1.38256558266863     -0.11412874698220
  H   -0.32915332244623      2.17017914957423      0.17027218745322
  H   -1.71757919945539      1.59337033310568     -0.64845224359205
