13
Coordinates from ORCA-job run
  C   0.99946537770359     -0.06671572797859      0.08884933789513
  C   -0.31156980822516      0.16861651466493     -0.25319792961518
  C   1.78954624387603      1.01386032611850      0.57903648586758
  N   2.35714900085397      1.96797344101551      0.97072274367828
  C   1.58943990230292     -1.35674883423278     -0.03497732427196
  N   2.06922437519493     -2.42554559319383     -0.14424963521918
  C   -1.20737756435173     -0.90886431021035     -0.78068988944604
  H   -2.06405980942197     -1.03690728287095     -0.11377482145291
  H   -1.58605703773913     -0.62982488788980     -1.76856899167781
  H   -0.68527965653918     -1.85962588829475     -0.86725208182600
  N   -0.88706922573265      1.38041681448335     -0.06702050982617
  H   -1.75572257741789      1.57846011260208     -0.53298819228119
  H   -0.30668922050373      2.17490531578668      0.15711080817543
