13
Coordinates from ORCA-job run
  C   0.92116873753029     -0.08152610382529      0.27680753955622
  C   -0.29389837168607      0.17450606565566     -0.31384722826284
  C   1.48676018750595     -1.38811090992973      0.29725353688048
  N   1.94682281601720     -2.47097418744980      0.30643306864044
  C   1.64095717496072      0.99633012818425      0.87016374874482
  N   2.15698148784823      1.94987247562962      1.32897271214110
  C   -1.10769428628882     -0.89769059179345     -0.96963731463233
  H   -2.07664168850318     -0.98310225783394     -0.47091163683030
  H   -0.60681244169797     -1.86296856365394     -0.93200962814506
  H   -1.28817876303331     -0.64095715085678     -2.01793974089796
  N   -0.85754479367124      1.40551786418431     -0.27407220352947
  H   -1.61720804289153      1.60725787057230     -0.90096878949882
  H   -0.30571201609026      2.19384536111681      0.02975593583372
