13
Coordinates from ORCA-job run
  C   0.99078368674653     -0.05951965571341      0.11433578499681
  C   -0.30102490331472      0.17548959790449     -0.29387407458840
  C   1.75824902509633      1.01981485128612      0.64147417661807
  N   2.31340482738845      1.96840097561252      1.06374166037207
  C   1.58251469829854     -1.35200050676607      0.03013265768784
  N   2.06154767711712     -2.42441861110446     -0.03919230015955
  C   -1.17223628573524     -0.90501830884338     -0.85563488482505
  H   -1.45339835858386     -0.65517914082039     -1.88224055353371
  H   -0.66862153159518     -1.86962405876394     -0.85503713580160
  H   -2.08939763248695     -0.99217252997041     -0.26537530760257
  N   -0.83614923984103      1.41978759612483     -0.27700543504273
  H   -0.35178911281975      2.16088379307909      0.20682193883084
  H   -1.83388285027027      1.51555599797501     -0.35614652695203
