13
Coordinates from ORCA-job run
  C   1.02363034081195     -0.13172942351962     -0.04025618514547
  C   -0.33336685875162      0.07752754845212     -0.11552781816877
  C   1.79757229832603     -0.46976160954460     -1.18656277511367
  N   2.42991816531324     -0.74773937734613     -2.13900038659068
  C   1.67182570123316     -0.00165692369862      1.22255165734342
  N   2.10589481287670      0.13369535437205      2.30851071434995
  C   -1.08770748857862     -0.02134013095398     -1.40479006435866
  H   -1.92434786944932     -0.71895373441589     -1.30098896831686
  H   -1.49732433621242      0.95808586651297     -1.66633422689965
  H   -0.45025860465776     -0.36065310490447     -2.21862415726381
  N   -1.05189991112813      0.46964864694336      0.96408809976436
  H   -0.63103188017886      0.42032636696611      1.87985681234493
  H   -2.05390436960436      0.39155052113671      0.92907729805490
