13
Coordinates from ORCA-job run
  C   0.97705614635818     -0.07201944388060      0.15229991130528
  C   -0.31255515072693      0.16641932969587     -0.26098881241920
  C   1.71956616326471      0.98845743327152      0.74904430989960
  N   2.25321165065493      1.92585156614877      1.22064547564837
  C   1.59618483054022     -1.34398323544620     -0.01120312676664
  N   2.10243660670324     -2.39648234155329     -0.15406322270561
  C   -1.15349038351463     -0.88941711626107     -0.90886875848079
  H   -1.48872032542186     -0.54878456369411     -1.89302564741172
  H   -2.03964823064812     -1.08273570507618     -0.29859846933268
  H   -0.60469000111206     -1.82046117813033     -1.03454198922289
  N   -0.91972688005307      1.35719786514437     -0.04252304253209
  H   -1.75905715513653      1.57142907444904     -0.55316353693165
  H   -0.36956727090809      2.14452831533221      0.26698690895003
