13
Coordinates from ORCA-job run
  C   0.99623009752893     -0.05850759901075      0.09824002653554
  C   -0.30015039034451      0.17583061006775     -0.29577366179864
  C   1.77016814987613      1.02369813256540      0.60997815891078
  N   2.32457729033629      1.97528225368159      1.02593591462302
  C   1.58288905620901     -1.35387164400531      0.02224521156740
  N   2.05903526004072     -2.42809544853084     -0.03926678137794
  C   -1.18267452758611     -0.90906128326499     -0.83044707773830
  H   -0.68188209657231     -1.87498280116973     -0.82479902174724
  H   -2.09037359786225     -0.98537862301895     -0.22444329565285
  H   -1.47995698204226     -0.67263143990368     -1.85553252442371
  N   -0.83166763198161      1.42150626689061     -0.28486869143325
  H   -0.33825275220662      2.16671837884901      0.18368538171403
  H   -1.82994187539539      1.52049319684989     -0.35395363917883
