13
Coordinates from ORCA-job run
  C   0.97879802830330     -0.05904640572030      0.14974528340163
  C   -0.31246738971365      0.16441272800096     -0.26661529312334
  C   1.71373678018445      1.01525645210272      0.73132325295623
  N   2.23982727191750      1.96227466107708      1.19227920333151
  C   1.60423383475290     -1.33078368206825      0.01246364684719
  N   2.11221737583643     -2.38528146922555     -0.10650692298524
  C   -1.14924718466149     -0.90872508606779     -0.89108067938813
  H   -1.47353962467051     -0.59835949755154     -1.88885152659228
  H   -0.60121235889431     -1.84442459617730     -0.98189396076390
  H   -2.04199373629296     -1.08104530185799     -0.28402865159344
  N   -0.92570208837766      1.35630177661476     -0.07118454568596
  H   -1.76702136958778      1.55388252200701     -0.58517000150554
  H   -0.37862953879622      2.15353789886620      0.21752019510127
