13
Coordinates from ORCA-job run
  C   0.98144960267847     -0.08519226113345      0.13707139763214
  C   -0.30708116834017      0.17419795323844     -0.26685338731727
  C   1.76586046442818      0.97832616269504      0.67172560205800
  N   2.33499610298090      1.91821999301886      1.09453530603988
  C   1.55709173458630     -1.38303300046303      0.02875663259834
  N   2.02583875047341     -2.45803222943497     -0.06613943259824
  C   -1.19391984245457     -0.88490383160458     -0.84432818028948
  H   -2.07792777299772     -1.01034686499735     -0.21352317525475
  H   -0.68072456348901     -1.84124524783559     -0.92233101338804
  H   -1.53004638183573     -0.58837744479034     -1.84244521139999
  N   -0.87193152809780      1.39379064899639     -0.09885412304312
  H   -0.29066542429004      2.17756458499066      0.15849002772034
  H   -1.71293997364220      1.60903153731991     -0.60610444275781
