13
Coordinates from ORCA-job run
  C   0.99618329648794     -0.07114534363282      0.09539206125916
  C   -0.30019515877356      0.17815464609690     -0.28907328095707
  C   1.78373944370171      1.00119899498911      0.60758521426384
  N   2.35094392186989      1.94589582861968      1.02207249200986
  C   1.57288019843499     -1.36944162143206      0.00038816068967
  N   2.03981787636143     -2.44643428397319     -0.08051809848612
  C   -1.19482395584105     -0.89352860150522     -0.83006166136817
  H   -0.70709540649237     -1.86627370141152     -0.82209482672236
  H   -2.10764901508172     -0.95816035348637     -0.23027768678984
  H   -1.48184254418941     -0.65196637332854     -1.85688682854813
  N   -0.81892593149751      1.42964936597683     -0.26830886398300
  H   -1.81741813367788      1.53576613292588     -0.32099690187466
  H   -0.31561459130245      2.16528531016132      0.20478022050681
