13
Coordinates from ORCA-job run
  C   1.00453766609625     -0.04656992043781      0.07312854266928
  C   -0.31709590865431      0.16141996711632     -0.24436227388587
  C   1.77648493042366      1.04396101502762      0.57003521391984
  N   2.33168083382675      2.00291469731168      0.96787225604369
  C   1.62643749826354     -1.31692375518703     -0.09113453750295
  N   2.13264445516524     -2.36956339808787     -0.23311272472577
  C   -1.19344897995038     -0.92890086409765     -0.77807248402967
  H   -0.64426807013283     -1.85917340111535     -0.90876123330865
  H   -1.61144526652148     -0.63382675482428     -1.74516375325843
  H   -2.02467259162719     -1.10484192212742     -0.09012709113969
  N   -0.92147371642099      1.35340895742574     -0.02349367786150
  H   -0.35889438290789      2.15883687677357      0.20691502673025
  H   -1.80148646756037      1.53725850222248     -0.47372326365052
