13
Coordinates from ORCA-job run
  C   1.02551728346638     -0.03277350456307     -0.01451844320783
  C   -0.31195285157057      0.17258101006071     -0.25977226515898
  C   1.80673619775906      1.03902096683199      0.50726076454431
  N   2.36638065388641      1.97991510501655      0.94042805782904
  C   1.64819105279755     -1.28916677678980     -0.26191864449020
  N   2.15298423540621     -2.33152292549823     -0.46946925932342
  C   -1.20512686608073     -0.91445194042928     -0.77250047751243
  H   -1.82599405803784     -0.53732748605712     -1.58883062343283
  H   -1.86557563186010     -1.26096218744870      0.02862682480844
  H   -0.63124420113805     -1.76675310810798     -1.13240310570448
  N   -0.88804358666483      1.38465249871520     -0.08355852690590
  H   -1.89123321692732      1.44579794167803     -0.05791243073912
  H   -0.37963901103619      2.11199040659167      0.39656812929340
