13
Coordinates from ORCA-job run
  C   0.96321348921756     -0.22270565745652      0.13151867438198
  C   -0.34947367011965      0.06134128742564     -0.16577007051415
  C   1.38545119812620     -0.19469784770637      1.49259697833446
  N   1.64066782039875     -0.14419514251133      2.64074878511540
  C   1.90884999002858     -0.54098626327765     -0.88381430111880
  N   2.67424691245603     -0.80488574722377     -1.73745069944241
  C   -0.86100044471354      0.08849948851953     -1.57274881831881
  H   -0.14039879873377     -0.33762906096404     -2.26842236285274
  H   -1.05971531945761      1.12119699254543     -1.87671380325857
  H   -1.79452554360128     -0.47511595530183     -1.64372132049169
  N   -1.25902163126206      0.30997370834840      0.80400164128242
  H   -2.14917010299938      0.70233528455536      0.55148440583019
  H   -0.95912389933982      0.43786891304715      1.75829089105274
