13
Coordinates from ORCA-job run
  C   0.97930310830715     -0.06951956511531      0.14570369713023
  C   -0.31074329378979      0.16867942601460     -0.26622608271100
  C   1.73898916884933      1.00268382437163      0.69812154785479
  N   2.28757513583125      1.94844481672923      1.13471398360847
  C   1.58081526636812     -1.35495584690898      0.02881939264483
  N   2.07099281701061     -2.41997224733967     -0.07140215144987
  C   -1.16984420296183     -0.90045597760064     -0.86693819421444
  H   -2.05849457119942     -1.05178602749487     -0.24855873080615
  H   -1.49911872492222     -0.59758739823264     -1.86548667028976
  H   -0.63684832153927     -1.84539972896062     -0.95184459866552
  N   -0.90199699775790      1.37433949388239     -0.08850550126223
  H   -0.33925809231634      2.16642640109277      0.18436527112285
  H   -1.74137129187969      1.57910282956211     -0.60276196296219
