13
Coordinates from ORCA-job run
  C   0.99543914163155     -0.05633742510086      0.10006904818780
  C   -0.30232430722868      0.17422703896568     -0.29127706649951
  C   1.76198586431765      1.02394207046912      0.62690154930314
  N   2.31236452400897      1.97238298650844      1.05541217342108
  C   1.59320256357080     -1.34499548588052      0.00091674533811
  N   2.07826135733036     -2.41344898517678     -0.08531790762775
  C   -1.17616054963708     -0.90818287929081     -0.84486909910744
  H   -1.47369054615481     -0.65662826434860     -1.86626750186465
  H   -0.66789580089746     -1.87029120752749     -0.85476541113763
  H   -2.08395892573115     -1.00166105845425     -0.24130467789434
  N   -0.84225658128761      1.41655680446401     -0.26392259410564
  H   -1.84186187301253      1.50716794654022     -0.32531139872541
  H   -0.35510486691002      2.15626845883185      0.21973614071226
