18

C	0.0	0.0	0.0
C	-0.481738	0.152412	-1.443125
F	1.416327	0.0	0.0
H	-1.578817	0.187707	-1.362881
C	-0.420366	1.217239	0.806127
H	-0.045639	1.093324	1.828752
H	-0.015719	2.135864	0.379586
H	-1.513448	1.208118	0.790526
N	-0.509984	-1.23877	0.498236
H	-1.538691	-1.076432	0.401741
H	-0.308377	-1.270908	1.493457
N	-0.137227	-1.125983	-2.19882
O	1.012348	-1.226436	-2.640072
O	-1.015374	-1.968563	-2.353879
N	0.108502	1.290808	-2.074066
H	1.10509	1.12923	-2.157175
H	-0.279918	1.412088	-3.000388
F	-2.877237	0.0	0.0
