18

C	0.0	0.0	0.0
C	-0.252658	0.11425	-1.536986
F	1.397895	0.0	0.0
H	0.345301	-0.697033	-1.955776
C	-0.474187	1.156108	0.853239
H	-0.054433	2.107398	0.530917
H	-1.564982	1.158077	0.78657
H	-0.167093	0.960523	1.887101
N	-0.545278	-1.269718	0.392987
H	-0.379654	-1.374717	1.391069
H	-1.564403	-1.103172	0.29402
N	0.526026	1.351075	-2.028438
O	1.588043	1.15745	-2.62611
O	0.031561	2.45944	-1.83642
N	-1.566594	0.169042	-2.043765
H	-2.284115	0.212917	-1.275292
H	-1.741152	-0.646184	-2.611734
F	-3.074159	0.0	0.0
