18

C	0.0	0.0	0.0
C	-0.255763	0.303825	-1.505611
F	1.400233	0.0	0.0
H	0.225954	-0.525781	-2.028177
C	-0.468638	1.043271	0.991066
H	-0.051541	2.024245	0.777024
H	-1.559476	1.051691	0.938015
H	-0.153682	0.72262	1.989956
N	-0.548609	-1.306728	0.238266
H	-0.369871	-1.536154	1.212966
H	-1.568262	-1.126751	0.171208
N	0.668549	1.473472	-1.912437
O	1.547495	1.225373	-2.741702
O	0.448347	2.591695	-1.456607
N	-1.563593	0.597121	-1.940433
H	-2.278575	0.457621	-1.176414
H	-1.800088	0.0093	-2.726041
F	-3.087386	0.0	0.0
