18

C	0.0	0.0	0.0
C	-0.46741	-0.203526	-1.467833
F	1.392682	0.0	0.0
H	-1.549317	-0.361348	-1.369268
C	-0.456731	1.366451	0.478696
H	0.033698	2.164596	-0.082498
H	-0.177082	1.447593	1.530568
H	-1.545286	1.380016	0.374742
N	-0.517995	-0.98458	0.897287
H	-0.366253	-1.905945	0.498163
H	-1.540709	-0.797751	0.817659
N	0.176119	-1.458419	-1.973955
O	1.22129	-1.35586	-2.613528
O	-0.345211	-2.534187	-1.666724
N	-0.167513	0.843739	-2.409391
H	0.766181	1.198649	-2.240539
H	-0.834625	1.588912	-2.256956
F	-2.87712	0.0	0.0
