18

C	0.0	0.0	0.0
C	-0.189666	-0.148634	-1.549027
F	1.392689	0.0	0.0
H	0.40473	0.650564	-2.008291
C	-0.460262	1.340821	0.518663
H	-0.046157	2.152398	-0.084714
H	-1.553016	1.322724	0.478078
H	-0.105232	1.433056	1.548484
N	-0.54661	-1.054043	0.763648
H	-0.412231	-1.909369	0.230344
H	-1.573128	-0.821448	0.69133
N	-1.555038	0.110841	-2.122382
O	-2.186008	-0.834308	-2.581545
O	-1.856548	1.292904	-2.241454
N	0.235121	-1.484228	-1.925921
H	-0.018189	-1.672606	-2.886579
H	1.241458	-1.517984	-1.824984
F	-2.828062	0.0	0.0
