16

C	-0.452456	0.029634	-1.438169
C	0.0	0.0	0.0
Cl	0.463689	1.179224	-2.365232
H	1.093735	0.0	0.0
N	-0.305768	-1.366076	-2.055753
O	0.82311	-1.712832	-2.359746
O	-1.332695	-2.036504	-2.128787
N	-1.951994	0.347318	-1.597996
O	-2.347276	0.662974	-2.71237
O	-2.643003	0.219961	-0.59434
C	-0.483057	-1.172835	0.710039
N	-0.830498	-2.104576	1.339395
N	-0.333502	1.27257	0.625286
H	-1.136381	1.197768	1.234313
H	0.483767	1.559116	1.150207
F	2.485863	0.0	0.0
