16

C	-0.440173	0.013692	-1.448757
C	0.0	0.0	0.0
Cl	0.103057	-1.41814	-2.283639
H	1.093904	0.0	0.0
N	-1.958404	0.147961	-1.558131
O	-2.395917	1.29359	-1.534918
O	-2.617669	-0.884732	-1.542728
N	0.103854	1.226582	-2.205847
O	-0.275791	1.317457	-3.369037
O	0.863617	1.979094	-1.620641
C	-0.464086	-1.217109	0.645993
N	-0.84357	-2.151781	1.25238
N	-0.435264	1.203285	0.693567
H	0.389841	1.609017	1.117771
H	-1.12515	1.006818	1.406305
F	2.481507	0.0	0.0
