16

C	-0.520431	0.0097	-1.414398
C	0.0	0.0	0.0
Cl	-2.268452	-0.204198	-1.558891
H	1.092254	0.0	0.0
N	-0.10069	1.334093	-2.059103
O	-0.94971	2.185429	-2.255236
O	1.09529	1.408312	-2.289726
N	0.11661	-1.071051	-2.281049
O	0.025697	-0.910136	-3.49267
O	0.622274	-2.017716	-1.699703
C	-0.493396	-1.153411	0.736953
N	-0.916904	-2.021334	1.409322
N	-0.338483	1.273589	0.622976
H	-1.187461	1.228189	1.172364
H	0.444729	1.524161	1.21525
F	2.481602	0.0	0.0
