16

C	-0.546761	0.006665	-1.402251
C	0.0	0.0	0.0
Cl	-2.304019	-0.16487	-1.50091
H	1.091335	0.0	0.0
N	-0.11271	1.31369	-2.072378
O	-0.9497	2.172772	-2.291067
O	1.086284	1.364493	-2.303521
N	0.039535	-1.096148	-2.272323
O	-0.090141	-0.950656	-3.483575
O	0.549898	-2.043844	-1.693846
C	-0.490315	-1.141792	0.754151
N	-0.923	-2.004228	1.427181
N	-0.320842	1.28291	0.618912
H	0.500013	1.553803	1.14767
H	-1.125128	1.232935	1.230448
F	2.480673	0.0	0.0
