16

C	-0.426369	0.043206	-1.445621
C	0.0	0.0	0.0
Cl	0.513081	1.196423	-2.346588
H	1.093797	0.0	0.0
N	-0.259273	-1.344061	-2.072843
O	-1.286359	-1.977388	-2.296988
O	0.888201	-1.720252	-2.240465
N	-1.921651	0.371721	-1.626142
O	-2.632659	0.179935	-0.646305
O	-2.294463	0.75606	-2.725897
C	-0.484459	-1.181302	0.692192
N	-0.841582	-2.117856	1.309
N	-0.347573	1.267822	0.627686
H	-1.165684	1.190056	1.213482
H	0.451821	1.555025	1.17587
F	2.483139	0.0	0.0
