16

C	-0.437045	0.006676	-1.44668
C	0.0	0.0	0.0
Cl	-0.224358	-1.545677	-2.215124
H	1.098605	0.0	0.0
N	-1.906172	0.431655	-1.560472
O	-2.717685	-0.370347	-1.117107
O	-2.148357	1.54849	-1.999513
N	0.326722	1.066848	-2.255518
O	0.234117	0.980386	-3.474197
O	0.921891	1.92624	-1.62707
C	-0.460785	-1.189284	0.692511
N	-0.80344	-2.10703	1.34458
N	-0.457887	1.226438	0.653708
H	0.371554	1.703416	0.984608
H	-1.060553	1.01959	1.438217
F	2.485741	0.0	0.0
