14
Coordinates from ORCA-job run
  C   -0.85951995817661     -0.12877843671041      0.09686141894444
  C   0.53546981086042      0.11090310800435      0.71244353970352
  Br  -1.98842684369804     -0.76219036257339      1.57342301965554
  H   0.44636139274563      0.73442404641212      1.60329535228495
  N   -0.82290289906511     -1.15108698298339     -0.90170339583289
  H   -1.74981217558296     -1.33558290949179     -1.26569423011876
  H   -0.19785722434184     -0.88117613963344     -1.65393313963478
  C   -1.41003162887541      1.16882369972620     -0.32879066185167
  N   -1.83282840862662      2.19131902555214     -0.72990395379821
  N   1.40672000360732      0.91362094085283     -0.24290344979708
  O   1.44555113940503      0.53547925227729     -1.40942280962955
  O   2.00253449485983      1.86521213860126      0.24254307412805
  C   1.21778639277500     -1.14014148092509      1.01729944742757
  N   1.80695590411336     -2.11982589910867      1.28648578851885
