14
Coordinates from ORCA-job run
  C   -0.85671377874091     -0.09176140174858      0.15047958321901
  C   0.57346305902242      0.15982522293190      0.67462163095177
  Br  -1.92975245000070     -0.54676613379959      1.73048477549201
  H   0.54553429002382      0.86626884766830      1.50556902787209
  N   -0.89633760624784     -1.20371841305111     -0.74706962555640
  H   -1.84367647565955     -1.38814570455913     -1.05425301813182
  H   -0.29620760619762     -1.02899388482319     -1.54624071178720
  C   -1.39072105380379      1.17689905750289     -0.37256352759694
  N   -1.80273240619306      2.16924852555624     -0.85250833853388
  N   1.41408404946278      0.84249660409649     -0.39405551074498
  O   1.40979484509882      0.33460961127064     -1.51096773945385
  O   2.03027964184330      1.83854822549180     -0.04059163687088
  C   1.23484400598550     -1.07926014042331      1.06294523816888
  N   1.80814148540681     -2.04925041611335      1.39414985297219
