11
Coordinates from ORCA-job run
  C   1.18297794054456      0.10361033417668      0.38708602181861
  C   -0.07497372630488      0.01389665484471     -0.46840607645902
  H   1.64924178054223     -0.88078395214335      0.45476127796951
  H   0.13992587389939     -0.37667683894585     -1.46383991200593
  H   0.92711825382988      0.45759418321071      1.38572771265087
  H   1.88843977299889      0.79923973113519     -0.06883351991170
  C   -0.76796099775025      1.29554937364887     -0.56955272566061
  N   -1.30213799448594      2.33857101912894     -0.63593348145424
  N   -1.00573465778099     -0.99809191611007      0.16457307956388
  O   -1.05702747880330     -2.09796231754742     -0.37580036261192
  O   -1.57986876668960     -0.65394627139841      1.19021798610055
