11
Coordinates from ORCA-job run
  C   1.24894108632461      0.04787875165752      0.21413041868066
  C   -0.13616338186451      0.04040481447440     -0.41108413869750
  H   1.71058093955190     -0.93190561491384      0.11317893061822
  H   -0.09488784581178     -0.28744918654573     -1.45498529624251
  H   1.18567000475407      0.30533655195611      1.27160052130900
  H   1.86545670782117      0.79143375468823     -0.29277730023379
  C   -0.78345741450726      1.34826264204056     -0.34832874366552
  N   -1.23159472789397      2.43222309801860     -0.30240427994124
  N   -1.03883347930996     -0.99023782436622      0.25980580602915
  O   -2.24237347728414     -0.76667661453639      0.25228334846255
  O   -0.48433841178013     -1.99027037247325      0.69858073368098
