11
Coordinates from ORCA-job run
  C   1.24060209415377     -0.06399501171965      0.11504869171573
  C   -0.17423922976436      0.10984551078377     -0.42451659262716
  H   1.90837741970059      0.65124484795902     -0.36646223179317
  H   -0.22620289817255     -0.09471764848023     -1.49459870516134
  H   1.24976646841577      0.10751396859761      1.19141330106513
  H   1.59038730930679     -1.07531986452797     -0.09895019885508
  C   -0.71647874660141      1.43563588843035     -0.14023447428431
  N   -1.11252755433587      2.52120722996525      0.06571847368245
  N   -1.05707620782627     -0.93431177921037      0.22425300601473
  O   -1.33723805466352     -1.90908003624899     -0.46543275218707
  O   -1.36537060021294     -0.74702310554879      1.39476148243009
