11
Coordinates from ORCA-job run
  C   1.24126879964009     -0.05970076784432      0.12205735978229
  C   -0.17153145190344      0.10848018960768     -0.42444783255040
  H   1.24505815604901      0.11320123238180      1.19827495170559
  H   -0.21734605331553     -0.09628159256053     -1.49483516942157
  H   1.59570152407149     -1.07007496824788     -0.08893298562276
  H   1.90862372907981      0.65724430660775     -0.35756084520871
  C   -0.72075323649318      1.43261330208138     -0.14500504377221
  N   -1.13131896666792      2.51483627480061      0.04961045850310
  N   -1.05412504262559     -0.93740267599461      0.22061359189390
  O   -1.32648911679731     -1.91463917075521     -0.46876801879017
  O   -1.37008834103743     -0.74927613007667      1.38899353348093
