11
Coordinates from ORCA-job run
  C   1.24339317270507     -0.05178529351527      0.08197228429351
  C   -0.18706243257232      0.11261801357928     -0.41793239868985
  H   1.89003651839471      0.67739113570731     -0.40747241985841
  H   -0.26467093404812     -0.08170571146645     -1.48845209202344
  H   1.27923437376151      0.10649698132700      1.16002326944029
  H   1.59868956385938     -1.05625893845765     -0.15407465070531
  C   -0.73591913274713      1.42966167531429     -0.10759687530445
  N   -1.14080866473650      2.50865397789001      0.11477021462494
  N   -1.04038136530253     -0.94816130341971      0.24301945250782
  O   -1.28418105097619     -1.94134751450081     -0.43391034009176
  O   -1.35933004833788     -0.75556302245799      1.40965355580664
