16
Coordinates from ORCA-job run
  C   0.79723046561029      0.39826346692254     -0.64584888194303
  C   -0.70237593231748      0.30902306632286     -0.36535767188357
  Cl  1.25636100686560      2.12302792749781     -0.81644245649381
  H   -1.22733539822810      0.89142598642172     -1.12350420447452
  H   0.93417300973669     -0.03627519862990     -1.64013371982232
  C   1.72532614448113     -0.28104049652763      0.34313764782263
  H   1.47969587826302     -1.34099376796153      0.43537097043166
  H   1.65965104696888      0.17857426271443      1.32755379359425
  H   2.75252404508404     -0.19830121740174     -0.01464687978731
  N   -1.04733779104734      0.99617862130427      0.92304636479429
  O   -1.67689514474892      2.04840295903902      0.84956466601614
  O   -0.68242708104141      0.45139050851769      1.96449043482913
  C   -1.21586775213784     -1.11934413363363     -0.31407997516714
  H   -0.78907948437543     -1.66008168254441      0.52901430449876
  H   -2.30281548420407     -1.12155097100544     -0.21026510299798
  H   -0.96182752890907     -1.63869933103604     -1.24089928941718
