16
Coordinates from ORCA-job run
  C   0.87003637170063     -0.17709059075876     -0.40178574449548
  C   -0.60316792344915      0.17235362981925     -0.19236145132158
  Cl  1.23010729362009      0.01978194114737     -2.14688448508007
  H   -0.78206430932426      1.20228445122054     -0.50602877032196
  H   1.01844493115256     -1.23495098159891     -0.17675835182125
  C   1.81441234669825      0.68712435795072      0.41211551943914
  H   1.67530881409751      0.49960744768768      1.47908751930212
  H   1.63991022992849      1.74642239255526      0.21265583255162
  H   2.84888059401848      0.45230212325013      0.15953428401014
  N   -0.83468722046112      0.17145661262755      1.28981986143933
  O   -1.12129847433414      1.23981756550153      1.82498276832414
  O   -0.69491667778845     -0.90586096987496      1.86678664507951
  C   -1.58216318192985     -0.79172930277813     -0.83505410040260
  H   -1.39695904401224     -1.80748102025179     -0.48348590818160
  H   -1.47541725748453     -0.76216928666703     -1.91894083260730
  H   -2.60742649243228     -0.51386836983045     -0.58168278591415
