16
Coordinates from ORCA-job run
  C   0.84485030969442      0.46594794895954      0.30975987109207
  C   -0.58193376795806      0.28510362074283     -0.20194511703712
  Cl  0.95882766101523     -0.05494146762501      2.01967048795844
  H   -0.61217408695167      0.72824071963737     -1.20317710932307
  H   1.05935089733228      1.53518025549585      0.31528242806612
  C   1.86592622106442     -0.27928906701099     -0.52830524754930
  H   1.77708250026694      0.01569836339448     -1.57794907947809
  H   1.73366989216241     -1.35873423685941     -0.45021386321623
  H   2.87328947193969     -0.03769669659435     -0.18726577773219
  N   -1.47409741438196      1.19481065768637      0.61026844879700
  O   -2.37710330477820      0.69361766947948      1.27213154848917
  O   -1.21194079091681      2.39367322822966      0.54722469871346
  C   -1.11229310004390     -1.13004354481637     -0.22080261747832
  H   -2.14823789095733     -1.14016358389014     -0.55890802044772
  H   -1.07318587001207     -1.57995935114951      0.76960933923446
  H   -0.52203072747538     -1.73244451567979     -0.91337999008867
