16
Coordinates from ORCA-job run
  C   0.85618502353662     -0.20309649396968     -0.42022183217974
  C   -0.59646898167904      0.20612768560628     -0.17841032923896
  Cl  1.20297139851670      0.03538822956459     -2.16258923672203
  H   -0.73145230587983      1.25325460633792     -0.45495192131089
  H   0.95835037199377     -1.27353767463571     -0.23188940978539
  C   1.84921709740614      0.58936417472420      0.40880797359727
  H   1.71673245967993      0.36991150094376      1.47052142765445
  H   2.86866575644903      0.31878210247707      0.13208931531350
  H   1.71899299150402      1.66177457989974      0.24952193537829
  N   -0.80928485483375      0.16533546132451      1.30599827685134
  O   -0.71083838314201     -0.93605410009458      1.84497606170209
  O   -1.04211391636813      1.22653679752945      1.88030148315315
  C   -1.62751202607333     -0.68928848055733     -0.83887381542834
  H   -1.48510355556637     -1.72417615041644     -0.52519746383625
  H   -2.63512453092521     -0.37337052568785     -0.56046253876999
  H   -1.53421654461855     -0.62695171304593     -1.92261992637851
