16
Coordinates from ORCA-job run
  C   0.80505185818506      0.39102329122103     -0.64120414388979
  C   -0.69668428396008      0.31917741061007     -0.36634215077992
  Cl  1.28590288670531      2.11075149555754     -0.80248339530864
  H   -1.21119102849095      0.91167440934205     -1.12387999789093
  H   0.94082549680278     -0.04020601385040     -1.63704386087221
  C   1.72060952626203     -0.30373795389570      0.34883717599742
  H   2.75007445423428     -0.23473474493753     -0.00537073289569
  H   1.45975461854306     -1.36025232615246      0.43825468437417
  H   1.65817258992406      0.15501159271129      1.33387068112543
  N   -1.03771577234223      1.00434206450876      0.92370927672014
  O   -1.65429547145665      2.06448825890115      0.85327546221370
  O   -0.68438978768763      0.44956468426460      1.96397843328465
  C   -1.22886852738960     -1.10258393631152     -0.32449349955188
  H   -0.97868478292571     -1.61985060068842     -1.25353353614246
  H   -0.81242827797686     -1.65390948435561      0.51689031861085
  H   -2.31613349842689     -1.09075814692486     -0.22446471499485
