15

C	-0.202371	-0.124763	-1.490984
C	0.0	0.0	0.0
Br	-0.588539	1.917987	-2.146331
H	1.087999	0.0	0.0
H	-0.446546	0.8657	0.469319
N	0.856933	-0.696985	-2.075946
H	1.75989	-0.516714	-1.583083
H	0.844285	-0.832307	-3.073868
N	-1.523333	-0.725765	-1.960075
O	-1.52087	-1.263514	-3.062725
O	-2.482555	-0.620984	-1.209436
N	-0.428933	-1.198514	0.729791
O	-0.436971	-2.280271	0.139029
O	-0.682187	-1.048943	1.926791
H	2.661148	0.0	0.0
