15

C	-0.34141	0.100176	-1.454355
C	0.0	0.0	0.0
Br	-2.23483	0.635013	-1.79961
H	1.091868	0.0	0.0
H	-0.28497	0.927723	0.495326
N	0.540536	1.058073	-1.985979
H	0.519191	1.07663	-2.997359
H	1.488212	0.877025	-1.609864
N	-0.140126	-1.253934	-2.1869
O	-0.608334	-1.361688	-3.316525
O	0.619153	-2.047342	-1.64587
N	-0.601983	-1.092508	0.759759
O	-0.294578	-1.141791	1.952297
O	-1.369474	-1.880487	0.200394
H	2.626907	0.0	0.0
