15

C	-0.569616	-0.247823	-1.373803
C	0.0	0.0	0.0
Br	0.169135	-1.764711	-2.323205
H	1.103197	0.0	0.0
H	-0.319472	0.9867	0.335501
N	-1.983444	-0.360804	-1.369181
H	-2.381061	0.461081	-0.930336
H	-2.351289	-0.473592	-2.306295
N	-0.131049	1.049764	-2.17267
O	-0.768467	2.053053	-1.844146
O	0.750228	1.014196	-3.014954
N	-0.453101	-0.942486	1.002629
O	-0.447648	-2.14867	0.737768
O	-0.697641	-0.477726	2.128016
H	2.554059	0.0	0.0
