15

C	-0.55523	-0.028626	-1.419024
C	0.0	0.0	0.0
Br	-0.05723	-1.663477	-2.318266
H	1.087992	0.0	0.0
H	-0.388604	0.90658	0.469737
N	-1.968525	0.181116	-1.60332
H	-2.461083	-0.539196	-1.085267
H	-2.19167	1.071918	-1.171163
N	0.122792	1.17486	-2.105285
O	0.995171	1.015704	-2.938024
O	-0.292935	2.255225	-1.685825
N	-0.556435	-1.122861	0.76963
O	-1.715276	-0.985667	1.204272
O	0.141548	-2.118147	0.952563
H	2.734215	0.0	0.0
