15

C	-0.264587	0.099434	-1.483702
C	0.0	0.0	0.0
Br	-2.171209	0.472046	-1.91636
H	1.09249	0.0	0.0
H	-0.422802	-0.877711	0.475273
N	0.560545	0.993745	-2.205488
H	1.519149	0.777363	-1.896787
H	0.353518	1.916799	-1.837135
N	-0.014457	-1.329974	-2.024667
O	0.779877	-1.455032	-2.945625
O	-0.623209	-2.240334	-1.471859
N	-0.41395	1.166819	0.752615
O	-0.302999	2.286268	0.232546
O	-0.764843	0.986193	1.925089
H	2.570459	0.0	0.0
