15

C	-0.304674	0.030609	-1.469371
C	0.0	0.0	0.0
Br	-2.215243	0.144201	-1.94518
H	1.096596	0.0	0.0
H	0.175541	0.880681	-1.946115
N	0.268068	-1.181198	-2.160144
O	1.25902	-0.978802	-2.85302
O	-0.272865	-2.267063	-1.979663
C	-0.489002	-1.212192	0.782335
H	-0.241194	-1.063123	1.83483
H	-1.566199	-1.375322	0.688498
H	0.038832	-2.10092	0.442245
C	-0.452298	1.243117	0.591038
N	-0.799832	2.245903	1.099353
F	2.50277	0.0	0.0
