15

C	-0.273667	-0.043218	-1.473118
C	0.0	0.0	0.0
Br	-2.14446	-0.418167	-2.006721
H	1.096617	0.0	0.0
H	-0.021684	0.90011	-1.950367
N	0.579837	-1.064133	-2.183916
O	1.252357	-0.639774	-3.118732
O	0.5286	-2.228471	-1.80805
C	-0.451961	-1.182621	0.848382
H	0.050055	-2.084927	0.505605
H	-0.14419	-0.995677	1.879585
H	-1.535904	-1.334054	0.821117
C	-0.503217	1.254001	0.520042
N	-0.906751	2.267236	0.963165
F	2.490752	0.0	0.0
