15

C	-0.548126	-0.118028	-1.40482
C	0.0	0.0	0.0
Br	0.379117	-1.473538	-2.441877
H	1.093934	0.0	0.0
H	-1.609219	-0.368646	-1.460222
N	-0.434004	1.189786	-2.151531
O	-1.492245	1.640943	-2.596097
O	0.668487	1.710865	-2.244597
C	-0.353173	-1.235951	0.829961
H	0.203353	-2.085558	0.436357
H	-0.013099	-1.073137	1.854718
H	-1.423777	-1.469697	0.84079
C	-0.546588	1.197974	0.605606
N	-0.990756	2.168774	1.101263
F	2.510125	0.0	0.0
