15

C	-0.296415	-0.342998	-1.436165
C	0.0	0.0	0.0
Br	0.039621	1.106832	-2.665612
H	1.09512	0.0	0.0
H	0.336624	-1.173459	-1.74064
N	-1.715408	-0.819176	-1.624499
O	-2.628062	-0.012475	-1.486549
O	-1.854635	-2.029553	-1.817066
C	-0.376853	-1.161604	0.9226
H	0.118217	-2.06948	0.569151
H	-1.455569	-1.340445	0.990887
H	0.011036	-0.944511	1.9196
C	-0.57503	1.249433	0.447273
N	-1.016964	2.250443	0.879837
F	2.516529	0.0	0.0
