15

C	-0.551347	-0.105977	-1.405991
C	0.0	0.0	0.0
Br	0.388951	-1.436137	-2.463113
H	1.093998	0.0	0.0
H	-1.607844	-0.370622	-1.45548
N	-0.463574	1.2138	-2.12962
O	-1.54376	1.7027	-2.469244
O	0.638986	1.711377	-2.300842
C	-0.35865	-1.243966	0.816783
H	0.172842	-2.100315	0.399129
H	-1.434965	-1.455189	0.846088
H	0.00437	-1.104129	1.836492
C	-0.541032	1.192164	0.624538
N	-0.987169	2.154241	1.135845
F	2.511545	0.0	0.0
