15

C	-0.456808	-0.006496	-1.445514
C	0.0	0.0	0.0
Br	0.310255	-1.4853	-2.447693
H	1.095665	0.0	0.0
H	-1.535249	-0.068851	-1.593441
N	-0.054772	1.265903	-2.157867
O	1.110308	1.622909	-2.099894
O	-0.967439	1.846893	-2.751631
C	-0.483861	-1.231504	0.760332
H	-0.0041	-2.120023	0.350674
H	-1.572982	-1.357606	0.726391
H	-0.174708	-1.141578	1.803369
C	-0.500805	1.212972	0.618921
N	-0.904511	2.191898	1.132688
F	2.517776	0.0	0.0
