20

C	0.0	0.0	0.0
C	-0.40513	0.069295	-1.502486
Br	1.980821	0.0	0.0
H	0.371738	0.665617	-1.998063
C	-0.427401	1.259775	0.740528
H	-1.519569	1.256759	0.80546
H	0.001812	1.264362	1.747298
H	-0.111112	2.157412	0.207113
C	-0.518305	-1.223494	0.729199
H	-0.146263	-2.155642	0.301208
H	-1.615586	-1.188346	0.664041
H	-0.225389	-1.183623	1.782227
N	-1.657779	0.800618	-1.645291
H	-1.983526	0.685463	-2.601151
H	-2.418357	0.424218	-1.029753
C	-0.412117	-1.314683	-2.162384
H	-1.24999	-1.90407	-1.785292
H	0.524174	-1.861283	-2.005307
H	-0.551747	-1.192126	-3.241983
H	-3.651946	0.0	0.0
