16

C	-0.407878	-0.033791	-1.448183
C	0.0	0.0	0.0
Br	0.272575	1.472806	-2.469016
H	1.101886	0.0	0.0
H	-0.014386	-0.926773	-1.926762
N	-1.903692	-0.104692	-1.618639
O	-2.572275	0.920763	-1.604364
O	-2.360266	-1.251668	-1.67117
C	-0.461047	-1.260106	0.71698
H	-0.146221	-2.156021	0.177069
H	0.029307	-1.285181	1.694663
H	-1.545676	-1.287911	0.862431
N	-0.568287	1.176872	0.68631
H	-0.181799	1.996947	0.225857
H	-0.126773	1.173161	1.602703
F	2.638828	0.0	0.0
