16

C	-0.403784	-0.005016	-1.45323
C	0.0	0.0	0.0
Br	0.391978	1.453267	-2.457777
H	1.101998	0.0	0.0
H	-0.072842	-0.921785	-1.935843
N	-1.902121	0.031202	-1.626377
O	-2.491986	1.102056	-1.687098
O	-2.44207	-1.080524	-1.605722
C	-0.473179	-1.260403	0.704511
H	-0.005	-1.286383	1.693525
H	-1.560644	-1.296852	0.823607
H	-0.139518	-2.151897	0.168322
N	-0.565068	1.179422	0.680901
H	-0.226614	1.121808	1.637201
H	-0.092337	1.990742	0.292606
F	2.646232	0.0	0.0
