16

C	-0.401072	0.002408	-1.457049
C	0.0	0.0	0.0
Br	-0.130475	1.689105	-2.3532
H	1.096522	0.0	0.0
H	0.169524	-0.740961	-2.007751
N	-1.84248	-0.397409	-1.635041
O	-2.047723	-1.49118	-2.167349
O	-2.714367	0.323334	-1.159988
C	-0.407934	-1.333271	0.626252
H	-1.494232	-1.420923	0.772786
H	-0.069637	-2.181766	0.023927
H	0.084386	-1.406101	1.599255
N	-0.465987	1.165273	0.727505
H	-1.321097	0.979531	1.236729
H	0.264752	1.424537	1.378663
F	2.622289	0.0	0.0
