15

C	0.0	0.0	0.0
C	-0.582946	-0.044291	-1.388975
Cl	1.773417	0.0	0.0
H	-1.710697	0.079655	-1.143851
H	-0.291368	0.983197	0.383752
N	-0.521955	-1.117599	0.734255
H	-1.551454	-0.957036	0.685505
H	-0.245404	-0.996322	1.704186
N	-0.373243	-1.331023	-2.107972
O	-1.383595	-1.936538	-2.464063
O	0.781587	-1.687332	-2.326555
N	-0.065719	1.053656	-2.225614
O	0.147512	0.844837	-3.420111
O	0.06659	2.142503	-1.662399
H	-2.832277	0.0	0.0
