17

C	-0.514013	-0.058966	-1.421267
C	0.0	0.0	0.0
Cl	-2.303149	-0.121854	-1.465326
H	1.094593	0.0	0.0
N	-0.045067	1.159344	-2.236069
O	1.172828	1.239479	-2.340419
O	-0.871506	1.89174	-2.759801
C	0.074561	-1.274177	-2.113845
H	-0.164424	-1.249974	-3.178638
H	-0.338341	-2.18262	-1.675156
H	1.158124	-1.250463	-1.967075
C	-0.379412	-1.191761	0.726445
N	-0.617036	-2.215111	1.256521
N	-0.366458	1.189154	0.74619
O	-0.384855	1.10213	1.98217
O	-0.467424	2.247636	0.107238
H	2.372296	0.0	0.0
