17

C	-0.487768	-0.019323	-1.441807
C	0.0	0.0	0.0
Cl	-2.254772	0.246923	-1.531956
H	1.094504	0.0	0.0
N	0.210992	1.06651	-2.285076
O	-0.445186	1.959094	-2.80032
O	1.415789	0.882898	-2.408489
C	-0.138451	-1.337852	-2.106596
H	0.928166	-1.524531	-1.96475
H	-0.37164	-1.279889	-3.172154
H	-0.722385	-2.141119	-1.6593
C	-0.478553	-1.162097	0.709354
N	-0.824843	-2.16263	1.223269
N	-0.351768	1.221071	0.698826
O	-0.666695	1.156389	1.894985
O	-0.166092	2.269814	0.066802
H	2.375033	0.0	0.0
