17

C	-0.451579	0.000957	-1.443511
C	0.0	0.0	0.0
Cl	-0.082378	-1.617906	-2.108956
H	1.095043	0.0	0.0
N	-1.98036	0.143069	-1.572608
O	-2.407609	0.577026	-2.637909
O	-2.66582	-0.210453	-0.622113
C	0.24809	1.042042	-2.285631
H	-0.062366	2.037027	-1.974457
H	-0.002818	0.895714	-3.334734
H	1.321757	0.918636	-2.113683
C	-0.418593	-1.129778	0.799516
N	-0.685314	-2.048814	1.482414
N	-0.366033	1.229964	0.711063
O	-0.970364	2.127111	0.098553
O	0.042855	1.321815	1.8715
H	2.406619	0.0	0.0
