17

C	-0.500965	-0.048939	-1.431054
C	0.0	0.0	0.0
Cl	-2.285357	0.109785	-1.503412
H	1.094327	0.0	0.0
N	0.115495	1.081652	-2.28267
O	-0.593536	1.973647	-2.720273
O	1.315552	0.941449	-2.484903
C	-0.072107	-1.351912	-2.081109
H	-0.294197	-1.322638	-3.149445
H	1.002515	-1.475976	-1.923524
H	-0.612652	-2.182278	-1.627629
C	-0.435373	-1.172255	0.724414
N	-0.742435	-2.186195	1.236122
N	-0.336372	1.212391	0.721244
O	-0.200169	2.270418	0.092572
O	-0.570934	1.128989	1.934168
H	2.378295	0.0	0.0
