17

C	-0.373101	0.021015	-1.476383
C	0.0	0.0	0.0
Cl	-0.242226	-1.652895	-2.094735
H	1.095054	0.0	0.0
N	-1.85143	0.391623	-1.67826
O	-2.629055	0.102196	-0.777952
O	-2.152426	0.910773	-2.74784
C	0.528093	0.904611	-2.306837
H	0.339733	1.949979	-2.072238
H	0.35489	0.726459	-3.365925
H	1.555642	0.652776	-2.02541
C	-0.460543	-1.134205	0.766425
N	-0.760968	-2.080241	1.396797
N	-0.355754	1.236238	0.690584
O	-0.652347	2.226562	0.007488
O	-0.218103	1.243824	1.916307
H	2.419432	0.0	0.0
