17

C	-0.488554	0.01892	-1.453628
C	0.0	0.0	0.0
Cl	0.283844	1.305589	-2.400325
H	1.088717	0.0	0.0
N	-0.051525	-1.29739	-2.125676
O	0.64512	-2.073959	-1.4849
O	-0.443171	-1.461274	-3.278028
C	-1.994643	0.112448	-1.592165
H	-2.343792	1.027807	-1.113442
H	-2.27128	0.121156	-2.645791
H	-2.459385	-0.743887	-1.097236
C	-0.569626	-1.133735	0.700348
N	-1.011096	-2.068908	1.261371
N	-0.394903	1.232515	0.697661
O	0.199616	2.264689	0.360269
O	-1.216375	1.165412	1.628544
H	2.43149	0.0	0.0
