17

C	-0.337627	-0.011759	-1.488479
C	0.0	0.0	0.0
Cl	0.142003	-1.606319	-2.121001
H	1.092179	0.0	0.0
N	-1.866224	0.095392	-1.637134
O	-2.546049	-0.898436	-1.411155
O	-2.303626	1.214217	-1.903106
C	0.360302	1.053765	-2.298696
H	1.427049	0.970709	-2.067332
H	0.009146	2.041815	-2.023929
H	0.181575	0.873471	-3.360462
C	-0.520315	-1.139911	0.724764
N	-0.825796	-2.111669	1.312818
N	-0.378745	1.249193	0.663824
O	-1.132288	1.207762	1.646648
O	0.169475	2.274411	0.243415
H	2.406723	0.0	0.0
