17

C	-0.487541	-0.01899	-1.441989
C	0.0	0.0	0.0
Cl	-2.254468	0.247888	-1.532122
H	1.094473	0.0	0.0
N	0.211614	1.066863	-2.284908
O	-0.444263	1.960016	-2.799618
O	1.416318	0.882745	-2.408568
C	-0.138675	-1.337421	-2.107135
H	0.927945	-1.524328	-1.965673
H	-0.722653	-2.140672	-1.65987
H	-0.372187	-1.279133	-3.172607
C	-0.479244	-1.16204	0.709027
N	-0.827073	-2.162328	1.222363
N	-0.352466	1.221193	0.698438
O	-0.163163	2.269864	0.067396
O	-0.672341	1.156574	1.89329
H	2.375537	0.0	0.0
