11
Coordinates from ORCA-job run
  C   -0.76448218582760      0.48058215237143      0.11192092859448
  C   0.47133769482598     -0.35857235807305     -0.22037278700690
  Cl  -0.27390273575135      2.01082182095764      0.89556706053405
  H   0.13611943410435     -1.21967693201007     -0.80627505354112
  H   -1.37191382051480     -0.05861364577220      0.84035523222450
  H   1.12429580144979      0.24334270182952     -0.86270392805577
  C   -1.55273385216016      0.76844927885444     -1.08261266050085
  N   -2.16283021064765      0.95588492129201     -2.06809810737684
  N   1.10092058949741     -0.80080365795732      1.01268467627954
  H   1.37222997660236     -1.77100866794139      0.95213871943823
  H   1.92095930842167     -0.25240561355103      1.22639591941069
