11
Coordinates from ORCA-job run
  C   -0.83749018542105      0.06286022419111     -0.30085921047613
  C   0.63305647795819      0.10544502406891      0.10360509483346
  Cl  -1.83771557469652     -0.56091221616164      1.04829625960309
  H   1.18035065650851      0.56526723391439     -0.72446380562789
  H   -0.95628288495919     -0.64297663732470     -1.12458019085722
  H   0.73202444652546      0.76135392220322      0.97934068873961
  C   -1.31837646188872      1.38252270823269     -0.69700028651473
  N   -1.65956269744499      2.45648374205484     -1.02658185517241
  N   1.12061541273230     -1.25216571893561      0.28462081369694
  H   2.13187186932472     -1.25948630761822      0.28100760539631
  H   0.81350894136129     -1.61839197462498      1.17661488637897
