11
Coordinates from ORCA-job run
  C   -0.89849811276412     -0.01205687482132     -0.45257464205320
  C   0.29076505739436     -0.70360774192822      0.21477645343116
  Cl  -2.40626966443991     -0.91964143411274     -0.14704320454816
  H   0.07985412082011     -0.80423484584481      1.28733278230671
  H   -0.73807306636362      0.01029413005412     -1.53099474492836
  H   0.36306855893913     -1.70836247663970     -0.20690046278872
  C   -1.02982051167896      1.35738105634361      0.03699291818797
  N   -1.08014985416722      2.45084034861230      0.46165448332600
  N   1.49034675628648      0.04792682747444     -0.11867437117273
  H   2.30947857620845     -0.54142235731586     -0.06330377080462
  H   1.61829813976530      0.82188336817817      0.52073455904394
