11
Coordinates from ORCA-job run
  C   -0.87436829068188      0.16528012042999     -0.06537779969976
  C   0.63374068165240     -0.05602119727824     -0.13306236913066
  Cl  -1.37034034047855      0.57833500890094      1.60569973327003
  H   0.88583924463001     -0.22680764168058     -1.18372158159926
  H   -1.37949478174132     -0.76925972478305     -0.31530865275211
  H   1.13340826949417      0.86801556460919      0.18860572477533
  C   -1.29725022893539      1.22344512894923     -0.97714514827944
  N   -1.59851283825146      2.06576468594845     -1.73745556696613
  N   0.97903039134671     -1.24711409455967      0.62570658137126
  H   0.98144262441137     -1.04211350349922      1.61670473383558
  H   1.90750526855395     -1.55952434703704      0.37435434517517
