11
Coordinates from ORCA-job run
  C   -0.85343720643924      0.05551712795915     -0.24042061467477
  C   0.64916595854309      0.07337479055099      0.02134239859651
  Cl  -1.75467576174416     -0.07817800418485      1.30246814179174
  H   0.87907768653603      0.93271070398298      0.66608374306845
  H   -1.09901871890755     -0.83587854620521     -0.82011840966515
  H   1.14086022612572      0.23483028105909     -0.94246540412860
  C   -1.28588369751321      1.25196650317038     -0.95542686342400
  N   -1.61584017093827      2.20307862016275     -1.55942206328451
  N   1.06155555518554     -1.22108574391079      0.53984225823035
  H   0.81210334185500     -1.30105381626108      1.51740657971750
  H   2.06609278729704     -1.31628191632341      0.47071023377249
