11
Coordinates from ORCA-job run
  C   -1.00072690371915     -0.06207889711495     -0.25468402444319
  C   0.35780596748265     -0.72608018372267     -0.01893327567521
  Cl  -1.97422654311179     -0.02730489203987      1.23851753078987
  H   0.79745048504210     -0.91218988164769     -1.01087470585249
  H   -1.57359290086421     -0.63505185810269     -0.98799207813147
  H   0.16967559501000     -1.69551390993164      0.44738545036739
  C   -0.81906685166047      1.29454570777827     -0.76568692063827
  N   -0.64704670329186      2.36325764961820     -1.22013692627760
  N   1.17209958352223      0.08514216531948      0.86276094626014
  H   1.67416506737107      0.79455481262963      0.34574969035589
  H   1.84246320421944     -0.47928071278607      1.36389431324495
