17
Coordinates from ORCA-job run
  C   -0.43030216199749      0.00850802148528      0.35725331238040
  C   0.94595667983341      0.09988290566752     -0.33641612580825
  Cl  -0.56172715889347      1.33671429355315      1.55272038158473
  H   1.01509395891009     -0.72229177591805     -1.05447409736363
  C   -1.56830747031564      0.13946214103802     -0.64361500236886
  H   -2.51487867533803     -0.01171630694506     -0.12230222700190
  H   -1.47221482562666     -0.61604283688920     -1.42800843918195
  H   -1.58954463328272      1.12263222923836     -1.11202890764185
  C   -0.49876798552994     -1.31709533386783      1.10473709834023
  H   -0.40304175110759     -2.15033560783799      0.40180729864662
  H   -1.46357545584793     -1.39750903526668      1.60785456861418
  H   0.28674977602406     -1.39243691500132      1.85800096993582
  C   2.05875139095528      0.03116779702627      0.60193587967527
  N   2.95156645898778     -0.08428885664515      1.35572182295038
  N   1.06504729953839      1.35114170346723     -1.17450363088479
  O   0.62902328995431      1.25630092093648     -2.31894488522086
  O   1.55017126373616      2.34690665595899     -0.65273801665555
