17
Coordinates from ORCA-job run
  C   -0.44122397455182     -0.03295058605186      0.34318235688552
  C   0.95590438271192      0.13739029954634     -0.29119240538146
  Cl  -0.61318291309751      1.14492289059172      1.68227906525548
  H   1.04979760292142     -0.59625038407157     -1.09706020843102
  C   -1.54708532770516      0.21681832789449     -0.67108815094669
  H   -2.50948680791740      0.00511007237122     -0.20248672307763
  H   -1.42326112175378     -0.43999346205826     -1.53629546583854
  H   -1.55662817849712      1.24874388468410     -1.01967786759754
  C   -0.53050733677026     -1.43746707296554      0.92590573267446
  H   0.23335452076405     -1.60475502714543      1.68645530204311
  H   -0.41567835873797     -2.18137111290722      0.13176797300206
  H   -1.50896309048123     -1.57401208018520      1.38894994427755
  C   2.03955886061425     -0.04082186819654      0.66663160965288
  N   2.91051973247060     -0.24411267804161      1.42744454516652
  N   1.09754610991971      1.47719854225913     -0.97449356024052
  O   1.55983850779576      2.40611839067324     -0.32441969600886
  O   0.69949739231454      1.51543186360299     -2.13590245143533
