17
Coordinates from ORCA-job run
  C   -0.50644234691976     -0.39185475974357     -0.24964851230585
  C   0.73764676814221      0.36855575281362     -0.76424426030723
  Cl  -1.01659179633044     -1.39046629179762     -1.65959919046673
  H   0.48397298022522      0.88889687634203     -1.68931030883250
  C   -0.19768375535736     -1.32395975956921      0.90803273066428
  H   0.56681395880162     -2.05317312348407      0.63747553603845
  H   0.15162676124823     -0.75383717441055      1.77077761814410
  H   -1.10574576125879     -1.86249680192952      1.18453952159000
  C   -1.62653475108609      0.58227484800002      0.07908559164404
  H   -1.81421534133007      1.27032277728450     -0.74702802076770
  H   -2.54089789641673      0.02258635718253      0.28102333646331
  H   -1.37796426770069      1.16364319534432      0.97038250281391
  C   1.89369764825425     -0.49561848139177     -0.96646552894218
  N   2.82022573075149     -1.19598762067365     -1.13874458299458
  N   1.10386599213493      1.45836642428026      0.21906019048441
  O   0.71356586551251      2.58708913752470     -0.06295526621470
  O   1.71566021132945      1.12465864422800      1.22861864298896
