17
Coordinates from ORCA-job run
  C   -0.61938581112310      0.25284670221984      0.15747707851362
  C   0.78459880748353      0.77181800578695     -0.23177711755412
  Cl  -1.66419487239697      1.71697310362180      0.06073930768143
  H   1.04111859974729      1.62315460626546      0.40091723105254
  C   -1.16012856827119     -0.78397074401446     -0.81050831353015
  H   -0.52565696532504     -1.67217181122719     -0.80720388924332
  H   -2.16781652832145     -1.06855327142231     -0.50281733281742
  H   -1.20782494041044     -0.39151521048226     -1.82699836736342
  C   -0.62221966349562     -0.24509337627619      1.59417089251101
  H   -0.19667247007090      0.49388462610709      2.27526414419052
  H   -0.04851478673654     -1.17135098396846      1.67831759018749
  H   -1.64899948292643     -0.45040177178802      1.90042662709308
  C   0.89073198120022      1.13375514357707     -1.63947445218594
  N   0.97008874985882      1.43775156719807     -2.77090993410353
  N   1.81743465418695     -0.28680144880986      0.08515292809874
  O   1.93208455517218     -1.21741350342016     -0.70574018325830
  O   2.42435674142869     -0.14291163336736      1.14196379072776
