17
Coordinates from ORCA-job run
  C   -0.32940517108945     -0.42206336812221      0.16407790326209
  C   0.71951417697729      0.48576227003369     -0.51350122738675
  Cl  0.35730650484101     -2.06819062674485      0.33431359147340
  H   0.28077373849523      1.48190909564082     -0.62153296058785
  C   -0.70434678763177      0.09497782347809      1.54463090138703
  H   0.13702551230308      0.06166325660918      2.23560588855762
  H   -1.50398658131382     -0.52759913018635      1.94910171960358
  H   -1.05875949937994      1.12718866890213      1.47945733463468
  C   -1.54718354848774     -0.50299387980529     -0.74750363587390
  H   -2.29787473722588     -1.14885310773355     -0.28947493908222
  H   -1.28977360512373     -0.91708608345305     -1.72339008142836
  H   -1.98166335292731      0.49213608276638     -0.88314395447227
  C   1.14333629989119     -0.01086153277826     -1.81628180373333
  N   1.43776462842705     -0.38097979030887     -2.89099964299879
  N   1.92833490191887      0.69348541934764      0.36836343497556
  O   1.83295854032393      1.61359331969418      1.17650323454054
  O   2.87497898000199     -0.07108841733968      0.23277423712898
