17
Coordinates from ORCA-job run
  C   -0.64562915197058      0.13718927588738      0.19091853149838
  C   0.63326398431912      0.90244838977042     -0.22246905453275
  Cl  -1.92488048582561      1.40530779293903      0.19778203755963
  H   0.76936815303606      1.75848861475500      0.44049407408958
  C   -1.04446262546482     -0.93729916254074     -0.80450684208520
  H   -0.27094693470569     -1.70521857243205     -0.86304149761854
  H   -1.97702423268977     -1.39947107379521     -0.47620981344054
  H   -1.19836342994270     -0.51900501337658     -1.79992027268773
  C   -0.50424683509435     -0.41031489382030      1.60226074733140
  H   0.22047396322916     -1.22797333897280      1.62355680514782
  H   -1.46794041456172     -0.79928877268743      1.93411254770941
  H   -0.18090556839773      0.36279851604992      2.30148886313046
  C   0.61642740546027      1.33407107192150     -1.61442444981136
  N   0.59481421011072      1.69167666637852     -2.73267446091987
  N   1.84210307021377      0.02312260109090      0.00680445233219
  O   2.07718094480152     -0.84179705546769     -0.83068995143070
  O   2.46176794748234      0.22526495430013      1.04651828372782
