17
Coordinates from ORCA-job run
  C   -0.62223934196003      0.25522523622398      0.14459139112556
  C   0.76120716725380      0.75743694546907     -0.32942206005220
  Cl  -1.70014919660090      1.68068957983029     -0.08019892620153
  H   1.01246718840162      1.67526244465995      0.20474491233602
  C   -1.16161268795014     -0.88793017851100     -0.69602289081982
  H   -2.15648225389095     -1.15672700917100     -0.33677667608937
  H   -1.23859987555464     -0.60582717896557     -1.74673426357644
  H   -0.50903669869826     -1.75908624078580     -0.61415859376788
  C   -0.58221133566178     -0.08801162758921      1.62529345111724
  H   -1.59663493991159     -0.28291719547916      1.97616955077156
  H   -0.16078091632214      0.72859329559106      2.21412080611617
  H   0.01597972870283     -0.98702285693053      1.79316303182597
  C   0.83105251212191      0.97197432683197     -1.76925769955679
  N   0.88490108910864      1.15879731877667     -2.92734977578553
  N   1.82459792970327     -0.24086663267115      0.07162044875203
  O   2.46110348590736      0.03228485163050      1.08448638443461
  O   1.93543814535096     -1.25187507891008     -0.61426909062957
