17
Coordinates from ORCA-job run
  C   -0.57511843277410      0.14642235905839      0.23880217063678
  C   0.65716715046390      0.64954529984428     -0.54462342348544
  Cl  -1.23826152993121      1.57076429574199      1.10910809504616
  H   0.35551844197127      1.47109862233092     -1.19783625249591
  C   -1.61677158388688     -0.32053523587349     -0.77018457122741
  H   -1.84468214640515      0.46316025342692     -1.49595182055226
  H   -1.26197086063904     -1.20805416494701     -1.30015017688978
  H   -2.53776619619215     -0.57656682134580     -0.24408492970478
  C   -0.25395991306118     -0.94124877928853      1.24943485155505
  H   0.20167657120386     -1.79898202572233      0.74797256451490
  H   -1.18261665328668     -1.26531733398003      1.72255861570466
  H   0.42563131611039     -0.59036359967947      2.02365163631848
  C   1.25814943388310     -0.43020425666369     -1.31969191648594
  N   1.70166939301809     -1.31053352640108     -1.95840088411776
  N   1.71698367272055      1.23660001887679      0.35952547590959
  O   1.81328864104285      2.45818373735536      0.35688876857730
  O   2.38006269576237      0.44603115726679      1.02298179669637
