17
Coordinates from ORCA-job run
  C   -0.57164459241909      0.14400002103831      0.24832000616425
  C   0.64331006358809      0.64990184917357     -0.55999441206398
  Cl  -1.22743297981948      1.56937847919186      1.12269744992177
  H   0.32521587136234      1.46615207399724     -1.21202761154948
  C   -1.62856857660081     -0.33451076528846     -0.73901492667694
  H   -1.27582831557088     -1.21842792520873     -1.27546484666922
  H   -1.87884066625714      0.44619764056344     -1.46005651993394
  H   -2.53627961261459     -0.59942943252675     -0.19499828633852
  C   -0.22541552978454     -0.93571028723854      1.25925758494365
  H   -1.14251032320894     -1.25888421857490      1.75493443609306
  H   0.22135641802604     -1.79585277200732      0.75387999549381
  H   0.46994502665244     -0.57755374430227      2.01591805297799
  C   1.23690055823009     -0.43054626021575     -1.33975255133374
  N   1.67463406326026     -1.31068288572959     -1.98272211391361
  N   1.71578767921591      1.24878168771600      0.32146721077750
  O   1.80258739085713      2.47110909652265      0.31151290428604
  O   2.39778352508317      0.46607744288924      0.97504362782137
