17
Coordinates from ORCA-job run
  C   -0.64234166978576      0.20299283043132      0.13303421578100
  C   0.68003809773751      0.79983821681931     -0.40261476118501
  Cl  -1.86057098741805      1.48923408672614     -0.19275962200428
  H   0.84160416256310      1.77918219690999      0.05090069912259
  C   -1.06880717213348     -1.05504987736978     -0.60172749673258
  H   -2.02999235170878     -1.38990884715835     -0.20804138946705
  H   -1.17900140894820     -0.87211587847543     -1.67122355768827
  H   -0.33207968813436     -1.84704915603845     -0.45571458263390
  C   -0.55875798231603     -0.00917161646469      1.63627278917185
  H   -1.54666189620637     -0.27308496942197      2.01642549787924
  H   0.12712163474860     -0.82730749801004      1.86935004645952
  H   -0.21723351927636      0.89150684167961      2.14935884418158
  C   0.71401258175187      0.90210002004800     -1.85611377745521
  N   0.73368118330402      0.99853478822332     -3.02625485689680
  N   1.84053294148675     -0.05149249983367      0.06095606352234
  O   2.05168932102970     -1.09607527121492     -0.54635496662985
  O   2.44676675330583      0.35986663314960      1.04550685457482
