17
Coordinates from ORCA-job run
  C   -0.57276262416121      0.14182972486877      0.24976999193256
  C   0.63661743474212      0.64889361848475     -0.56555627907040
  Cl  -1.23570355916387      1.56929165832764      1.11537927290706
  H   0.31150667547008      1.45754402105926     -1.22359492364187
  C   -1.62891601053974     -0.35077307088642     -0.73155324964496
  H   -1.88229990647310      0.42109181445630     -1.46148313382295
  H   -2.53531294250617     -0.61261246086887     -0.18349500983724
  H   -1.27337327526840     -1.23976555319238     -1.25858796419664
  C   -0.21762959425222     -0.92868071464704      1.26734724852024
  H   0.47179157768290     -0.55924319808589      2.02405375861552
  H   0.24026774370823     -1.78637402996711      0.76775746154517
  H   -1.13261424665145     -1.25936681285040      1.76203129814330
  C   1.23627023990629     -0.43283351735015     -1.33884929384971
  N   1.69414255353205     -1.29863040737510     -1.98718089541926
  N   1.70738075526460      1.26120881016001      0.30886883549356
  O   2.39194316273807      0.48781170551387      0.97074744119675
  O   1.78969201597183      2.48360841235277      0.28634544112890
