17
Coordinates from ORCA-job run
  C   -0.57415203080996      0.15076905924847      0.23901716921692
  C   0.65328792455753      0.63866517205593     -0.56122558199898
  Cl  -1.23400313279980      1.59195736598337      1.08355449919654
  H   0.34754039570645      1.44606468119697     -1.22998234495511
  C   -1.62062510228672     -0.33771790260989     -0.75463884190475
  H   -1.85398829921184      0.43118650906370     -1.49430246409254
  H   -1.26722576238533     -1.23477199878222     -1.26916103621027
  H   -2.53826266403252     -0.58501358656530     -0.21868582553597
  C   -0.24621398989394     -0.91566815406464      1.26993959715661
  H   0.43745003301107     -0.54824962482695      2.03285024581073
  H   0.20744305573323     -1.78315582691143      0.78368191282037
  H   -1.17179382168187     -1.23070558910766      1.75503280609970
  C   1.25163134544250     -0.45605063515814     -1.31714771484191
  N   1.69357645354282     -1.34795541778948     -1.94071934535485
  N   1.71758648077691      1.24568460673585      0.32456615814357
  O   1.81219436639270      2.46710303956273      0.29585828407489
  O   2.38555474793877      0.46985830196870      1.00036248237503
