12
Coordinates from ORCA-job run
  C   -0.29302065059145      0.20290244095642      0.12093054028817
  C   0.63665485356514     -0.71898215844429     -0.23898078281313
  H   0.32695726088068     -1.75285751952298     -0.37221909567237
  C   -1.74062720361117     -0.12879171036578      0.36506391936448
  H   -2.39631491407290      0.45541333855347     -0.28594292455091
  H   -2.02749777772089      0.08037103739011      1.39931902441121
  H   -1.92196758675960     -1.18833713047761      0.17115818223678
  C   0.13841696522017      1.55369119965003      0.27392845402621
  N   0.53694081208444      2.65789114942319      0.37763209033108
  N   1.98649033974562     -0.50177346332993     -0.37304843998885
  H   2.27809326150469      0.46251541383557     -0.44200539424032
  H   2.47587463975527     -1.12204259766821     -0.99583557339234
