12
Coordinates from ORCA-job run
  C   -0.08457517973567      0.56625691741145      0.20645849801572
  C   1.06419337653185      0.03515219912655     -0.28155448451524
  H   1.95480351633345      0.65031439104404     -0.37334152036112
  C   -1.33588722737462     -0.25704885522497      0.38438251936468
  H   -1.12852560185651     -1.15414897977130      0.97664165026172
  H   -2.10875560799571      0.31223250024174      0.89978692078977
  H   -1.74738899557004     -0.57497947541449     -0.58029559024563
  C   -0.09766041740786      1.94638695056906      0.55761254811222
  N   -0.13712967047160      3.08588139534165      0.85207677571196
  N   1.23084470464901     -1.29143359001107     -0.60624650337213
  H   1.99651151672602     -1.50126330164565     -1.22393912699323
  H   0.39456958617168     -1.81435015166703     -0.81258168676870
