12
Coordinates from ORCA-job run
  C   -0.29784200489607      0.18028917187867      0.13976438191548
  C   0.63713980545103     -0.66701047717588     -0.36145771642747
  H   0.31227562410703     -1.60420221875864     -0.80748842750976
  C   -1.77443758382615     -0.11030559529744      0.13004646960636
  H   -2.32770184831492      0.66653613735804     -0.40414422253257
  H   -2.17518277017413     -0.16433336027299      1.14583518770074
  H   -1.96745240883375     -1.06616678379377     -0.36187009135917
  C   0.15561044782500      1.40811141887092      0.70703872082084
  N   0.57033493947931      2.41486760011353      1.15759225913609
  N   2.00015764296435     -0.50940251800108     -0.28640036111527
  H   2.32907262342014      0.41669486457663     -0.05421111291584
  H   2.53802553279815     -0.96407823949799     -1.00470508731943
