12
Coordinates from ORCA-job run
  C   -0.29166620558565      0.20407868425057      0.11888218913165
  C   0.59304448413378     -0.68683367576127     -0.39768305038328
  H   0.26342135575215     -1.70545707569065     -0.58861008539274
  C   -1.72327500743258     -0.13388416098834      0.43614742568903
  H   -1.94802466577704      0.04292613777961      1.49122537138245
  H   -1.91949858719104     -1.18573037265418      0.21704422506680
  H   -2.41534769379186      0.47040282319636     -0.15648554982939
  C   0.17317306507528      1.52909370313092      0.37062286306186
  N   0.59948591272540      2.60893261563687      0.57247499544723
  N   1.87700220588184     -0.41383775827922     -0.80434256401573
  H   2.52044592403926     -1.18682577995927     -0.78533962369233
  H   2.27223921217044      0.45513485933859     -0.47493619646556
