12
Coordinates from ORCA-job run
  C   -0.15930009774273      0.58688131123068     -0.02220704732644
  C   1.01572198250805      0.04072199038600     -0.42381627557413
  H   1.81352048316486      0.67531696097351     -0.79919152988157
  C   -1.30676415186698     -0.25660151856892      0.47470644016261
  H   -1.55407991992610     -1.04031205077604     -0.24866994478652
  H   -1.06599775330364     -0.73914918199249      1.42887015699501
  H   -2.19925464146652      0.34913127284406      0.62891160738865
  C   -0.30072503336796      2.00303958288371     -0.07374472618021
  N   -0.44250542727443      3.17175695282004     -0.10205876838732
  N   1.26663718738671     -1.31093053735232     -0.47667959402515
  H   0.69797248802917     -1.90052239081081      0.10992569477934
  H   2.23577488385957     -1.57933239163740     -0.49604601316427
