12
Coordinates from ORCA-job run
  C   -0.29438114778851      0.18562077113254      0.14094695546200
  C   0.62063915946478     -0.67412096353886     -0.37602575724629
  H   0.27372002462778     -1.58704683469786     -0.85386479360075
  C   -1.77864646488095     -0.06050423121493      0.10649966000882
  H   -2.30348159851028      0.74883410723504     -0.40770683810139
  H   -1.99340732375013     -0.99421310982747     -0.41788368778390
  H   -2.19267792495319     -0.13596157045394      1.11557900039997
  C   0.18963065932169      1.38094005085172      0.75050468747449
  N   0.62997068531791      2.35975590625552      1.23688709769166
  N   1.98657432695671     -0.56107694979444     -0.28002526866395
  H   2.34152994571418      0.34458355833945     -0.00811824293595
  H   2.52052965848001     -1.00681073428678     -1.00679281270471
