12
Coordinates from ORCA-job run
  C   -0.30230178740614      0.17910972111017      0.13293766895489
  C   0.63777508674696     -0.56036652074885     -0.50963207522434
  H   0.31730168940057     -1.39899797825945     -1.12328927431155
  C   -1.78003978602597     -0.08761988709031      0.03418818108862
  H   -2.21472649255428     -0.28418295038104      1.01766170034391
  H   -1.96390666008373     -0.95735179856802     -0.60040112157743
  H   -2.30976067183306      0.76559834797169     -0.39798413603972
  C   0.14715483179754      1.26563842953146      0.94046965509094
  N   0.56103765631507      2.14820914930538      1.60260157791351
  N   1.98765375281193     -0.30512297313572     -0.54642698574633
  H   2.58338851706449     -1.10091664621813     -0.70032406643918
  H   2.33742386376663      0.33800310648283      0.14919887594669
