12
Coordinates from ORCA-job run
  C   -0.16686371438511      0.58309809440449     -0.04129622462686
  C   1.04616708478532      0.05363889860900     -0.33876010363272
  H   1.83651710035859      0.68562830404152     -0.73381701492598
  C   -1.28365952838344     -0.24615197217055      0.54154612394232
  H   -2.12558629353150      0.38170083674111      0.83190439792617
  H   -0.94344410203789     -0.78354063587196      1.43254839673956
  H   -1.65491360707003     -0.98393236123651     -0.17890524585494
  C   -0.38059873951276      1.96848237773015     -0.29320577458194
  N   -0.58490502619342      3.11064000520293     -0.49476110494069
  N   1.40574108924159     -1.25204737002995     -0.09645292713282
  H   2.19403303370617     -1.59724922150199     -0.61712940903515
  H   0.65651270302246     -1.92026695591824     -0.01167111387695
