12
Coordinates from ORCA-job run
  C   -0.29281313411726      0.20493218970204      0.11461911178811
  C   0.64403431689630     -0.72359808534861     -0.20773824836043
  H   0.35764608689143     -1.77225821005891     -0.23841183436874
  C   -1.71773473180480     -0.13495180615102      0.45882760565427
  H   -1.96282048609352      0.16947788432312      1.47988238752355
  H   -2.41906462693534      0.36521257187002     -0.21411590076290
  H   -1.87782299486614     -1.21249105730123      0.37975771933259
  C   0.11086635205990      1.57302987185031      0.13253230491283
  N   0.48327274744452      2.69103329836586      0.12701974207272
  N   1.98044807058202     -0.48703518907521     -0.42418609036866
  H   2.45589189183342     -1.14668144145470     -1.01634538418735
  H   2.23909650810948      0.47432997327834     -0.59384141323601
