12
Coordinates from ORCA-job run
  C   -0.15271949624792      0.58550811497966      0.06271117706307
  C   1.03579696122011      0.08868711036271     -0.36257373603519
  H   1.85671944862438      0.76112364547718     -0.59512386844464
  C   -1.33193342682667     -0.30507104916831      0.36478209295906
  H   -2.22608389538927      0.28494036675420      0.56442306388538
  H   -1.54710100827602     -0.96385868026038     -0.48275890494077
  H   -1.14720449497715     -0.93271923983999      1.24387588826778
  C   -0.27733762782899      1.99440830345780      0.22789262098192
  N   -0.40616413661462      3.15557533762773      0.37590962287701
  N   1.27718696966718     -1.24190591870087     -0.61429634849520
  H   2.24351949108457     -1.52007220134852     -0.63190823825574
  H   0.67532121556438     -1.90661578934120     -0.15493336986266
