12
Coordinates from ORCA-job run
  C   -0.08153989229216      0.56898015078255      0.19917582485396
  C   1.09385874483342     -0.02538881492020     -0.12527057417923
  H   2.03015887766788      0.51129508361564     -0.00159044814907
  C   -1.40841934664072     -0.12314805525166      0.01144164242385
  H   -1.51468813878460     -0.97814711307468      0.68870447147827
  H   -1.51314278532822     -0.48851296693417     -1.01520351731434
  H   -2.23593986975218      0.55742916919895      0.20949486524803
  C   -0.04833906079761      1.88862441205802      0.73370014702960
  N   -0.04898412269309      2.97781621160180      1.18129287069682
  N   1.20218728725388     -1.27074472277315     -0.70049202425806
  H   2.09866878101173     -1.71893774925966     -0.61506438544732
  H   0.42617952552168     -1.89926560504343     -0.56618887238250
