12
Coordinates from ORCA-job run
  C   -0.17159532313600      0.58339338251883     -0.01118033501481
  C   0.98751114421723      0.06102690713009     -0.48374374490615
  H   1.74832883834881      0.71160603842640     -0.90573876874813
  C   -1.27101874413526     -0.28287781106451      0.55096409277909
  H   -1.54415396905325     -1.07084259316666     -0.15830112065935
  H   -2.16479101191733      0.30498782931285      0.75795194298319
  H   -0.96551488089256     -0.76124577993994      1.48838738306172
  C   -0.34488888734729      1.99638984747566     -0.05163518211258
  N   -0.51265812301905      3.16181133576199     -0.06892405635817
  N   1.26145367621403     -1.28566587778894     -0.55465973037329
  H   2.23329254712239     -1.53363564372929     -0.63103897619220
  H   0.74303473359829     -1.88494763493647      0.06791849554067
