12
Coordinates from ORCA-job run
  C   -0.10638083489461      0.59668252251297      0.05329759187320
  C   1.05151745691335      0.00208255826938     -0.32892140537018
  H   1.90743160261177      0.60603049898043     -0.61645011960560
  C   -1.30872151703262     -0.20045076322348      0.49447995655146
  H   -1.04067436155734     -0.89690059368234      1.29541825996195
  H   -1.73124932122019     -0.78079463552314     -0.33347029375394
  H   -2.09386829284369      0.45457980158624      0.87083349029539
  C   -0.17547977554569      2.01904029503532      0.03953782312115
  N   -0.26229095290387      3.19334470852983      0.03513192110714
  N   1.27236336149425     -1.35519676883463     -0.30629371000914
  H   0.45786112657073     -1.94771976161255     -0.32599407374996
  H   2.02849150840790     -1.69169786203805     -0.87756944042146
