12
Coordinates from ORCA-job run
  C   -0.30899487562914      0.19522799962302      0.08360493318280
  C   0.66072736826111     -0.70200285790868     -0.22927613482359
  H   0.47267058993972     -1.75954865330623     -0.05925700669144
  C   -1.65037387642388     -0.19166141714690      0.64538018484331
  H   -1.69794923461774     -1.27216349091946      0.79742408480965
  H   -1.83335787080634      0.29685807520327      1.60593489485994
  H   -2.46137847918109      0.09180855283498     -0.03080486810921
  C   -0.03158118891242      1.57653905302763     -0.13992020217713
  N   0.24062548547191      2.70714879630117     -0.33003940613215
  N   1.85865712724674     -0.42377435223530     -0.84273458216807
  H   2.61086145919857     -1.06445155585037     -0.65329318334764
  H   2.14009349545255      0.54601985037688     -0.84801871424647
