12
Coordinates from ORCA-job run
  C   -0.28229298573694      0.15210009466917      0.19489575637112
  C   0.60595393404811     -0.60159995174738     -0.50263361172656
  H   0.26022437001437     -1.51722742133248     -0.97675759678585
  C   -1.73092855624586     -0.21650818389306      0.36816154118673
  H   -1.97801735074348     -0.37074050318596      1.42200071255364
  H   -2.38823485313520      0.56830222804117     -0.01502443287955
  H   -1.95189681156535     -1.14064883322043     -0.17033636178001
  C   0.19690867129889      1.35451452213991      0.79453515752414
  N   0.63126784091013      2.34397531993145      1.26446219781389
  N   1.95788547089934     -0.37665093790189     -0.60548621756044
  H   2.27491237535244      0.54654647119463     -0.34606362885583
  H   2.40421789490355     -0.74206280469511     -1.42975351586128
