12
Coordinates from ORCA-job run
  C   -0.10125647968806      0.58462590738020      0.11920082999237
  C   1.08543990159608     -0.00120811823324     -0.17769331316813
  H   1.99998098970468      0.58501737196438     -0.16897176812720
  C   -1.40676663508249     -0.16957489105932      0.08472154531269
  H   -1.47709056508650     -0.77653700613999     -0.82337482981356
  H   -2.25209029779869      0.51852406498332      0.08985183670674
  H   -1.51452075628032     -0.83308047208572      0.95015089346043
  C   -0.09985709316773      1.95601423603648      0.50404468390437
  N   -0.12778912418031      3.08587503652664      0.83486902030041
  N   1.23094520032268     -1.30688259245233     -0.58875889388955
  H   2.15666623713528     -1.69152372123509     -0.50702347888002
  H   0.50533862252536     -1.95024981568534     -0.31601652579855
