12
Coordinates from ORCA-job run
  C   -0.29645969489932      0.19003701101958      0.12734429825766
  C   0.61870909298244     -0.61007740175537     -0.47737330101317
  H   0.27634365752805     -1.50476007831203     -0.99212288249117
  C   -1.77691250278890     -0.08018937681999      0.11333898445365
  H   -1.98494060912141     -1.01249627337448     -0.41621427694459
  H   -2.17441425295625     -0.16713153518365      1.12778797733333
  H   -2.32185681801946      0.72359063495549     -0.38878071177937
  C   0.18120024779616      1.35052064371673      0.80564503882607
  N   0.61486722571250      2.29376678599555      1.36327406711877
  N   1.96541951792333     -0.36082575032407     -0.59366545226872
  H   2.34019500127024      0.34751318324168      0.02082097398567
  H   2.55684913457262     -1.16894784315944     -0.69005471547814
