12
Coordinates from ORCA-job run
  C   -0.30362672785734      0.18173560067670      0.12469824910681
  C   0.64176592348406     -0.57846141265358     -0.48492544054390
  H   0.32867488270217     -1.44974192086479     -1.05547416325441
  C   -1.77919104757889     -0.10293928506755      0.04457251699657
  H   -2.31693574266906      0.71996671064802     -0.43378252803280
  H   -1.95709989187216     -1.00857832381235     -0.53932752078882
  H   -2.20996178731985     -0.24719869487526      1.03880257140605
  C   0.13728715607152      1.31070081071704      0.87711152330637
  N   0.54390932156290      2.22765226615923      1.49556340294020
  N   1.98891434075446     -0.31126009252054     -0.53836583688105
  H   2.33364198793070      0.36652915525343      0.12625902095008
  H   2.59162158479151     -1.10840481366035     -0.65513179520508
