12
Coordinates from ORCA-job run
  C   -0.17370805168666      0.58046335834186     -0.06106143131843
  C   0.99062680809704      0.02657740738648     -0.48245333539224
  H   1.75070589562977      0.64347901802478     -0.95385258084184
  C   -1.27248749857780     -0.24380639129231      0.56287292178346
  H   -0.97792404571158     -0.62887201602244      1.54576558796492
  H   -2.17630931553617      0.34931267128284      0.69984675324837
  H   -1.52585248928385     -1.09684139628739     -0.07497204667185
  C   -0.35208013434940      1.98534520097930     -0.20925065893349
  N   -0.52297485016285      3.14603266470129     -0.31011956562906
  N   1.26888158944988     -1.32019746617791     -0.44290965246785
  H   2.24126729477666     -1.57161959685505     -0.49733279552057
  H   0.74985479735493     -1.86987345408144      0.22346680377859
