17

C	-0.620372	0.015273	-1.387009
C	0.0	0.0	0.0
F	-0.2669	1.073	-2.156705
H	1.087786	0.0	0.0
N	0.000295	-1.203723	-2.151691
O	-0.713636	-2.196649	-2.292362
O	1.148687	-1.075774	-2.555519
N	-2.026789	-0.073487	-1.334664
H	-2.254747	-0.898841	-0.794916
H	-2.398303	-0.191489	-2.270015
N	-0.424403	-1.193835	0.678316
H	-1.073636	-0.937402	1.411687
H	0.406214	-1.579074	1.119692
N	-0.397588	1.234645	0.713637
O	-0.982783	1.127117	1.802372
O	-0.054979	2.30692	0.213574
H	2.578375	0.0	0.0
