17

C	-0.542255	-0.045441	-1.418911
C	0.0	0.0	0.0
F	-0.129177	1.097461	-2.081007
H	1.08646	0.0	0.0
N	0.09906	-1.187541	-2.204844
O	-0.230402	-1.238015	-3.389771
O	0.854489	-1.959482	-1.633616
N	-1.931145	-0.265599	-1.53586
H	-2.405884	0.449335	-0.997106
H	-2.18636	-0.222932	-2.515055
N	-0.469445	-1.043104	0.85365
H	-1.277836	-1.510483	0.467786
H	0.29526	-1.693832	0.984924
N	-0.469138	1.320669	0.591885
O	0.357669	2.047172	1.121957
O	-1.684626	1.562568	0.558058
H	2.780758	0.0	0.0
