17

C	-0.711811	-0.063852	-1.33376
C	0.0	0.0	0.0
F	-2.082629	0.120439	-1.122138
H	1.089221	0.0	0.0
N	-0.320473	1.046059	-2.311392
O	-1.217484	1.535742	-2.99147
O	0.872601	1.284244	-2.399247
N	-0.446211	-1.277794	-1.984201
H	-1.158995	-1.459427	-2.678117
H	-0.428867	-2.001017	-1.27296
N	-0.268829	-1.206835	0.738234
H	0.588496	-1.416255	1.246547
H	-1.009894	-1.055593	1.410018
N	-0.398054	1.212251	0.712743
O	-0.517652	2.252347	0.054081
O	-0.475983	1.159783	1.948376
H	2.475097	0.0	0.0
