17

C	-0.267162	-0.129968	-1.513352
C	0.0	0.0	0.0
F	-0.148191	-1.459619	-1.806373
H	1.091617	0.0	0.0
N	-1.731431	0.214743	-1.804343
O	-2.566088	-0.627958	-1.475236
O	-1.980929	1.325125	-2.265836
N	0.578838	0.604355	-2.370252
H	1.521385	0.476495	-1.980922
H	0.360268	1.58692	-2.26206
N	-0.483775	-1.026713	0.846047
H	-1.356983	-1.421373	0.524023
H	0.228041	-1.742755	0.902565
N	-0.470503	1.343353	0.443048
O	-1.334034	1.422534	1.318578
O	0.051801	2.319563	-0.107695
H	2.64283	0.0	0.0
