17

C	-0.248224	-0.04391	-1.511124
C	0.0	0.0	0.0
F	-0.273279	-1.411267	-1.880842
H	1.091926	0.0	0.0
N	-1.67517	0.341156	-1.932626
O	-2.562396	0.148454	-1.103054
O	-1.846755	0.731812	-3.084245
N	0.679059	0.701049	-2.195757
H	1.596448	0.617909	-1.742099
H	0.683096	0.518192	-3.187433
N	-0.464225	-1.087516	0.778601
H	0.222598	-1.826309	0.730701
H	-1.368294	-1.420599	0.480548
N	-0.472001	1.307365	0.555101
O	0.024277	2.323877	0.065417
O	-1.29827	1.300272	1.466105
H	2.683695	0.0	0.0
