13
Coordinates from ORCA-job run
  C   -0.85082590949410      0.09402796305869     -0.51732919903491
  C   0.63288114345718      0.43925845547157     -0.33219397343568
  F   -1.49222614942296      1.32883982320107     -0.68889567475405
  H   0.98579566733079      1.00367769020929     -1.19746219704322
  H   -0.97444852408227     -0.46031607853096     -1.44768127312302
  N   -1.31930512477361     -0.66250210873902      0.56680235904865
  H   -1.30421243094350     -0.14753593274677      1.43838139106880
  H   -2.24071936593762     -1.04190182330244      0.40282475538202
  N   1.40320257076560     -0.85993025206622     -0.32776482955255
  O   1.38121850715847     -1.46024553075609     -1.39662277566585
  O   1.95065763975554     -1.21386731316138      0.70597529694500
  C   0.85356332573127      1.18280883268464      0.90013454216325
  N   0.97341865045522      1.79768627467763      1.89283157800156
