13
Coordinates from ORCA-job run
  C   -0.85857730770805      0.32500966885084      0.21365097866918
  C   0.52089834360719      0.27963936639299     -0.46602304394459
  F   -0.59871764710570      0.29133078035856      1.59313215101705
  H   0.39402377073866      0.04046140466977     -1.52418897404702
  H   -1.31356153424612      1.29792142158938      0.01699005281812
  N   -1.70899727117332     -0.69614715633132     -0.24263987733133
  H   -1.32610284410169     -1.61525450783543     -0.06642331622610
  H   -2.63017547161397     -0.61284389215839      0.16469122240954
  N   1.32504359136726     -0.85952651918197      0.12838289666423
  O   2.33743007127614     -0.59361506692547      0.75749612561489
  O   0.86359672814263     -1.97822433987892     -0.07826764494430
  C   1.23709738775654      1.53659125981569     -0.29767413790332
  N   1.75604218306044      2.58465758063426     -0.19912643279635
