13
Coordinates from ORCA-job run
  C   -0.81325149548967     -0.31472242635613     -0.13186823828793
  C   0.58130342588749      0.30516416337176     -0.04755566524259
  F   -1.05510006811045     -0.48962072562364     -1.50176235914801
  H   0.59440328673314      1.27919258743430     -0.54181041818181
  H   -0.80415152548263     -1.30819914324632      0.31748609660848
  N   -1.74613568980947      0.51467419983486      0.51287403254249
  H   -2.64348141168394      0.06535517223161      0.62661699872657
  H   -1.86337338009187      1.39898979650971      0.03572988339297
  N   1.53823798970263     -0.56752665258494     -0.82559596136334
  O   1.63103960514155     -1.72931636156245     -0.44889407345160
  O   2.12216698151610     -0.04351969802146     -1.76548959339668
  C   1.04010778198428      0.40465600071043      1.33084013805219
  N   1.41723449970284      0.48587308730226      2.43942915974926
