13
Coordinates from ORCA-job run
  C   -0.78475310913094     -0.23035311769659     -0.32919605084874
  C   0.58043024771097      0.28433932244864      0.12650292452853
  F   -0.83448066506584      0.03010730184103     -1.70587743121616
  H   0.65430486767928      1.36137966300226     -0.03979764800024
  H   -0.83061753299058     -1.31329847719715     -0.21007510876847
  N   -1.80373570482868      0.39489208578401      0.40906429017222
  H   -2.70446059749837     -0.03604795869237      0.25674444581602
  H   -1.86116321732860      1.38619378841271      0.21539962704024
  N   1.64158680304262     -0.34380394106446     -0.74665795385274
  O   1.68927155767815     -1.56770368919202     -0.73581160722081
  O   2.34611992280822      0.42040759063917     -1.39363457564686
  C   0.84365038331566     -0.05600547412077      1.51750166844580
  N   1.06284704460809     -0.32910709416446      2.63783741955120
