13
Coordinates from ORCA-job run
  C   -0.78116186047696     -0.38001231532896     -0.17948932016128
  C   0.56598231323441      0.34736218522759     -0.20769655218404
  F   -1.04869579382239     -0.76789150639300     -1.47228282482670
  H   0.50995211115883      1.15862290000984     -0.93415587732518
  H   -0.69158754938246     -1.29790892075213      0.41380458794729
  N   -1.79669292765090      0.54941560201599      0.22129764651839
  H   -1.72869501307001      0.75161522286408      1.21199480677800
  H   -2.70555765815301      0.13864711471525      0.04324697603681
  N   1.62347696751202     -0.61332539579455     -0.68862423863991
  O   2.19774496264185     -0.32237102797766     -1.73035155295969
  O   1.79603754188220     -1.61341976206918     -0.00069250824484
  C   0.91699936763853      0.83168027208325      1.11931962010042
  N   1.14319753848789      1.21858563139948      2.20462923696074
