13
Coordinates from ORCA-job run
  C   -0.94962449910636      0.24925287677910      0.06618673380055
  C   0.55225636354825      0.30505913379430     -0.31650891745672
  F   -0.96727796520003      0.51646815295688      1.42943709614532
  H   0.67523644949755     -0.02524856051014     -1.34998257982193
  H   -1.45172000998145      1.08176183644022     -0.43327654255559
  N   -1.61319221570896     -0.95328164828756     -0.22087452290385
  H   -1.03903142269919     -1.78108335596595     -0.19495778269421
  H   -2.22324842445984     -0.91697267314355     -1.01895430402786
  N   1.30171839766569     -0.69680439361651      0.53099144814461
  O   1.99612930272544     -0.28466730444755      1.44723036326180
  O   1.11153061868798     -1.87286350295493      0.22500946846360
  C   1.10585872997917      1.63804065941179     -0.12869045581693
  N   1.50136467505174      2.73933877954390     -0.03561000453879
