13
Coordinates from ORCA-job run
  C   -0.90557994715974      0.20366474597719     -0.52046333103252
  C   0.60717399494663      0.47402904320677     -0.34269235448049
  F   -1.45055650180580      1.47285944515738     -0.68012418619252
  H   0.99954766361064      0.98833880307265     -1.22147691774811
  H   -1.05094627107951     -0.33839522691672     -1.45659427675751
  N   -1.50427832764195     -0.48579065400361      0.53906422814972
  H   -1.73315651613686     -1.44846648308221      0.36703680394767
  H   -1.13416187823763     -0.31658754051793      1.46120312906836
  N   1.27947585002754     -0.87168676590196     -0.29371294485277
  O   1.35230605254553     -1.44578439633209     -1.37611388211966
  O   1.62671358017284     -1.31203367903800      0.79539397132064
  C   0.87190583562824      1.23095084253631      0.87128251338629
  N   1.04155646513007      1.84690186584221      1.85619724731090
