13
Coordinates from ORCA-job run
  C   -0.84075929766662      0.12755340984442     -0.52570021803653
  C   0.64874515166025      0.42934533520369     -0.31338652757795
  F   -1.44655844513306      1.38328279706066     -0.67721686918353
  H   1.02688156962942      1.00424748738959     -1.16092340087904
  H   -0.96664338148900     -0.40184869587956     -1.47017228274623
  N   -1.34421335392433     -0.64007841493733      0.53432106027982
  H   -2.27214865929514     -0.99284271937314      0.34942642426928
  H   -1.32774154196463     -0.14602989533532      1.41781999493928
  N   1.38536849051421     -0.88880838965580     -0.32912420865938
  O   1.36118978765869     -1.46475461640376     -1.41131590270471
  O   1.91006954536201     -1.27978003741813      0.70316207279379
  C   0.87174743332988      1.13944271108034      0.93809090718990
  N   0.99406270131833      1.73027102842432      1.94501895031530
