13
Coordinates from ORCA-job run
  C   -0.86184894015921      0.32088013372927      0.20957539039638
  C   0.51100888240803      0.26748903610195     -0.48264645435014
  F   -0.58773072184485      0.35231206548429      1.58608825005135
  H   0.37703833586284     -0.02034976731092     -1.52771854885115
  H   -1.33487557621723      1.27669678346411     -0.02476582967849
  N   -1.69985096713529     -0.73292594431423     -0.19246215079950
  H   -2.61793033713951     -0.64697045353668      0.22127451877084
  H   -1.29954443889158     -1.63730260467314      0.01807390539677
  N   1.33932706878768     -0.83166022005723      0.15264560042377
  O   0.89495211842981     -1.96566184633074     -0.00147415965642
  O   2.35210222336480     -0.52213055751987      0.76077919561083
  C   1.20938992088627      1.54128111544349     -0.37869506648595
  N   1.71796243164824      2.59834225951970     -0.34067465082830
