13
Coordinates from ORCA-job run
  C   -0.86189461580379     -0.25061635063487     -0.32349866598046
  C   0.55039173584279      0.29953735506348     -0.06703593674879
  F   -1.04314511050979     -0.10074842656740     -1.69084476935007
  H   0.60214038627678      1.34504213651283     -0.37976783173731
  H   -0.87862683155808     -1.31878102215255     -0.10088168500733
  N   -1.87344396616343      0.41698948223910      0.39315375623567
  H   -2.17855568957138     -0.06129603525057      1.22437210473147
  H   -1.71548414620073      1.39926777732915      0.55899743025935
  N   1.53881066955177     -0.44678967705348     -0.92951036156781
  O   2.16846145307357      0.21242031707407     -1.74670773979682
  O   1.60181680501983     -1.65666498374358     -0.74344828159366
  C   0.91791210377175      0.14318389458486      1.33316233843296
  N   1.17061720627068      0.01845553259898      2.47300964212281
