13
Coordinates from ORCA-job run
  C   -0.94042458062968      0.38148657410062     -0.13543873416646
  C   0.59284088406805      0.26889602802475     -0.34903634440960
  F   -1.13086132733585      1.11397720963589      1.01594123522330
  H   0.77839722387050     -0.11396230043712     -1.35385855656258
  H   -1.33659310481469      0.96166214366875     -0.97399755899882
  N   -1.63011669137210     -0.84419330992711     -0.05791673253023
  H   -1.18575794063647     -1.57497707016897      0.47594230125568
  H   -2.00115170307001     -1.17693355333068     -0.93145536493376
  N   1.13648357509324     -0.77446767320423      0.59001477125810
  O   1.20005610076483     -0.47731600320571      1.77667115328517
  O   1.40742993247276     -1.86259476869406      0.08647625552108
  C   1.28477604462532      1.53198118493806     -0.13713685268024
  N   1.82392158696411      2.56644153859981     -0.00720557226165
