13
Coordinates from ORCA-job run
  C   -0.76665866215021     -0.19292596295381     -0.40210697954803
  C   0.61123272360609      0.33255492800526      0.01024369389473
  F   -0.85882435819404     -0.03456624002833     -1.76584676513505
  H   0.71530924923262      1.35763110222727     -0.34667713640746
  H   -0.82433922500437     -1.26998634521601     -0.20431547727045
  N   -1.77226714402235      0.62836665181622      0.20630595848748
  H   -2.66694002585450      0.42196669672021     -0.22202106273973
  H   -1.84358845888080      0.43397088657157      1.19834981423298
  N   1.66860188003597     -0.49220273041499     -0.67841473008939
  O   2.41047769074351      0.09986833022017     -1.45217133153770
  O   1.67369098706721     -1.68976173567729     -0.41581550106280
  C   0.78624331798964      0.24043931533827      1.45232861950709
  N   0.86806202543125      0.16364510339146      2.62114089766833
