13
Coordinates from ORCA-job run
  C   -0.86254346393045     -0.38133219764544     -0.13936174787153
  C   0.55095998259401      0.21882689768866     -0.21693281908718
  F   -1.05024161163393     -0.97312481380808     -1.38001907919129
  H   0.60165351962306      0.94342295152204     -1.03287102297550
  H   -0.87711859973064     -1.17186902557814      0.61276156431978
  N   -1.87175537341141      0.56421387894500      0.12324604147203
  H   -2.16982470809817      0.60018875961320      1.08365673663238
  H   -1.72048529323134      1.48382435510154     -0.26224523896925
  N   1.53530248210387     -0.87202596293480     -0.56151257278341
  O   2.15942075898550     -0.74386092859398     -1.60697668739579
  O   1.60097684629401     -1.80239746006163      0.23375398877398
  C   0.92319961812573      0.82135759934987      1.05533072269809
  N   1.17845584230974      1.31377594640175      2.09017011437768
