13
Coordinates from ORCA-job run
  C   -0.86864512038589      0.33136169572683      0.15645880350595
  C   0.54051185061802      0.25684713707647     -0.45611501538766
  F   -0.67190457590407      0.37845788660726      1.54595800292587
  H   0.46289001366875     -0.04148818752180     -1.50399145737772
  H   -1.31810341293595      1.28830229772745     -0.11628981667913
  N   -1.69288709051739     -0.71987143306218     -0.27862357025825
  H   -1.31629490240873     -1.62494120829018     -0.03043441661369
  H   -2.63355733821009     -0.61695380922221      0.07661182049268
  N   1.32074171158045     -0.84316199652303      0.23584601930781
  O   0.87390624889686     -1.97447620593001      0.06915394564192
  O   2.30245971446968     -0.53712899135394      0.89471501003323
  C   1.24463232384258      1.52520854946946     -0.32662651369202
  N   1.75625057728579      2.57984426529587     -0.26766281189901
