13
Coordinates from ORCA-job run
  C   -0.77394240012093     -0.15583705537673     -0.40569524863530
  C   0.62393009082663      0.30656665500211      0.01463574044771
  F   -0.85507185330405      0.01772669742024     -1.76839012288644
  H   0.77233235880612      1.32999490325537     -0.33116276239348
  H   -0.87821258796450     -1.23127021316316     -0.21801124515038
  N   -1.74553654360510      0.70203322118303      0.20699871989040
  H   -2.64989258451158      0.52741625264967     -0.21498208280748
  H   -1.81735690376341      0.51302527838328      1.19997742357192
  N   1.64649224169877     -0.55501628574951     -0.68182054764118
  O   1.60000428103419     -1.75456694115592     -0.43281554393159
  O   2.41397161778140      0.01365131567409     -1.44809571806131
  C   0.79275857370059      0.19078305586248      1.45581701758107
  N   0.87052370942188      0.09549311601507      2.62354437001606
