13
Coordinates from ORCA-job run
  C   -0.78129214917346     -0.40777370477106     -0.03340104880564
  C   0.55498963702377      0.32710421051624     -0.13432070457484
  F   -0.98013359962434     -0.98352034793314     -1.29619977274253
  H   0.49685568468069      1.11773249910380     -0.88579723468471
  H   -0.69968933283294     -1.22892157990208      0.67942197834793
  N   -1.79244012235754      0.48809639285375      0.35331860426782
  H   -1.97112562681804      1.18885806129729     -0.35425869764450
  H   -2.65244085199118      0.01387218365544      0.58952169024695
  N   1.59691090594003     -0.64536094087053     -0.63597715810115
  O   1.77788071692301     -1.64036841271890      0.05507851439742
  O   2.15449293018769     -0.36116532029396     -1.68824928946670
  C   0.97581163549808      0.85324123558568      1.15646513972938
  N   1.32218017254421      1.27820572347746      2.19439797903056
