13
Coordinates from ORCA-job run
  C   -0.87323169742413     -0.20568174764085     -0.32290123225752
  C   0.56823660748293      0.26500963414790     -0.07108348096627
  F   -1.04043273487671     -0.07302963423118     -1.69414393680134
  H   0.68357191680185      1.29855595168689     -0.40579631456060
  H   -0.95360837944104     -1.26640880932684     -0.07960841620788
  N   -1.84520517191960      0.53438966239463      0.37625755239732
  H   -2.18822048634127      0.08867894591155      1.21055313582185
  H   -1.63022461792636      1.50799881862580      0.52751760994446
  N   1.51359600130028     -0.55676890452017     -0.91282378028857
  O   2.18658988953911      0.04700470670474     -1.73826048434008
  O   1.50164911783134     -1.76441070468819     -0.70352358801899
  C   0.91961059879263      0.11849489878197      1.33422174869196
  N   1.15766895618098      0.00716718215374      2.47859118658568
