13
Coordinates from ORCA-job run
  C   -0.80806141470183     -0.07227900347465     -0.49975658888565
  C   0.57134035962156      0.25106762885302      0.09747069146539
  F   -0.74981359829987      0.43877039671124     -1.78853140264772
  H   0.73444225769438      1.33123192344849      0.08899652291378
  H   -0.92237002150806     -1.15481879124696     -0.57608904012256
  N   -1.88482418240067      0.48632128724550      0.21408196964630
  H   -1.70375442751758      1.37415466531630      0.65664752467489
  H   -2.35402658463413     -0.15562246166455      0.83073363778814
  N   1.64397853241454     -0.34334053591865     -0.78195444503990
  O   1.60590083368322     -1.56053757527987     -0.92083654018924
  O   2.43692865961458      0.43756848792145     -1.29213385624456
  C   0.68999983917442     -0.29619518528486      1.44160067525217
  N   0.73925974685943     -0.73432083662646      2.52977085138896
