13
Coordinates from ORCA-job run
  C   -0.84869102229685      0.10052679217040     -0.51921110739561
  C   0.63654572789540      0.43496309368830     -0.32931056425372
  F   -1.48064044326914      1.34040000146518     -0.69115103794213
  H   0.99558135258769      0.99927174388765     -1.19220493713353
  H   -0.97388168730152     -0.45182122830566     -1.45054073304450
  N   -1.32641062324242     -0.65353998691812      0.56278000810363
  H   -1.31055488404571     -0.13845778972550      1.43431604181577
  H   -2.25067557747383     -1.02440011374330      0.39511194449325
  N   1.39912562296217     -0.86895395848415     -0.32674968860982
  O   1.94121572819941     -1.22936125124896      0.70769504228879
  O   1.37573679789565     -1.46647565400104     -1.39717487413780
  C   0.85982277076515      1.17412283546023      0.90523418540743
  N   0.98282623732402      1.78472551575497      1.90020572040824
