13
Coordinates from ORCA-job run
  C   -0.90874777717825      0.35460045847428      0.14138504501894
  C   0.50745194898047      0.16324344686034     -0.46150934696685
  F   -0.68083350825662      0.94331781515812      1.37803448035285
  H   0.43190662416628     -0.41575033290548     -1.38420577360602
  H   -1.43637616794284      1.08702813430791     -0.47493472949991
  N   -1.68430681960437     -0.80829716312544      0.27314744171515
  H   -1.16352893319553     -1.65707085215207      0.42973536183666
  H   -2.40543130627837     -0.91067975392035     -0.42000326943305
  N   1.32547250488376     -0.67682645895564      0.49114189476249
  O   2.18264604163978     -0.12788258299366      1.16615684766405
  O   1.01879435433803     -1.86768366594180      0.52009985415271
  C   1.16735831403415      1.43807765830485     -0.70237300781497
  N   1.64459472441352      2.47992329688895     -0.95667479818205
