13
Coordinates from ORCA-job run
  C   -0.89314632808542      0.32053507538429     -0.46843344225233
  C   0.64345950243050      0.41925717946090     -0.34821849866584
  F   -1.30198565215728      1.65154999862832     -0.56060609784492
  H   1.05230372972359      0.93388790387160     -1.21934398561569
  H   -1.13786542400991     -0.15792880030341     -1.41801482930972
  N   -1.50377299347644     -0.34879275529269      0.58995068231347
  H   -1.07906371242947     -0.29635213910415      1.50080048298611
  H   -1.96541039485478     -1.21548249544902      0.38693704773435
  N   1.17183443010871     -0.99004032860528     -0.39191853236499
  O   1.53647028714937     -1.51071738450753      0.65487743212107
  O   1.12285520842779     -1.51861963848429     -1.49816898270085
  C   1.03813652353396      1.08342798325145      0.88504627595500
  N   1.31618482363939      1.62827540114982      1.88709244764434
