13
Coordinates from ORCA-job run
  C   -0.92470932343711      0.35968526341140      0.03147656848316
  C   0.54975303434464      0.35398212998633     -0.38450365777342
  F   -1.01693027877764      0.72166098809146      1.37178139580177
  H   0.60603173219805      0.34080076867299     -1.47437068971632
  H   -1.40895861894884      1.15787409216172     -0.53824655976494
  N   -1.53398893960358     -0.87537615616170     -0.28009785477576
  H   -2.54116525911646     -0.79928042411203     -0.25454440943052
  H   -1.23634391924723     -1.59516487177352      0.36616518979373
  N   1.27303686153538     -0.90290025622099      0.05270871818788
  O   2.16351257194796     -1.29152116050816     -0.69225189917153
  O   0.92862282535756     -1.41008723432080      1.11484825412106
  C   1.28054258247264      1.50123939410021      0.14271591641238
  N   1.86159673127463      2.43908746667307      0.54331902783249
