13
Coordinates from ORCA-job run
  C   -0.96480460094651      0.17395762235458     -0.41013998167707
  C   0.55908088767065      0.43171882312975     -0.45963868580682
  F   -1.51920700432719      1.43488731477854     -0.60844684554852
  H   0.83187366532057      0.86282754887038     -1.42429269010648
  H   -1.23831530053641     -0.44324070563229     -1.26767188169022
  N   -1.41576655750254     -0.41124113012831      0.77588335688616
  H   -0.92373197873948     -0.17749941511683      1.62353001292625
  H   -1.70289572235177     -1.37166165047705      0.72141001255895
  N   1.22456043353112     -0.91592735545199     -0.38561000432347
  O   1.71949889359869     -1.26590054808134      0.67883978062829
  O   1.14320248272445     -1.58262151305214     -1.41285585119892
  C   0.98988292400076      1.28522804889458      0.63712507317533
  N   1.29462187755767      1.98147295991214      1.53186770417652
