13
Coordinates from ORCA-job run
  C   -0.88801620293499      0.23245595072759     -0.53864743808631
  C   0.62977508652922      0.44986037208285     -0.33341869326595
  F   -1.38396806070715      1.51900789348247     -0.71728257401012
  H   1.05589596041513      0.94459096936194     -1.20771873984658
  H   -1.03490173256582     -0.31040635092069     -1.47405245824297
  N   -1.53145397894182     -0.42722185382501      0.51377820459417
  H   -1.16948691397512     -0.26758838379295      1.44088867182309
  H   -1.79118750566535     -1.38233079214030      0.34327870257773
  N   1.25297831787464     -0.91847048535872     -0.26459543090884
  O   1.32681702291045     -1.50085942804364     -1.34244391732069
  O   1.56282907856398     -1.36460258395085      0.83339063587182
  C   0.89845060680612      1.20454453350961      0.88101129400781
  N   1.07226832169072      1.82102015886770      1.86481174280683
