13
Coordinates from ORCA-job run
  C   -0.94725733421804      0.26516128058183      0.02001287488355
  C   0.57135802681994      0.29490003163285     -0.29166737372737
  F   -1.02585010330274      0.54212381652701      1.37945302272859
  H   0.73675778845425     -0.04142597952030     -1.31724660882543
  H   -1.41194166033978      1.10190046554691     -0.50768387398569
  N   -1.61352119951364     -0.92945505430079     -0.29196029992950
  H   -2.19419191844037     -0.88791595832705     -1.11127054240407
  H   -1.05355054770734     -1.76551104068348     -0.23936668258045
  N   1.26360651234480     -0.71504211561055      0.59388696509335
  O   1.91733928073588     -0.30970644642401      1.54254031606085
  O   1.07177831435680     -1.88924450106039      0.28192706653692
  C   1.13745983825965      1.61956347374678     -0.08298592999341
  N   1.54601300255059      2.71465202789118      0.02536106614267
