13
Coordinates from ORCA-job run
  C   -0.88475508016907      0.33020013502824     -0.47675752558237
  C   0.64866496180375      0.43098123888009     -0.32311468448923
  F   -1.29750275394137      1.66230791341768     -0.53753118623016
  H   1.07273201796879      0.97004806216443     -1.17165357973215
  H   -1.10837737726401     -0.11987161460659     -1.44527818391146
  N   -1.51007901331060     -0.37430642628935      0.54878025149971
  H   -1.97948117105244     -1.22785457357717      0.31163008543096
  H   -1.10278286859871     -0.35025656439322      1.46854514431291
  N   1.18315514176952     -0.97461578744443     -0.39379061813294
  O   1.51966248663940     -1.52518571282005      0.64719369142153
  O   1.16739289205721     -1.47032033402906     -1.51635753574765
  C   1.01625374170240      1.06361824330130      0.93484624901205
  N   1.27411702239513      1.58325542036812      1.95548789214878
