13
Coordinates from ORCA-job run
  C   -0.90412664388210      0.19384522987237     -0.52579731731761
  C   0.60677839762243      0.47142539140861     -0.34625346194939
  F   -1.45196904555590      1.45940598227976     -0.70643208901388
  H   0.99968486518204      0.97565438395334     -1.23051751904656
  H   -1.04479004416495     -0.36134527129363     -1.45500613842328
  N   -1.50399250506366     -0.48218116865139      0.54127257818911
  H   -1.74056635167201     -1.44464825812568      0.37936920019691
  H   -1.13367276580343     -0.30501242184085      1.46173901714786
  N   1.28465612880834     -0.87068602079822     -0.27808166674674
  O   1.37592387585509     -1.45259602411793     -1.35478276588465
  O   1.61779844747381     -1.30115351435382      0.81942581454749
  C   0.86494431424427      1.24466339236587      0.85884256220595
  N   1.03033132695607      1.87362829930158      1.83622178609477
