13
Coordinates from ORCA-job run
  C   -0.89324479267464      0.31712903677579     -0.46731387108504
  C   0.64137046976887      0.43017040572899     -0.33944493716871
  F   -1.31592341493526      1.64557598699723     -0.54370425492191
  H   1.04765701148804      0.96187572333670     -1.20129122605855
  H   -1.12914358992612     -0.15023613994146     -1.42468594644665
  N   -1.49560907810612     -0.37523924357625      0.57909865704420
  H   -1.97865690401638     -1.22682424478219      0.36440606540746
  H   -1.07740252571902     -0.33525344098146      1.49314633054103
  N   1.18518204347176     -0.97247085868416     -0.40182868501900
  O   1.14783448851138     -1.48444713481789     -1.51646662865803
  O   1.55041302785286     -1.50504438944186      0.63872142323831
  C   1.02458577096488      1.08023163624934      0.90489747081442
  N   1.29393749331976      1.61353266313722      1.91546560231246
