12

C	0.0	0.0	0.0
C	-0.639222	0.023165	-1.363754
F	1.404293	0.0	0.0
H	-0.501974	-0.932201	-1.879481
H	-0.321111	0.87727	0.56132
H	-1.747669	0.104469	-1.075964
N	-0.426997	-1.179095	0.681859
H	0.113486	-1.96709	0.348008
H	-0.304328	-1.084439	1.679768
C	-0.183107	1.116318	-2.205048
N	0.171723	2.007901	-2.886084
H	-3.195131	0.0	0.0
