12

C	0.0	0.0	0.0
C	-0.483132	0.09498	-1.4469
F	1.394718	0.0	0.0
H	-1.586405	0.175235	-1.339722
H	-0.321176	0.898296	0.5323
H	-0.244359	-0.835396	-1.973037
N	-0.528787	-1.127375	0.691332
H	-0.428828	-1.946415	0.097301
H	-1.548321	-0.916396	0.717728
C	0.073567	1.222279	-2.183072
N	0.515797	2.13822	-2.771168
H	-3.028522	0.0	0.0
