12

C	0.0	0.0	0.0
C	-0.520278	0.072667	-1.42368
F	1.380787	0.0	0.0
H	-0.186044	1.001128	-1.896627
H	-0.293327	0.933806	0.501919
H	-1.62638	0.093376	-1.305034
N	-0.514018	-1.178803	0.619352
H	-0.305566	-1.13721	1.612592
H	-1.542197	-1.059513	0.529632
C	-0.094752	-1.055964	-2.240978
N	0.22168	-1.93566	-2.951429
H	-3.046975	0.0	0.0
