14

C	-0.54685	0.106334	-1.390836
C	0.0	0.0	0.0
Cl	-2.315705	0.402078	-1.435734
H	1.107304	0.0	0.0
H	-0.24973	0.897276	0.564874
C	0.102869	1.216211	-2.089851
N	0.589854	2.120572	-2.661361
N	-0.22035	-1.151865	-2.253856
O	0.962051	-1.446949	-2.243283
O	-1.114808	-1.672857	-2.894398
N	-0.492982	-1.134707	0.714295
O	-0.45629	-1.071724	1.954897
O	-0.800688	-2.157497	0.071636
H	2.416215	0.0	0.0
