14

C	-0.571394	0.051382	-1.386106
C	0.0	0.0	0.0
Cl	0.016069	-1.390167	-2.269667
H	1.10749	0.0	0.0
H	-0.250726	-0.944343	0.481422
C	-2.030724	0.057833	-1.448595
N	-3.204008	-0.023695	-1.460879
N	-0.067457	1.264356	-2.195841
O	-0.727734	1.537734	-3.193768
O	0.965581	1.789519	-1.825331
N	-0.498685	1.074172	0.806453
O	-0.983272	2.07215	0.230487
O	-0.318195	0.989319	2.029717
H	2.433302	0.0	0.0
