14

C	-0.492677	-0.07249	-1.413867
C	0.0	0.0	0.0
Cl	-0.115887	1.483588	-2.200781
H	1.100649	0.0	0.0
H	-0.312216	0.919785	0.487297
C	0.08487	-1.143918	-2.217938
N	0.554178	-1.941091	-2.940622
N	-2.033456	-0.201808	-1.472505
O	-2.514957	-0.996075	-2.266625
O	-2.649519	0.538034	-0.720334
N	-0.467403	-1.115894	0.773226
O	-0.350471	-1.038585	2.001083
O	-0.868609	-2.124306	0.162397
H	2.470724	0.0	0.0
