14

C	-0.536259	-0.104181	-1.398042
C	0.0	0.0	0.0
Cl	0.038515	-1.656777	-2.079896
H	1.102279	0.0	0.0
H	-0.25836	-0.889654	0.573344
C	-1.992149	-0.069459	-1.5114
N	-3.166571	-0.112268	-1.554699
N	0.023521	0.993463	-2.331714
O	0.991576	1.619728	-1.940811
O	-0.533365	1.082165	-3.421132
N	-0.527427	1.147891	0.682265
O	-1.004785	2.078471	0.002156
O	-0.38197	1.181608	1.912687
H	2.44983	0.0	0.0
