14

C	-0.494975	0.423484	-1.351232
C	0.0	0.0	0.0
Cl	0.401263	1.769956	-2.052818
H	1.107601	0.0	0.0
H	-0.29811	-1.015989	0.246224
C	-0.420802	-0.714572	-2.267843
N	-0.379515	-1.629033	-3.005187
N	-2.026314	0.780198	-1.312793
O	-2.703466	-0.052849	-0.724793
O	-2.42448	1.780006	-1.880208
N	-0.449093	0.867917	1.054622
O	-0.819361	2.019004	0.764964
O	-0.328417	0.438092	2.209309
H	2.45272	0.0	0.0
