15

C	0.0	0.0	0.0
C	-0.436859	0.022135	-1.481426
F	1.424353	0.0	0.0
H	-1.440239	-0.40159	-1.528796
H	-0.338561	0.93259	0.454915
N	-0.434232	-1.097027	0.789096
H	-0.319299	-1.949155	0.251009
H	-1.434314	-0.966283	0.942516
N	0.471717	-0.927963	-2.215151
O	0.283158	-2.128964	-2.001958
O	1.366592	-0.472805	-2.917778
N	-0.431528	1.297358	-2.129148
H	-1.297858	1.762292	-1.884457
H	0.354436	1.856425	-1.824141
Br	-3.605006	0.0	0.0
