15

C	0.0	0.0	0.0
C	-0.481338	0.343942	-1.395922
F	1.39186	0.0	0.0
H	-0.127316	-0.419367	-2.088977
H	-0.261718	0.801402	0.700811
N	-0.456641	-1.315952	0.35423
H	-1.480401	-1.281076	0.449802
H	-0.088522	-1.534831	1.270304
N	0.240163	1.61941	-1.813204
O	1.007239	1.56764	-2.780364
O	-0.016623	2.63201	-1.161215
N	-1.86769	0.574416	-1.521559
H	-2.416011	-0.211663	-1.842421
H	-2.325156	0.933695	-0.684739
Br	-4.625219	0.0	0.0
