15

C	0.0	0.0	0.0
C	-0.399746	-0.12727	-1.476226
F	1.415042	0.0	0.0
H	-1.486601	-0.250812	-1.506257
H	-0.330539	0.992045	0.309012
N	-0.473298	-0.962473	0.921838
H	-0.426824	-1.885429	0.50991
H	-1.461559	-0.760996	1.068983
N	0.196052	-1.431429	-2.016395
O	-0.266868	-2.487082	-1.584372
O	1.111344	-1.357719	-2.835611
N	0.03594	1.006968	-2.210681
H	-0.309851	0.978105	-3.159338
H	1.046382	1.031725	-2.230471
Br	-3.675307	0.0	0.0
