15

C	0.0	0.0	0.0
C	-0.329627	-0.098603	-1.512069
F	1.444163	0.0	0.0
H	0.616411	-0.213503	-2.049596
H	-0.312842	0.957064	0.406544
N	-0.474316	-1.05707	0.805561
H	-1.410643	-0.813676	1.12028
H	-0.558737	-1.896932	0.246189
N	-0.795492	1.2785	-2.050654
O	-1.455282	1.253013	-3.085449
O	-0.386814	2.297955	-1.499013
N	-1.212794	-1.155818	-1.832422
H	-2.106206	-0.991137	-1.355364
H	-1.38237	-1.175739	-2.829985
Br	-3.775365	0.0	0.0
