15

C	0.0	0.0	0.0
C	-0.408287	0.245034	-1.447826
F	1.409624	0.0	0.0
H	-0.018826	-0.565899	-2.069235
H	-0.320173	0.830922	0.629309
N	-0.545033	-1.206518	0.463352
H	-0.164129	-2.011039	-0.012462
H	-0.493291	-1.316548	1.462724
N	0.403453	1.45057	-1.916522
O	0.292693	2.481473	-1.260552
O	1.079348	1.325345	-2.93645
N	-1.776614	0.501423	-1.690296
H	-2.226499	-0.276392	-2.147852
H	-2.34289	0.681158	-0.862077
Br	-4.640766	0.0	0.0
