13

C	0.188313	-0.070306	0.06776
C	-0.857951	0.242059	-1.022438
Br	1.995481	0.356385	-0.617495
H	-0.62333	-0.400075	-1.881926
H	-1.837582	-0.068309	-0.645582
C	-0.020437	0.736907	1.267931
N	-0.186364	1.338788	2.263244
C	0.197006	-1.490846	0.415383
N	0.174625	-2.638422	0.668879
N	-0.891064	1.659381	-1.277333
H	-0.301866	1.882314	-2.069411
H	-1.857878	1.860759	-1.548771
Cl	-3.91898	1.092254	-2.191843
