13

C	0.182276	0.062749	0.060676
C	-0.886226	-0.243271	-1.008899
Br	1.967387	-0.435402	-0.635019
H	-1.851683	0.104778	-0.628321
H	-0.644037	0.37049	-1.886758
C	0.239181	1.490195	0.373776
N	0.254443	2.643367	0.601048
C	-0.035842	-0.708701	1.282493
N	-0.207382	-1.278979	2.295333
N	-0.965059	-1.66509	-1.228903
H	-1.941465	-1.843455	-1.481552
H	-0.394707	-1.923435	-2.024099
Cl	-3.99506	-1.018972	-2.088565
