13

C	0.199968	-0.053332	0.079036
C	-0.821775	-0.117396	-1.074987
Br	2.026454	0.094182	-0.671018
H	-1.813003	-0.26998	-0.636242
H	-0.584868	-1.016076	-1.660204
C	-0.0128	1.116553	0.928907
N	-0.180143	2.015416	1.666858
C	0.177229	-1.270874	0.888544
N	0.125717	-2.268986	1.507306
N	-0.824926	1.129932	-1.794903
H	-1.783446	1.240595	-2.138623
H	-0.217561	1.065733	-2.601919
Cl	-3.865371	0.344482	-2.479866
