15

C	0.0	0.0	0.0
C	-0.38484	-0.000629	-1.520185
F	1.355689	0.0	0.0
H	0.378618	-0.669213	-1.933923
C	-0.49735	1.109851	0.803342
N	-0.764334	2.073826	1.420135
N	-0.384176	-1.332031	0.634401
O	-0.71367	-1.329637	1.812426
O	-0.219997	-2.313031	-0.084943
C	-0.068802	1.35203	-2.015655
N	0.207481	2.422818	-2.409617
N	-1.662445	-0.437616	-1.976361
H	-2.44671	-0.042372	-1.438316
H	-1.724696	-1.441474	-1.860132
Cl	-3.972781	0.0	0.0
