15

C	0.0	0.0	0.0
C	-0.343469	-0.516219	-1.466261
F	1.355669	0.0	0.0
H	0.582814	-1.052812	-1.700111
C	-0.480521	1.313536	0.40572
N	-0.619363	2.433617	0.732705
N	-0.357571	-1.052131	1.042796
O	-0.099005	-2.205457	0.706627
O	-0.742792	-0.677543	2.140755
C	-0.360331	0.674028	-2.332439
N	-0.329329	1.608994	-3.043174
N	-1.434647	-1.384922	-1.77619
H	-1.28464	-2.267032	-1.299869
H	-2.302635	-0.977482	-1.40983
Cl	-3.443428	0.0	0.0
