15
Coordinates from ORCA-job run
  C   0.98575977793108     -0.30046664068506      0.47400005087892
  C   -0.48747408148037      0.08824000508105      0.43119747622320
  Br  1.09120205889180     -2.05166175610641      1.57739785912600
  H   -0.85762191306435      0.08458841093285      1.46526073578478
  H   1.56588559328586      0.36579534145378      1.11125573374186
  N   1.52551416324336     -0.40582137129981     -0.80588279782113
  H   2.48792261740213     -0.70843965078149     -0.82635505094314
  H   0.93173762179544     -0.97304193577577     -1.39805521577395
  N   -1.18275117288218     -0.86611746704432     -0.43043807561022
  H   -2.10182212847309     -0.51239519559803     -0.66526052507109
  H   -1.30247796924764     -1.74403838413293      0.06186590917249
  C   -0.63352305942082      1.49213569879732     -0.14359871364263
  H   -0.29814952775295      1.51176295992582     -1.18036507722705
  H   -1.67979283089929      1.80896316989500     -0.09972071875186
  H   -0.04340914932898      2.21149681533801      0.42869840991383
