15
Coordinates from ORCA-job run
  C   1.04168233169049     -0.19704912121565      0.02745283878026
  C   -0.46102549077996     -0.02777218242869      0.29237336893962
  Br  1.97793535567336      0.02010611563383      1.84185756928570
  H   -0.68900801950511     -0.52660708203657      1.23953497114327
  H   1.45960845532136      0.65791241454928     -0.50617610869694
  N   1.35453175690862     -1.38562323086743     -0.64122818393891
  H   0.85885479187858     -2.18693553834479     -0.27746762987433
  H   2.34707358319362     -1.55878231479124     -0.70990828645199
  N   -1.21245821352473     -0.74744320176865     -0.73961853443913
  H   -0.94383342784006     -0.42093559718502     -1.66100509258819
  H   -2.20079155420415     -0.55568674837729     -0.61833366075888
  C   -0.81116780062933      1.45327724121076      0.41835237554231
  H   -0.63696808630427      1.96207412545686     -0.53500301951103
  H   -0.21809992241263      1.94525210705456      1.19211511916318
  H   -1.86733375946579      1.57121301311003      0.67505427340506
