15
Coordinates from ORCA-job run
  C   0.92051096358824     -0.46239532358033      0.48337082648744
  C   -0.52468060804816      0.02070792669609      0.55443265340245
  Br  1.13758781685641     -2.14210764942437      1.44766829555856
  H   -0.78829828604431      0.09855871785051      1.61544409141203
  H   1.56183967118006      0.24125276670098      1.02715425760675
  N   1.31528727157265     -0.66825211324298     -0.90554412145022
  H   1.60830631194039      0.22035578011361     -1.29744547864804
  H   2.10635265964502     -1.29742319086086     -0.95471958455004
  N   -1.39477096017981     -0.96818496543513     -0.05818370199586
  H   -2.33553042956406     -0.60253397235400     -0.13795734736388
  H   -1.04371406757175     -1.16605666756126     -0.98857401575185
  C   -0.61278189176204      1.41717667865067     -0.07539331580908
  H   0.09047387280569      2.12345022736490      0.37905397862906
  H   -0.42303176460713      1.36589541776329     -1.15064690532582
  H   -1.61955055981119      1.82055636731889      0.06134036779850
