15
Coordinates from ORCA-job run
  C   0.82247252040084     -0.75198094670356      0.03786640636569
  C   -0.42148280591144      0.04810065032726      0.40627871307420
  Br  0.64175599610526     -1.55526801367932     -1.75079773017712
  H   -0.19839762354853      0.44118148724533      1.41017235297009
  H   0.86904498666968     -1.62669986340390      0.69438910144250
  N   1.99591735338213      0.08957939613872      0.02476237906299
  H   2.82313715562066     -0.46263159845339     -0.16643182961365
  H   2.10317962024339      0.51344375816522      0.94094405527134
  N   -1.53668229264638     -0.87885615594573      0.57518090071016
  H   -2.33007488785477     -0.38208370319646      0.96340744369186
  H   -1.81820125659717     -1.22584607709759     -0.33588775481051
  C   -0.68274073026298      1.22783596862573     -0.52445090383011
  H   -0.98972589621903      0.87262273138991     -1.51024203304580
  H   -1.48838448678958      1.84612047995097     -0.11862017877943
  H   0.20918234740792      1.84448188663682     -0.64557092233220
