15
Coordinates from ORCA-job run
  C   0.73428289966123     -0.74671950463660     -0.01179402524863
  C   -0.46650285752542      0.11710648394136      0.39733432197183
  Br  0.50378170380496     -1.46101342157505     -1.83419888351914
  H   -0.22934660563515      0.43850945993852      1.42386615329432
  H   0.73468165196010     -1.65939502753026      0.59861860368098
  N   1.95912113587679      0.00837225719573      0.02542692130084
  H   2.02921399717590      0.49507369421347      0.91264225719427
  H   2.76350334741755     -0.59742018797944     -0.07786041742568
  N   -1.73029870453300     -0.59791409768604      0.47162158559227
  H   -1.64658401733974     -1.41274600171654      1.06922579876905
  H   -1.98391795467706     -0.92504597195759     -0.45415545128809
  C   -0.62937224171284      1.35711076819945     -0.46653264193218
  H   -1.39505582692281      1.99862207283046     -0.02810691424592
  H   -0.95023545014352      1.07964065419460     -1.47299067458141
  H   0.30772892259300      1.90681882256795     -0.55309663356250
