15
Coordinates from ORCA-job run
  C   1.02969971107947     -0.23317273792714      0.17347316766006
  C   -0.46951051195345      0.04562786814320      0.26248539613679
  Br  1.88117858241668      0.12034737400016      1.89905394404793
  H   -0.83780663516747     -0.45510619230842      1.16816446838368
  H   1.49347323289794      0.48435729722664     -0.51548893302575
  N   1.25374741293327     -1.62441820904094     -0.16521401765273
  H   2.24134035646072     -1.84107715305843     -0.10124399190787
  H   0.97385503134579     -1.73236370109969     -1.13526771065413
  N   -1.05772102337407     -0.51148134642913     -0.96210441680342
  H   -1.28734673115950     -1.48608405569009     -0.81013006294282
  H   -1.91838776896841     -0.02734083512969     -1.18528147553860
  C   -0.76537436145907      1.53361263139545      0.33424733801437
  H   -0.44381032824417      2.01900563697897     -0.59172462224554
  H   -1.83879978677708      1.70353082013815      0.45499866564543
  H   -0.25353718003064      2.00356260280096      1.17403225088260
