15
Coordinates from ORCA-job run
  C   0.82007492580998     -0.76199978863741      0.19486700068942
  C   -0.45749585330658      0.02513948521029      0.45494649762780
  Br  0.68419311927929     -1.64536478211957     -1.64462534274821
  H   -0.33231535059975      0.36712666282875      1.49005006111936
  H   0.83998277177709     -1.62924024935629      0.85243958896078
  N   1.98870096005795      0.01082353090826      0.34559334347621
  H   2.05769200077962      0.74186858303375     -0.34965912261388
  H   2.82364439578795     -0.55783464218914      0.30596444995349
  N   -1.58731966502543     -0.89662460841749      0.45275371792583
  H   -2.40448812414379     -0.42737014627000      0.82465273891809
  H   -1.79932472606325     -1.17478682912665     -0.49904629734049
  C   -0.61700042545869      1.25150789812051     -0.44114215624751
  H   -0.67630222536750      0.95859215392695     -1.49170212270528
  H   -1.54064441869482      1.77407271036244     -0.18015081223840
  H   0.20260261516793      1.96509002172560     -0.31694154477721
