15
Coordinates from ORCA-job run
  C   0.72943286409618     -0.75464223286585      0.15304126021752
  C   -0.51022738591772      0.10347388003553      0.44238622919457
  Br  0.55763322731481     -1.55865430310897     -1.71839832286523
  H   -0.37573301091349      0.39216041053847      1.49287009667182
  H   0.70861345186699     -1.65272482191296      0.77231672761074
  N   1.94073978446731     -0.06536891011498      0.35497421582130
  H   2.05942049781517      0.69950223164576     -0.29533077314359
  H   2.74454237432746     -0.67575435165432      0.29800668646043
  N   -1.77878196734413     -0.59924842261819      0.35130502910067
  H   -1.92065589112536     -0.92177934603299     -0.59927644761962
  H   -1.77576027290661     -1.41656464236967      0.95099976022067
  C   -0.57221151998252      1.37127531140432     -0.39563058348951
  H   -0.63192091592032      1.13328643348306     -1.46026386926006
  H   -1.46773949313716      1.92748367988674     -0.11703680707356
  H   0.29264825735939      2.01655508368407     -0.22696320184613
