15
Coordinates from ORCA-job run
  C   1.08532312540595     -0.24347259513927      0.20540703839834
  C   -0.42275763326295      0.03896884729583      0.19383899196276
  Br  1.77524960155147     -0.00478031388658      2.02982840479294
  H   -0.88658314462087     -0.58443394945444      0.97434050173471
  H   1.58679618339122      0.51002666665896     -0.40634511872579
  N   1.49389528282601     -1.54259801122756     -0.25678003994443
  H   1.28464692592164     -1.61250451974984     -1.24557846261592
  H   1.00877490623560     -2.27573758276103      0.24791848147557
  N   -0.87867497347242     -0.30954519303480     -1.15773844049986
  H   -1.10805584957683     -1.29405501035430     -1.20788586184142
  H   -1.72153625557560      0.20508636642354     -1.38149414874200
  C   -0.74049031120053      1.50144900802426      0.45832399978001
  H   -1.82217854447550      1.66311116512219      0.45734949069690
  H   -0.35063366399783      1.83022312917214      1.42046499522247
  H   -0.30177564914938      2.11926199291086     -0.33064983169429
