15
Coordinates from ORCA-job run
  C   0.93464919532914     -0.41744465908241      0.53960426859896
  C   -0.52351080741342      0.08315833788835      0.51252121894682
  Br  0.98249777915610     -2.08083041141074      1.62082018492619
  H   -0.84816361692975      0.17033422096094      1.55483927175871
  H   1.55171012720249      0.28180957781537      1.10851447340798
  N   1.56713213028858     -0.66493354676664     -0.71744388799938
  H   1.93117560386118      0.18456611628565     -1.12591651785257
  H   0.94913188034695     -1.13491199733728     -1.36516402287692
  N   -1.47507254563558     -0.78232841574062     -0.16237245413193
  H   -1.29589409051197     -0.81637135203770     -1.15877745624282
  H   -1.43318136318455     -1.72335517625916      0.21005596767872
  C   -0.57032069628503      1.46431496886953     -0.12990693425950
  H   -0.28190960788795      1.41553904419815     -1.18420244903692
  H   0.09957239245522      2.16469796721919      0.37549004926361
  H   -1.58781638079143      1.85375532539737     -0.07806171218096
