13

C	0.0	0.0	0.0
C	-0.514356	-0.109693	-1.431073
Cl	1.791964	0.0	0.0
H	-1.570582	-0.385932	-1.36654
H	-0.348859	0.919953	0.471412
H	0.039995	-0.912923	-1.927785
C	-0.397697	-1.146546	0.82186
N	-0.591559	-2.103847	1.473463
C	-0.382863	1.209409	-2.18068
H	-0.610438	1.070082	-3.239568
H	-1.103545	1.924612	-1.779353
H	0.623295	1.630638	-2.105783
Br	-3.681979	0.0	0.0
