13

C	0.0	0.0	0.0
C	-0.437821	-0.12235	-1.469432
Cl	1.79207	0.0	0.0
H	0.229953	-0.824003	-1.976867
H	-0.329727	0.961056	0.399964
H	-1.463091	-0.493645	-1.503011
C	-0.416703	-1.024826	0.944786
N	-0.642718	-1.838929	1.758035
C	-0.381383	1.26119	-2.118043
H	-1.165353	1.881689	-1.678719
H	0.589521	1.747365	-1.971164
H	-0.563327	1.203277	-3.19409
Br	-3.401011	0.0	0.0
