13

C	0.0	0.0	0.0
C	-0.533576	0.0137	-1.426191
Cl	1.792508	0.0	0.0
H	-1.607096	0.2039	-1.3342
H	-0.328193	0.891686	0.534569
H	-0.063532	0.860398	-1.938213
C	-0.405142	-1.183274	0.763587
N	-0.622618	-2.136363	1.414181
C	-0.295565	-1.286345	-2.179961
H	-0.884841	-2.089759	-1.732789
H	0.758793	-1.578236	-2.181128
H	-0.618589	-1.178007	-3.218262
Br	-3.749103	0.0	0.0
