13

C	0.0	0.0	0.0
C	-0.538145	-0.038279	-1.424742
Cl	1.792473	0.0	0.0
H	-1.611765	0.159519	-1.337475
H	-0.326962	0.911303	0.501611
H	-0.068733	0.787362	-1.970564
C	-0.408445	-1.15254	0.806479
N	-0.635586	-2.082152	1.486686
C	-0.31081	-1.367509	-2.128307
H	0.743123	-1.657033	-2.140695
H	-0.886861	-2.152966	-1.635337
H	-0.659169	-1.304045	-3.162144
Br	-3.762104	0.0	0.0
