13
Coordinates from ORCA-job run
  C   0.65622691602219     -0.14321952284187      0.55027738022166
  C   -0.30086650161527      0.40061312375748     -0.48748851224185
  F   0.61101767678131     -1.55852714274627      0.47387859722833
  H   -0.26572340939758      1.49161313380100     -0.42905926515444
  H   0.32261476931468      0.09492907394430      1.56433321644682
  H   0.07764971181138      0.11522841755407     -1.47600977938877
  N   1.97154886050268      0.35305830409998      0.36889116720018
  H   2.31572901206335      0.11454027117266     -0.55272702286611
  H   2.60163389277940     -0.03183838314826      1.06042578864634
  C   -1.72420645597381     -0.11181347523384     -0.30452000347018
  H   -1.75473012422953     -1.19906340378686     -0.37668916305050
  H   -2.38930202015885      0.30185421810946     -1.06530558041180
  H   -2.11959232789995      0.17362538531815      0.67399317684032
