13
Coordinates from ORCA-job run
  C   0.66085199187646      0.28348610325065      0.55735620816536
  C   -0.25465723849541     -0.32464175909965     -0.48671320147045
  F   0.11371877871304     -0.01498502085389      1.81784761034798
  H   -0.17692963598469     -1.41391958369874     -0.39210402254030
  H   0.64236183683481      1.37813818463064      0.50621678725089
  H   0.13012275177964     -0.05189084369926     -1.47500886362553
  N   1.98322922326119     -0.22195964189958      0.47695401178140
  H   2.70602795611492      0.47592963490447      0.51329171072229
  H   2.13528162154999     -0.88288542065393     -0.26656616386574
  C   -1.70762604388949      0.10881063726780     -0.34084072141321
  H   -1.80324047824994      1.19429039392305     -0.42948098062409
  H   -2.33109186935611     -0.34563347469293     -1.11369625246229
  H   -2.09804889415441     -0.18573920937861      0.63274387773370
