13
Coordinates from ORCA-job run
  C   0.92768568902861      0.49746702771692      0.25500765253497
  C   -0.57052034684344      0.65170820019167      0.07592074964719
  F   1.36292692972122      1.62588488012578      0.96891982745066
  H   -0.76385016107346      1.65464893505187     -0.31264833481036
  H   1.44419673666826      0.55194755240499     -0.70902987887918
  H   -1.02718274463356      0.60702675686573      1.07141580999048
  N   1.30923049233157     -0.68314085426433      0.94083099477175
  H   0.55900273209744     -1.16143050013153      1.41224026617220
  H   1.88845534359054     -1.31512173675505      0.41670891352331
  C   -1.16661400131359     -0.40408866957288     -0.84789177441677
  H   -1.02523768226241     -1.41190200658759     -0.45261710143428
  H   -0.69967417587412     -0.36623449783171     -1.83606775663878
  H   -2.23841881143706     -0.24676508721388     -0.98278936791118
