18

C	0.0	0.0	0.0
C	-0.46161	0.019267	-1.478527
Cl	1.798181	0.0	0.0
H	-1.557622	-0.013102	-1.382994
N	-0.47937	1.200768	0.643749
H	-1.50813	1.10485	0.547725
H	-0.277024	1.12978	1.638876
N	-0.456286	-1.258421	0.562859
H	-1.487481	-1.148023	0.545014
H	-0.169941	-1.300702	1.540707
N	-0.035787	-1.151352	-2.240816
H	-0.264591	-1.962674	-1.67221
H	0.981618	-1.130287	-2.29527
C	-0.060183	1.28518	-2.213604
H	1.028168	1.35511	-2.313882
H	-0.410389	2.170211	-1.684087
H	-0.496136	1.257819	-3.215373
H	-3.089289	0.0	0.0
