18

C	0.0	0.0	0.0
C	-0.200469	0.032363	-1.547646
Cl	1.881608	0.0	0.0
H	0.432556	-0.768239	-1.960827
N	-0.609247	1.061856	0.698557
H	-0.521317	1.888302	0.112829
H	-1.619907	0.81558	0.725535
N	-0.436569	-1.229844	0.543124
H	-0.589406	-1.139306	1.538781
H	0.210408	-1.976712	0.350232
N	0.222136	1.35667	-2.021906
H	1.227463	1.386304	-2.136491
H	-0.210757	1.535532	-2.919161
C	-1.628119	-0.219492	-1.985495
H	-1.641542	-0.266213	-3.083501
H	-2.016025	-1.146498	-1.568004
H	-2.321314	0.54011	-1.61993
H	-3.713552	0.0	0.0
