12
Coordinates from ORCA-job run
  C   -0.39423755712588      0.32332654957706      0.35997380180197
  C   1.06091253888342      0.17193010533820     -0.09340201499276
  H   -0.51220027063815      0.12553464779502      1.42662640636959
  H   1.10900372733717      0.29038744561501     -1.17800522836652
  H   1.66381572602257      0.96028153969350      0.36504852408029
  N   -1.23771283801134     -0.72209622622612     -0.34757568760792
  O   -1.90433676081190     -1.46007197525389      0.36680989334150
  O   -1.16481003159643     -0.73296079806899     -1.56990612985276
  C   -0.90873143762715      1.64578624427390      0.01977077546729
  N   -1.29005600789203      2.72332199088239     -0.24944870982715
  C   1.58650441190195     -1.13612202458299      0.29021601710125
  N   1.99084849955778     -2.19031749904308      0.60989235248516
