12
Coordinates from ORCA-job run
  C   -0.41151175602022      0.21841085930759      0.23499816443401
  C   0.82538490253048     -0.65072179459456     -0.01563198418937
  H   -0.55706380301144      0.37833793061976      1.30846963595237
  H   0.93943201673685     -0.82930274602844     -1.08813533649369
  H   0.68855244197009     -1.61586213417994      0.47380480658651
  N   -1.66806097091892     -0.52119779719061     -0.21730957451210
  O   -1.63882804683492     -1.74192373712502     -0.12032339419569
  O   -2.61273019295914      0.16506215567451     -0.57901641960409
  C   -0.33307715765640      1.50388399676377     -0.44860786809121
  N   -0.21282127648158      2.53413630714854     -0.99908853984451
  C   2.01711113659668      0.01156641464473      0.50756798089943
  N   2.96461270604852      0.54861054495967      0.94427252905836
