12
Coordinates from ORCA-job run
  C   -0.52959372058079      0.33982178065659      0.32536844400800
  C   0.82917334307037     -0.19521351991265      0.77738840360852
  H   -1.15890832681101      0.54217905779676      1.19856391264212
  H   0.67918275223401     -1.08229902743955      1.39425216960418
  H   1.31835306277298      0.57022202014250      1.38647669875492
  N   -1.29702737498742     -0.72658920469378     -0.45223387903073
  O   -2.13272590216593     -0.32839037408824     -1.25076010801519
  O   -1.05430630852642     -1.88819127778843     -0.15199879199654
  C   -0.41387750145830      1.54727790067200     -0.48381074283068
  N   -0.27102898347569      2.54162742373542     -1.09188498880900
  C   1.67830685303523     -0.52936657891241     -0.36374045928042
  N   2.35345210689297     -0.79207820016821     -1.28662065865518
