12

C	-0.530501	0.055465	-1.424082
C	0.0	0.0	0.0
F	-0.23493	-1.10607	-2.116133
H	1.099772	0.0	0.0
H	-0.061693	0.894349	-1.943874
H	-1.615502	0.183617	-1.405824
C	-0.517611	-1.184245	0.68228
N	-0.982836	-2.100788	1.249741
N	-0.492834	1.225979	0.677682
H	0.248453	1.914417	0.575012
H	-0.551973	1.041725	1.672826
Cl	3.370314	0.0	0.0
