12

C	-0.504583	-0.005254	-1.431881
C	0.0	0.0	0.0
F	-0.156093	1.195282	-2.041687
H	1.101127	0.0	0.0
H	-0.044313	-0.819548	-1.994226
H	-1.595621	-0.077996	-1.453457
C	-0.479313	-1.229502	0.63983
N	-0.88535	-2.215428	1.131441
N	-0.564083	1.167603	0.699139
H	-0.25113	1.973584	0.16695
H	-0.08758	1.235314	1.59316
Cl	3.395467	0.0	0.0
