12

C	-0.396138	0.036111	-1.459214
C	0.0	0.0	0.0
F	-1.770956	-0.058269	-1.639008
H	1.103773	0.0	0.0
H	0.077319	-0.793033	-1.988951
H	-0.06198	0.981373	-1.896383
C	-0.499918	-1.222398	0.631875
N	-0.899483	-2.202873	1.138587
N	-0.540248	1.172834	0.718855
H	-0.256953	1.081486	1.689931
H	-0.017253	1.972781	0.370797
Cl	3.370077	0.0	0.0
