12

C	-0.472583	0.030771	-1.449538
C	0.0	0.0	0.0
F	-0.206853	-1.161	-2.10198
H	1.09465	0.0	0.0
H	-1.557192	0.198883	-1.494274
H	0.054266	0.836301	-1.969666
C	-0.530906	-1.189624	0.672906
N	-1.018239	-2.129308	1.180131
N	-0.410409	1.200327	0.727245
H	-1.352317	1.481155	0.475784
H	0.235815	1.94924	0.509623
Cl	3.392262	0.0	0.0
