12

C	-0.504604	-0.007111	-1.431792
C	0.0	0.0	0.0
F	-0.15119	1.190091	-2.043919
H	1.101103	0.0	0.0
H	-0.047976	-0.824175	-1.992398
H	-1.595651	-0.075433	-1.453851
C	-0.479161	-1.22777	0.642723
N	-0.87621	-2.213303	1.142532
N	-0.562164	1.16957	0.697772
H	-0.08688	1.235727	1.592745
H	-0.245701	1.97413	0.16533
Cl	3.395595	0.0	0.0
