12

C	-0.383803	-0.019828	-1.466553
C	0.0	0.0	0.0
F	-1.769784	0.116101	-1.614664
H	1.096463	0.0	0.0
H	-0.084096	-0.951862	-1.949071
H	0.086868	0.828625	-1.967495
C	-0.511747	-1.202583	0.669831
N	-0.927311	-2.178905	1.171609
N	-0.455564	1.190019	0.71399
H	0.214054	1.932764	0.556008
H	-1.360879	1.472638	0.3586
Cl	3.363389	0.0	0.0
