18

C	-0.086339	-0.002316	-1.536078
C	0.0	0.0	0.0
Cl	-0.172872	-1.732757	-2.209821
H	1.09932	0.0	0.0
N	-1.400399	0.560588	-2.091234
O	-1.362965	1.187044	-3.147191
O	-2.420353	0.331388	-1.444577
N	0.992563	0.728403	-2.010085
H	1.115335	0.676083	-3.009859
H	1.84369	0.497476	-1.44211
N	-0.563856	-1.147565	0.666737
H	0.043764	-1.399511	1.434796
H	-1.484556	-0.931638	1.028796
C	-0.44515	1.349913	0.558507
H	-0.052345	2.170145	-0.046544
H	-0.036085	1.453459	1.567736
H	-1.536231	1.432193	0.611112
F	2.728261	0.0	0.0
