18

C	-0.089027	-0.012503	-1.53517
C	0.0	0.0	0.0
Cl	-0.15561	-1.747193	-2.196673
H	1.097308	0.0	0.0
N	-1.410537	0.533354	-2.091213
O	-1.383426	1.150991	-3.15215
O	-2.425261	0.301223	-1.437418
N	0.982297	0.727552	-2.015039
H	1.108116	0.662368	-3.013891
H	1.833165	0.501738	-1.4461
N	-0.560127	-1.144856	0.675181
H	-1.477315	-0.926798	1.045685
H	0.054874	-1.394612	1.4384
C	-0.448959	1.351536	0.54989
H	-0.035008	1.465051	1.555951
H	-0.064619	2.169435	-0.063616
H	-1.540529	1.4278	0.6076
F	2.724847	0.0	0.0
