18

C	-0.079864	-0.273631	-1.528905
C	0.0	0.0	0.0
Cl	-1.58461	-1.122576	-2.047684
H	1.102502	0.0	0.0
N	-0.092448	1.098805	-2.224134
O	1.013254	1.601193	-2.392459
O	-1.16751	1.645372	-2.462135
N	1.065442	-0.978626	-2.019586
H	0.916199	-1.967096	-1.860222
H	1.868985	-0.666786	-1.421156
N	-0.363391	-1.166045	0.796726
H	-1.202211	-1.61477	0.446815
H	0.403863	-1.826678	0.759567
C	-0.6997	1.245953	0.490465
H	-1.775703	1.221927	0.2837
H	-0.282209	2.147862	0.039888
H	-0.555527	1.304041	1.570437
F	2.707357	0.0	0.0
