18

C	-0.546397	0.025506	-1.413724
C	0.0	0.0	0.0
Cl	0.290756	1.335211	-2.391536
H	1.095202	0.0	0.0
N	-0.183853	-1.24176	-2.19819
O	-0.911033	-1.514409	-3.154924
O	0.802423	-1.87455	-1.856152
N	-1.958453	0.121789	-1.473473
H	-2.248388	0.973572	-1.012432
H	-2.278166	0.116012	-2.433546
N	-0.446181	-1.199376	0.710051
H	0.241034	-1.922999	0.539127
H	-1.3524	-1.509695	0.375928
C	-0.452854	1.23651	0.76918
H	-1.517059	1.199038	1.03933
H	-0.241153	2.161727	0.226949
H	0.124534	1.251424	1.694216
F	2.632581	0.0	0.0
