16

C	-0.630331	-0.050851	-1.397677
C	0.0	0.0	0.0
Cl	-2.398524	0.07287	-1.264437
H	1.091828	0.0	0.0
N	-0.099412	1.066753	-2.340464
O	1.07154	0.915226	-2.645148
O	-0.861753	1.950151	-2.690973
C	-0.296963	-1.31512	-2.041139
N	-0.031697	-2.318305	-2.592691
N	-0.42307	-1.127951	0.746554
H	0.309399	-1.385325	1.395502
H	-1.281969	-0.947441	1.250006
N	-0.393783	1.328253	0.629581
O	-0.080938	2.338115	0.004853
O	-0.972883	1.304657	1.714627
Br	3.33432	0.0	0.0
