16

C	-0.453621	0.00449	-1.450366
C	0.0	0.0	0.0
Cl	-2.216896	0.038773	-1.704945
H	1.093068	0.0	0.0
N	0.116798	1.205354	-2.229979
O	0.279459	2.24282	-1.592927
O	0.309143	1.051269	-3.428674
C	0.085857	-1.196016	-2.081322
N	0.552785	-2.15593	-2.571517
N	-0.511454	-1.166215	0.625396
H	-0.005332	-1.373804	1.484578
H	-1.505535	-1.086272	0.816111
N	-0.387316	1.251997	0.774598
O	-1.585292	1.498107	0.881314
O	0.533399	1.868399	1.296906
Br	2.75422	0.0	0.0
