12

C	-0.467368	0.020436	-1.425476
C	0.0	0.0	0.0
F	-0.025654	1.145926	-2.051296
H	1.093012	0.0	0.0
H	-0.174779	-0.860695	-1.996737
H	-0.334703	0.919833	0.488077
N	-1.98142	0.071262	-1.494041
O	-2.520891	1.117541	-1.14188
O	-2.561099	-0.94837	-1.870212
C	-0.513777	-1.157937	0.708526
N	-0.908841	-2.103778	1.283695
H	2.702892	0.0	0.0
