12

C	-0.40189	0.114752	-1.440304
C	0.0	0.0	0.0
F	-1.763739	0.246211	-1.631944
H	1.091708	0.0	0.0
H	0.109552	0.923646	-1.958194
H	-0.358689	-0.938225	0.429711
N	-0.02277	-1.150021	-2.178238
O	-0.5711	-2.174922	-1.803056
O	0.769491	-1.053694	-3.101741
C	-0.500774	1.132925	0.757952
N	-0.892521	2.047684	1.383707
H	2.687407	0.0	0.0
