12

C	-0.410317	0.118726	-1.4383
C	0.0	0.0	0.0
F	-1.772914	0.213178	-1.621133
H	1.091752	0.0	0.0
H	0.074537	0.948069	-1.952392
H	-0.365988	-0.940592	0.416983
N	0.006502	-1.129009	-2.179604
O	-0.497799	-2.181053	-1.797294
O	0.782741	-1.000779	-3.121334
C	-0.502917	1.125174	0.76653
N	-0.880909	2.0381	1.402643
H	2.707999	0.0	0.0
