12

C	-0.401293	0.053947	-1.448683
C	0.0	0.0	0.0
F	-0.092869	1.274077	-1.964882
H	1.09297	0.0	0.0
H	0.063607	-0.729363	-2.048508
H	-0.362948	0.901966	0.499752
N	-1.894515	-0.122672	-1.615512
O	-2.281418	-1.244351	-1.942988
O	-2.610078	0.845399	-1.373486
C	-0.498329	-1.188302	0.665666
N	-0.871032	-2.154662	1.221216
H	2.691547	0.0	0.0
