12

C	-0.455367	0.070511	-1.426673
C	0.0	0.0	0.0
F	-1.779784	0.419762	-1.556444
H	1.091665	0.0	0.0
H	0.156653	0.777663	-1.986372
H	-0.276445	0.954561	0.461596
N	-0.297289	-1.248587	-2.141053
O	0.670079	-1.359999	-2.888379
O	-1.153018	-2.102244	-1.923903
C	-0.57254	-1.081304	0.779047
N	-0.992463	-1.939211	1.465092
H	2.699427	0.0	0.0
