12

C	-0.509994	-0.019195	-1.423606
C	0.0	0.0	0.0
F	-0.372553	-1.261792	-1.958421
H	1.092857	0.0	0.0
H	-1.55145	0.293912	-1.540466
H	-0.306011	-0.945548	0.458074
N	0.263864	0.956192	-2.292728
O	0.806986	0.53984	-3.304248
O	0.20429	2.120455	-1.915008
C	-0.546776	1.09725	0.776552
N	-0.993159	1.964317	1.432444
H	2.707964	0.0	0.0
