12

C	-0.415998	0.078356	-1.434758
C	0.0	0.0	0.0
F	-1.783135	0.12678	-1.615499
H	1.09176	0.0	0.0
H	0.038617	0.912894	-1.967119
H	-0.357695	-0.931019	0.443308
N	0.028053	-1.162106	-2.170401
O	0.600703	-0.995818	-3.244069
O	-0.278708	-2.243715	-1.676721
C	-0.507274	1.145161	0.732561
N	-0.895594	2.08136	1.327411
H	2.706853	0.0	0.0
