12

C	-0.514796	0.053754	-1.420998
C	0.0	0.0	0.0
F	-0.382194	-1.160468	-2.018745
H	1.092859	0.0	0.0
H	-1.556142	0.374657	-1.517764
H	-0.305079	-0.967849	0.40954
N	0.258037	1.070724	-2.242356
O	0.199334	2.214984	-1.808679
O	0.802419	0.702834	-3.271995
C	-0.544891	1.055833	0.832987
N	-0.985147	1.890468	1.533649
H	2.707796	0.0	0.0
