18

C	-0.464674	-0.19748	-1.437762
C	0.0	0.0	0.0
F	-1.76248	-0.695549	-1.477975
H	1.094465	0.0	0.0
N	-0.533748	1.150709	-2.12376
O	0.545689	1.679087	-2.359196
O	-1.635544	1.614628	-2.391845
C	0.444251	-1.102516	-2.226002
H	1.47236	-0.747775	-2.118878
H	0.137603	-1.140698	-3.274623
H	0.383645	-2.105405	-1.79972
N	-0.360715	-1.167292	0.807036
H	-1.066689	-1.737346	0.360905
H	0.478475	-1.717865	0.955787
N	-0.495558	1.257257	0.538127
H	-1.261252	1.047805	1.166903
H	0.257492	1.647491	1.0959
H	2.86019	0.0	0.0
