18

C	-0.499954	-0.090853	-1.431532
C	0.0	0.0	0.0
F	-1.881262	-0.17018	-1.461201
H	1.095135	0.0	0.0
N	-0.181874	1.217411	-2.152116
O	-1.025168	2.113773	-2.096511
O	0.905679	1.304617	-2.712153
C	0.107324	-1.235826	-2.186787
H	-0.224172	-2.147003	-1.690427
H	1.194012	-1.158239	-2.123916
H	-0.219924	-1.233531	-3.229056
N	-0.399441	-1.24573	0.669679
H	-0.988867	-0.97834	1.448938
H	0.458278	-1.634055	1.055173
N	-0.482804	1.179395	0.703441
H	-1.233363	1.629018	0.199079
H	0.283806	1.837555	0.775727
H	2.841974	0.0	0.0
