18

C	-0.554184	-0.116086	-1.40625
C	0.0	0.0	0.0
F	-1.896247	-0.460673	-1.359191
H	1.09508	0.0	0.0
N	-0.517167	1.251068	-2.063766
O	0.591205	1.653064	-2.395338
O	-1.573994	1.85411	-2.215625
C	0.200042	-1.09974	-2.255951
H	1.260375	-0.842234	-2.235102
H	-0.185111	-1.10077	-3.279275
H	0.06658	-2.082317	-1.804451
N	-0.336657	-1.248344	0.682444
H	0.373946	-1.405546	1.389027
H	-1.246458	-1.188475	1.124372
N	-0.419428	1.249952	0.614171
H	-1.309332	1.151526	1.08716
H	0.28998	1.51243	1.289392
H	2.850554	0.0	0.0
