18

C	-0.562752	-0.078696	-1.404817
C	0.0	0.0	0.0
F	-1.910352	-0.401111	-1.353758
H	1.093777	0.0	0.0
N	-0.508691	1.300971	-2.035437
O	-1.55393	1.933094	-2.144325
O	0.599621	1.683414	-2.38953
C	0.167165	-1.057291	-2.279905
H	0.024608	-2.045849	-1.845479
H	1.230605	-0.81388	-2.267112
H	-0.228519	-1.033136	-3.299023
N	-0.332754	-1.267852	0.651855
H	-1.224094	-1.206946	1.129163
H	0.399983	-1.455573	1.328079
N	-0.419952	1.230829	0.646431
H	0.258726	1.450748	1.36659
H	-1.339226	1.139561	1.064382
H	2.850567	0.0	0.0
