16

C	-0.4757	0.003042	-1.459831
C	0.0	0.0	0.0
Cl	0.157543	1.413299	-2.342993
H	1.096975	0.0	0.0
N	0.078589	-1.253641	-2.144582
O	-0.742574	-2.09179	-2.506491
O	1.288619	-1.321476	-2.253203
C	-1.930823	-0.014026	-1.5837
N	-3.104459	-0.009427	-1.643299
N	-0.47341	-1.236547	0.569538
H	0.215426	-1.580485	1.224306
H	-1.374665	-1.120062	1.018502
N	-0.598337	1.172865	0.661675
H	-0.10308	1.992982	0.32129
H	-0.320258	1.088938	1.635352
F	2.612885	0.0	0.0
