16

C	-0.452135	-0.035624	-1.441998
C	0.0	0.0	0.0
Cl	-2.236701	0.050002	-1.629195
H	1.095941	0.0	0.0
N	0.132485	1.158975	-2.229378
O	0.884741	1.916481	-1.64311
O	-0.200116	1.21912	-3.409753
C	0.013853	-1.230571	-2.14085
N	0.384934	-2.197841	-2.695739
N	-0.491866	-1.215352	0.685061
H	-0.186648	-2.026944	0.151855
H	0.078284	-1.252918	1.527348
N	-0.515384	1.184812	0.643165
H	-1.26639	0.918833	1.267888
H	0.244311	1.60446	1.162823
F	2.596779	0.0	0.0
