16

C	-0.601402	0.050908	-1.403972
C	0.0	0.0	0.0
Cl	0.031963	1.42919	-2.335603
H	1.09593	0.0	0.0
N	-0.206613	-1.234228	-2.136294
O	0.970076	-1.351592	-2.429004
O	-1.099735	-2.050776	-2.334871
C	-2.061204	0.135157	-1.380421
N	-3.23281	0.215763	-1.337052
N	-0.45141	-1.233334	0.598894
H	0.29694	-1.595808	1.174779
H	-1.291707	-1.092024	1.148428
N	-0.518431	1.17478	0.734937
H	-0.10495	1.083927	1.659885
H	-0.059486	1.992201	0.339189
F	2.601619	0.0	0.0
