16

C	-0.603987	0.070297	-1.401318
C	0.0	0.0	0.0
Cl	0.067726	1.431107	-2.331815
H	1.095655	0.0	0.0
N	-0.247029	-1.222859	-2.135792
O	-1.17143	-1.986992	-2.389779
O	0.932976	-1.397656	-2.376553
C	-2.060065	0.196724	-1.37434
N	-3.227854	0.31175	-1.311766
N	-0.458623	-1.238961	0.585836
H	-1.283599	-1.091339	1.155719
H	0.295106	-1.620173	1.141153
N	-0.508718	1.168221	0.752745
H	-0.057267	1.083935	1.66046
H	-0.075767	1.992565	0.34187
F	2.600834	0.0	0.0
