16

C	-0.462893	0.072526	-1.459919
C	0.0	0.0	0.0
Cl	-0.016802	-1.386832	-2.336184
H	1.100347	0.0	0.0
N	-1.991904	0.22162	-1.49299
O	-2.414175	1.376772	-1.483115
O	-2.672977	-0.789819	-1.410888
C	0.104524	1.229901	-2.152734
N	0.556842	2.16123	-2.709488
N	-0.471215	-1.213087	0.618841
H	0.308589	-1.618835	1.118233
H	-1.217592	-0.989887	1.265705
N	-0.50068	1.18744	0.723983
H	-0.588976	1.984605	0.104835
H	0.255234	1.426121	1.359639
F	2.594532	0.0	0.0
