16

C	-0.622736	0.015354	-1.396927
C	0.0	0.0	0.0
Cl	0.085362	1.27095	-2.422127
H	1.09229	0.0	0.0
N	-0.375059	-1.337172	-2.064048
O	-1.358039	-2.041304	-2.278852
O	0.785586	-1.615138	-2.307538
C	-2.069318	0.22138	-1.311273
N	-3.211588	0.4338	-1.130568
N	-0.410572	-1.250039	0.62257
H	-1.239179	-1.145185	1.197402
H	0.361866	-1.566701	1.195633
N	-0.38038	1.242683	0.651629
H	0.407428	1.539352	1.214151
H	-1.196734	1.130373	1.242194
F	2.578643	0.0	0.0
