12

C	-0.600861	0.066505	-1.393254
C	0.0	0.0	0.0
Br	-0.196487	1.824821	-2.147928
H	1.08811	0.0	0.0
H	-1.688486	0.008882	-1.353158
H	-0.332805	0.850375	0.597567
C	-0.119107	-0.96291	-2.303797
N	0.232181	-1.759846	-3.090735
N	-0.485157	-1.208479	0.720563
O	-1.254768	-1.971727	0.130262
O	-0.104715	-1.346209	1.874799
Br	3.453596	0.0	0.0
