12

C	-0.46664	-0.018143	-1.43757
C	0.0	0.0	0.0
Br	-2.431855	-0.117215	-1.562542
H	1.09331	0.0	0.0
H	-0.096304	-0.916782	-1.93184
H	-0.39567	0.84026	0.566392
C	-0.033212	1.175482	-2.150714
N	0.283181	2.140566	-2.741672
N	-0.42672	-1.239979	0.694441
O	-0.378267	-2.291007	0.059561
O	-0.760461	-1.136444	1.872156
Br	3.39594	0.0	0.0
