12

C	-0.474322	-0.045024	-1.432052
C	0.0	0.0	0.0
Br	-2.424266	-0.30884	-1.543746
H	1.093672	0.0	0.0
H	-0.044852	-0.946419	-1.872869
H	-0.342668	-0.882357	0.538895
C	-0.110207	1.083862	-2.279191
N	0.193943	1.933099	-3.030079
N	-0.499227	1.168575	0.761703
O	-0.609583	1.020029	1.975557
O	-0.739279	2.205452	0.148813
Br	3.390838	0.0	0.0
