12

C	-0.473524	-0.042549	-1.432972
C	0.0	0.0	0.0
Br	-2.428343	-0.270141	-1.542057
H	1.093649	0.0	0.0
H	-0.060132	-0.954906	-1.869198
H	-0.346821	-0.879755	0.539742
C	-0.090358	1.075881	-2.285954
N	0.195214	1.909288	-3.062744
N	-0.493254	1.173102	0.756869
O	-0.690895	2.21896	0.142864
O	-0.640136	1.02078	1.967185
Br	3.392331	0.0	0.0
