12

C	-0.499753	0.002199	-1.435412
C	0.0	0.0	0.0
Br	0.024268	-1.678468	-2.278088
H	1.091341	0.0	0.0
H	-0.010449	0.79585	-1.998831
H	-0.390957	-0.833663	0.580169
C	-1.94958	0.135882	-1.535439
N	-3.11825	0.245647	-1.593692
N	-0.433576	1.249064	0.67975
O	-0.560261	2.258323	-0.015765
O	-0.593948	1.19967	1.895623
Br	3.431036	0.0	0.0
