12

C	-0.591831	-0.005552	-1.397214
C	0.0	0.0	0.0
Br	0.1566	1.420572	-2.497951
H	1.087914	0.0	0.0
H	-1.661737	0.198174	-1.35716
H	-0.344782	-0.880796	0.551403
C	-0.371066	-1.289565	-2.049615
N	-0.234624	-2.337537	-2.562293
N	-0.508268	1.171707	0.778544
O	0.126403	1.480976	1.778657
O	-1.554195	1.710983	0.407555
Br	3.46873	0.0	0.0
