12

C	-0.49506	-0.001787	-1.437337
C	0.0	0.0	0.0
Br	0.011436	-1.697049	-2.262451
H	1.091379	0.0	0.0
H	0.010222	0.780138	-2.002958
H	-0.392707	-0.831548	0.581672
C	-1.941901	0.155207	-1.547619
N	-3.108027	0.282585	-1.619707
N	-0.432506	1.251457	0.674767
O	-0.547861	2.260321	-0.023191
O	-0.604525	1.205534	1.888979
Br	3.422215	0.0	0.0
