12

C	-0.474695	-0.034307	-1.432598
C	0.0	0.0	0.0
Br	-2.428962	-0.268266	-1.539597
H	1.093614	0.0	0.0
H	-0.058677	-0.942342	-1.875539
H	-0.345265	-0.88385	0.534226
C	-0.096721	1.09091	-2.279043
N	0.185005	1.929644	-3.051632
N	-0.494001	1.166745	0.765928
O	-0.697394	2.216089	0.159441
O	-0.635671	1.006196	1.975817
Br	3.392579	0.0	0.0
