17

C	0.0	0.0	0.0
C	-0.50008	0.180836	-1.453142
Cl	1.817738	0.0	0.0
H	-1.559778	-0.081691	-1.324506
N	-0.547606	0.91751	0.906681
H	-0.400743	1.820953	0.464666
H	-1.579104	0.68892	0.791149
N	-0.365062	-1.408691	0.510868
O	-0.382976	-2.322094	-0.315138
O	-0.554692	-1.554043	1.706725
N	0.237607	-0.577038	-2.467837
H	0.380014	-1.513176	-2.107791
H	-0.390595	-0.673387	-3.260352
N	-0.399248	1.604246	-1.766309
H	-1.296121	1.939943	-2.088499
H	0.296534	1.710897	-2.492899
F	-2.813197	0.0	0.0
