17

C	0.0	0.0	0.0
C	-0.344627	-0.094565	-1.556082
Cl	1.767986	0.0	0.0
H	0.476113	-0.678345	-1.976972
N	-0.650062	1.025108	0.667991
H	-1.682021	0.780767	0.521249
H	-0.425893	0.994413	1.655351
N	-0.301143	-1.400224	0.650215
O	-0.594982	-1.39994	1.840631
O	-0.167791	-2.405039	-0.042349
N	-0.217452	1.279617	-2.037676
H	-0.675303	1.274189	-2.944083
H	-0.768953	1.873142	-1.425826
N	-1.566934	-0.712308	-1.998413
H	-1.483259	-1.712511	-1.854144
H	-2.323482	-0.397723	-1.356019
F	-2.965807	0.0	0.0
