17

C	0.0	0.0	0.0
C	-0.589211	-0.447501	-1.384866
Cl	1.755087	0.0	0.0
H	-1.369115	-1.151519	-1.115885
N	-0.568163	1.188756	0.452833
H	-1.601205	0.951468	0.403619
H	-0.293695	1.333116	1.417462
N	-0.28999	-1.174625	1.029302
O	-0.376094	-2.320946	0.615367
O	-0.355087	-0.844355	2.210345
N	0.408746	-1.144188	-2.188669
H	1.019012	-0.44765	-2.604063
H	-0.119858	-1.537592	-2.959072
N	-1.270713	0.62507	-2.090264
H	-0.774241	1.496051	-1.921974
H	-2.152424	0.687624	-1.566256
F	-2.84708	0.0	0.0
