17

C	0.0	0.0	0.0
C	-0.552424	-0.020046	-1.44906
Cl	1.739161	0.0	0.0
H	-1.605629	-0.274139	-1.256734
N	-0.568489	1.019154	0.791904
H	-0.420263	1.864327	0.246597
H	-1.596815	0.7815	0.698812
N	-0.386623	-1.344082	0.679469
O	-0.112791	-2.374821	0.057362
O	-0.894872	-1.320018	1.785904
N	0.168199	-0.900857	-2.372068
H	0.440259	-1.732191	-1.865033
H	-0.503745	-1.199444	-3.071847
N	-0.486135	1.350504	-1.952136
H	-1.408716	1.637515	-2.248524
H	0.147689	1.354936	-2.739603
F	-2.868597	0.0	0.0
