17

C	0.0	0.0	0.0
C	-0.534764	0.03707	-1.442373
Cl	1.774981	0.0	0.0
H	-1.62249	-0.016153	-1.23596
N	-0.557604	1.003525	0.817375
H	-0.432506	1.857373	0.280593
H	-1.587023	0.754267	0.735107
N	-0.338888	-1.367893	0.668705
O	-1.02395	-1.35493	1.676478
O	0.157645	-2.36917	0.162912
N	-0.111372	-1.071873	-2.273194
H	0.901083	-1.113988	-2.331354
H	-0.48596	-0.934756	-3.204017
N	-0.217461	1.383343	-1.953905
H	-0.949879	1.664701	-2.5913
H	0.654989	1.348464	-2.467571
F	-2.852903	0.0	0.0
