17

C	0.0	0.0	0.0
C	-0.315581	0.040691	-1.557222
Cl	1.836912	0.0	0.0
H	0.50464	-0.535373	-2.003523
N	-0.626304	0.943316	0.769038
H	-1.657569	0.795636	0.51255
H	-0.504159	0.711302	1.749123
N	-0.248571	-1.465586	0.514409
O	-0.096672	-2.395731	-0.270858
O	-0.538489	-1.587242	1.699648
N	-0.299097	1.449524	-1.927191
H	-0.436704	1.474078	-2.929751
H	0.592865	1.86884	-1.695903
N	-1.535017	-0.518122	-2.061146
H	-2.295966	-0.23715	-1.408736
H	-1.461449	-1.525605	-1.996609
F	-2.934588	0.0	0.0
