17

C	0.0	0.0	0.0
C	-0.507496	0.073831	-1.540099
Cl	1.773634	0.0	0.0
H	0.411202	-0.014532	-2.128277
N	-0.58635	0.953709	0.817007
H	-0.339596	0.778649	1.784404
H	-1.615815	0.757158	0.673261
N	-0.248321	-1.460677	0.573855
O	0.111818	-2.421059	-0.101599
O	-0.741335	-1.542345	1.693357
N	-1.129455	1.358419	-1.800577
H	-2.045966	1.272525	-1.35727
H	-0.631118	2.066399	-1.272108
N	-1.424614	-0.949719	-1.964514
H	-2.221909	-0.872936	-1.318385
H	-0.987213	-1.853674	-1.865626
F	-2.888304	0.0	0.0
