17

C	0.0	0.0	0.0
C	-0.315316	-0.098989	-1.553948
Cl	1.843896	0.0	0.0
H	0.516504	-0.693009	-1.951541
N	-0.623117	1.009253	0.680625
H	-1.655337	0.839155	0.437336
H	-0.498276	0.869648	1.677684
N	-0.24753	-1.413742	0.644548
O	-0.07375	-2.410705	-0.049409
O	-0.561001	-1.428132	1.829615
N	-0.325993	1.273799	-2.040541
H	0.547	1.736997	-1.816
H	-0.429569	1.213805	-3.046614
N	-1.522498	-0.72524	-2.004812
H	-1.423757	-1.72126	-1.856131
H	-2.287212	-0.401313	-1.377397
F	-2.920013	0.0	0.0
