18

C	0.035018	0.047056	-1.525445
C	0.0	0.0	0.0
Br	-1.841898	0.174623	-2.311569
H	1.101912	0.0	0.0
N	0.785899	1.210056	-1.909349
H	1.026565	1.094406	-2.889037
H	1.655126	1.1136	-1.360438
N	0.627835	-1.151372	-2.079953
H	0.157795	-1.93258	-1.628793
H	1.567562	-1.120497	-1.66471
N	-0.513978	-1.277339	0.477214
H	-1e-05	-1.537743	1.310629
H	-1.493229	-1.179754	0.727713
C	-0.593168	1.220356	0.671463
H	-0.214465	2.135763	0.215134
H	-0.330661	1.222293	1.73596
H	-1.688117	1.220546	0.583027
F	2.723179	0.0	0.0
