18

C	-0.06723	0.059606	-1.54704
C	0.0	0.0	0.0
Br	-0.271049	-2.104374	-2.313998
H	1.097094	0.0	0.0
N	-1.297969	0.54193	-2.142851
H	-1.338571	0.263687	-3.117151
H	-1.250892	1.557156	-2.097485
N	1.111161	0.558669	-1.985108
H	1.234039	0.652026	-2.983422
H	1.959838	0.336808	-1.366049
N	-0.614328	-1.107817	0.695759
H	-1.538749	-1.260799	0.301574
H	-0.077127	-1.937023	0.476966
C	-0.528017	1.319641	0.546811
H	-0.028243	2.165368	0.065259
H	-1.611752	1.408989	0.405022
H	-0.31428	1.355064	1.616697
F	2.797162	0.0	0.0
