18

C	-0.269066	0.066049	-1.521868
C	0.0	0.0	0.0
Br	-0.394416	2.006646	-2.113864
H	1.092734	0.0	0.0
N	0.860443	-0.480352	-2.235497
H	1.705396	-0.318341	-1.661453
H	0.708077	-1.478499	-2.317989
N	-1.528855	-0.525075	-1.873952
H	-1.542487	-0.701355	-2.872009
H	-1.545128	-1.401453	-1.356845
N	-0.341502	-1.400397	0.391266
H	0.537816	-1.826327	0.660488
H	-0.935097	-1.390397	1.210904
C	-0.687302	1.008843	0.888883
H	-1.776507	0.96938	0.762446
H	-0.442755	0.792309	1.934309
H	-0.355782	2.022741	0.672548
F	2.723944	0.0	0.0
