18

C	-0.220394	-0.058797	-1.528957
C	0.0	0.0	0.0
Br	-0.16373	1.799397	-2.298458
H	1.095715	0.0	0.0
N	0.891608	-0.753605	-2.153503
H	1.74206	-0.454664	-1.640531
H	0.75821	-1.727616	-1.888018
N	-1.501038	-0.605419	-1.882057
H	-1.466009	-0.863457	-2.86293
H	-1.576888	-1.450036	-1.319913
N	-0.376461	-1.349122	0.498299
H	-1.143786	-1.272648	1.156883
H	0.428686	-1.703106	1.002638
C	-0.675777	1.107647	0.775384
H	-0.292476	2.085763	0.489654
H	-0.478468	0.968658	1.843647
H	-1.76071	1.101761	0.610969
F	2.728022	0.0	0.0
