13

C	-0.09654	-0.051398	-1.525703
C	0.0	0.0	0.0
Br	-1.931517	-0.451206	-2.198541
H	1.099429	0.0	0.0
H	0.068965	0.965446	-1.899048
N	0.831488	-1.043015	-1.971534
H	1.012409	-0.934098	-2.960574
H	1.697462	-0.866147	-1.433297
C	-0.484584	-1.201547	0.653268
N	-0.860731	-2.161522	1.216639
C	-0.564806	1.207473	0.564411
N	-1.003203	2.204033	1.008072
F	2.537166	0.0	0.0
