13

C	-0.146844	0.130429	-1.537528
C	0.0	0.0	0.0
Br	-0.115343	-1.795128	-2.353088
H	1.097352	0.0	0.0
H	-1.125661	0.451588	-1.892057
N	0.901245	0.934413	-1.954189
H	1.780699	0.676148	-1.464036
H	0.983639	1.037965	-2.9536
C	-0.610649	-1.151744	0.629875
N	-1.140309	-2.051684	1.16965
C	-0.476207	1.23212	0.614283
N	-0.872061	2.224175	1.105575
F	2.559443	0.0	0.0
