14
Coordinates from ORCA-job run
  C   1.02007781461012     -0.68818708927008      0.10222256837225
  C   -0.36939922989657     -0.15230419395996     -0.25419079206207
  H   1.21445364903724     -0.53356983043896      1.16815541238655
  H   -0.59217549470817     -0.38229146627056     -1.30157487141762
  H   1.07468276607072     -1.76057152629433     -0.08654736735124
  C   2.04308125610144      0.00036815198003     -0.68040244345867
  N   2.84633573856274      0.56453735188447     -1.32339409324636
  C   -0.53807786839330      1.32845694033173      0.01819045944423
  H   0.19521229746083      1.88962832109423     -0.56310796650050
  H   -1.53528910764082      1.66349713888337     -0.25813137792211
  H   -0.38367846276645      1.54283433931236      1.07801362057143
  N   -1.39764453461736     -0.95335429065543      0.52237986150587
  O   -2.46206985513984     -0.40181061435200      0.78111969078843
  O   -1.11550896868059     -2.11723323224487      0.79826729888981
