14
Coordinates from ORCA-job run
  C   1.04076114267966     -0.62250566542773      0.23911356518161
  C   -0.32952392349716     -0.19738703805532     -0.29207554347690
  H   1.15666166449387     -1.70808180201286      0.16754242251650
  H   -0.45378435325322     -0.50433661672784     -1.33134902607650
  H   1.12601482005960     -0.35038531374701      1.29342365036616
  C   2.10096949920847      0.02469283618852     -0.52866051315424
  N   2.93114113478799      0.56216670342843     -1.16026991344620
  C   -0.61091946085295      1.28443215387119     -0.11626913337340
  H   -1.61427519984603      1.52397159113345     -0.47335044408156
  H   0.10868018758314      1.86970509589335     -0.69126202453123
  H   -0.53303341534737      1.56071593273548      0.93711588785062
  N   -1.37528415643857     -0.96699383754576      0.46266471342841
  O   -1.26142733740474     -1.00972484688989      1.68591968942733
  O   -2.28598060217270     -1.46526919284403     -0.19354333063059
