14
Coordinates from ORCA-job run
  C   1.19747280492534     -0.05616944855155     -0.14507477115054
  C   -0.31652540630028      0.04253651465186     -0.30266966179224
  H   1.67047051574384      0.68921735049419     -0.79095266600737
  H   -0.62797396489741     -0.27994864558988     -1.29684773739150
  H   1.47134017270311      0.16730460170629      0.88817177976244
  C   1.69911814266676     -1.38223291598094     -0.50191177018760
  N   2.08285357967790     -2.44967576939123     -0.80191016069103
  C   -0.84149859071913      1.43020403721297      0.02379255021528
  H   -0.55405683372471      1.71520408707070      1.03752409528142
  H   -1.92995234711855      1.45316098350004     -0.05499914185230
  H   -0.43172256123949      2.15779427391069     -0.67962062776216
  N   -0.96875759778862     -0.93334213557995      0.63728976980051
  O   -1.89020634127710     -1.60958065243168      0.18931163930676
  O   -0.55956157265166     -0.94447228102150      1.79589670246832
