14

C	0.0	0.0	0.0
C	-0.529642	0.050757	-1.429634
F	1.378835	0.0	0.0
H	-1.639999	0.156098	-1.177724
H	-0.363311	0.867923	0.547703
C	-0.443374	-1.212292	0.715107
N	-0.607015	-2.189289	1.345433
C	-0.24022	-1.227889	-2.21007
H	-0.803549	-2.048532	-1.760831
H	-0.563756	-1.123193	-3.248517
H	0.824949	-1.479098	-2.203526
C	0.011071	1.222202	-2.098617
N	0.423473	2.167036	-2.665372
F	-2.604054	0.0	0.0
