14

C	0.0	0.0	0.0
C	-0.205334	-0.044067	-1.561107
F	1.377862	0.0	0.0
H	0.491354	0.739802	-1.889997
H	-0.383575	0.920983	0.420465
C	-0.494937	-1.159074	0.739748
N	-0.587007	-2.146772	1.371689
C	-1.523729	0.188025	-2.301071
H	-2.257734	-0.556071	-2.015875
H	-1.295706	0.155359	-3.375701
H	-1.940349	1.153264	-2.037059
C	0.387392	-1.300386	-2.045446
N	0.817528	-2.314904	-2.452663
F	-2.360574	0.0	0.0
