14

C	0.0	0.0	0.0
C	-0.402839	0.208101	-1.480591
F	1.381349	0.0	0.0
H	0.53517	0.090854	-2.042812
H	-0.363178	0.815329	0.61681
C	-0.437424	-1.276185	0.579463
N	-0.525921	-2.332048	1.088115
C	-0.953294	1.616914	-1.704587
H	-1.875909	1.658621	-1.127632
H	-1.142703	1.799897	-2.766078
H	-0.22783	2.357043	-1.349373
C	-1.320592	-0.796251	-2.022392
N	-1.890166	-1.590607	-2.675274
F	-2.367931	0.0	0.0
