14

C	0.0	0.0	0.0
C	-0.521974	0.154678	-1.427221
F	1.378963	0.0	0.0
H	-1.630469	0.248593	-1.180776
H	-0.36315	0.828841	0.604858
C	-0.446632	-1.26409	0.609657
N	-0.581404	-2.314562	1.117859
C	-0.233468	-1.067956	-2.294549
H	-0.549243	-0.887752	-3.325009
H	0.830778	-1.32424	-2.298871
H	-0.802592	-1.916044	-1.907611
C	0.031024	1.36688	-2.008288
N	0.455327	2.344681	-2.506505
F	-2.596459	0.0	0.0
