14

C	0.0	0.0	0.0
C	-0.206724	-0.070372	-1.561867
F	1.377903	0.0	0.0
H	0.529761	0.66813	-1.907526
H	-0.3861	0.928333	0.403525
C	-0.502121	-1.14627	0.753711
N	-0.595986	-2.141695	1.373691
C	-1.512392	0.227275	-2.295897
H	-2.287568	-0.454731	-1.973001
H	-1.859955	1.227284	-2.042869
H	-1.307304	0.157925	-3.37342
C	0.327191	-1.362444	-2.017983
N	0.731021	-2.396356	-2.402436
F	-2.362637	0.0	0.0
