13

C 0.56441 0.970027 -0.058829
H -0.736629 0.058694 -1.473919
F 1.91615 -0.053255 0.206335
H -0.693941 2.400212 -0.445988
C -0.548131 -0.03963 -0.392713
H 1.048392 1.510672 -0.851326
H 0.57403 1.417376 0.923428
N -1.736985 0.240958 0.404878
H -2.510046 -0.278623 -0.002601
H -1.895481 1.239598 0.253127
N -0.209723 -1.444137 -0.138207
H -0.298405 -1.54006 0.871791
H 0.796015 -1.488707 -0.28897
