13

C 1.216115 0.155407 -0.455844
H 0.46649 -0.574708 1.385666
F 0.274267 1.223564 -1.475533
F 2.331706 -0.954527 0.565136
C 0.162979 0.127543 0.609255
H 2.013811 0.867224 -0.365438
H 1.245358 -0.622093 -1.192791
N -1.118215 -0.555907 0.019929
O -2.195552 -0.090891 0.346465
O -0.985936 -1.562109 -0.637351
N -0.129673 1.419882 1.104783
H -0.996062 1.398694 1.627534
H -0.270788 1.988021 0.272234
