15

C 0.140342 -0.775079 -0.009192
H 1.775093 0.355112 -0.037043
Cl -1.95123 -0.551089 0.011306
F 2.1695 -1.529265 -0.018121
C 0.709362 0.617937 -0.009971
H 0.211051 -1.344345 -0.918518
H 0.228398 -1.351253 0.893878
C 0.408697 1.386011 1.26773
H -0.661794 1.591389 1.370527
H 0.730268 0.81632 2.145653
H 0.944418 2.343123 1.279266
C 0.347632 1.414878 -1.254116
H 0.612358 0.860261 -2.160297
H -0.724379 1.633007 -1.293337
H 0.893793 2.365803 -1.275959
