13

C -0.682373 0.676402 -0.095369
H -0.755698 -1.380297 -0.564936
Cl 1.386669 1.937315 0.282796
Cl -2.85956 0.109149 -0.284231
C -0.192855 -0.730778 0.118873
H -0.638483 1.108072 -1.078189
H -0.920074 1.281103 0.757698
N -0.267246 -1.091295 1.499069
H 0.012224 -2.05532 1.624846
H -1.238584 -0.997635 1.774595
N 1.220043 -0.971815 -0.415876
O 2.008835 -1.531179 0.308899
O 1.386358 -0.716045 -1.585522
