11

C 0.75876 0.683297 -0.170292
H -1.179093 1.533571 0.165217
F 1.165696 -0.957988 0.109979
H 0.660076 2.665482 -0.536831
C -0.658 0.598153 0.347871
H 0.914466 0.70196 -1.236709
H 1.537005 1.096992 0.442096
H -0.589249 0.449713 1.441414
N -1.3603 -0.499826 -0.327144
H -2.195457 -0.728199 0.2032
H -0.721471 -1.28755 -0.243665
