16

C 0.128685 0.033659 -0.342683
H 0.428162 1.88617 0.570822
Cl -1.949168 -1.030699 -0.745713
Cl 2.396022 0.769232 -0.492055
C -0.442601 1.284603 0.305006
H 0.239829 -0.051274 -1.404667
N 0.613147 -1.150562 0.406612
O 0.605448 -1.09701 1.619813
O 0.985881 -2.090185 -0.251472
C -1.275946 1.106251 1.57475
H -2.146994 0.475251 1.392217
H -0.692354 0.673563 2.386207
H -1.620166 2.100437 1.884616
N -1.129725 1.996354 -0.769289
H -1.403721 2.908925 -0.424281
H -1.976679 1.481803 -0.993289
