15

C 0.599468 -0.111366 -0.4381
H 1.524574 1.57348 0.330726
Br -1.560419 -0.795917 -0.321497
F 2.511621 0.215004 -0.860291
C 0.537845 1.361717 -0.087056
H 0.693043 -0.460432 -1.445387
N 1.174452 -1.032012 0.566229
O 1.347126 -0.586647 1.681847
O 1.409126 -2.162015 0.210773
C -0.442054 1.773425 0.918134
N -1.134766 2.254314 1.70477
C 0.375072 2.169714 -1.373324
H 1.220426 1.914024 -2.012345
H -0.566134 1.925889 -1.872591
H 0.388356 3.241346 -1.161259
