12

C -0.048207 0.053022 -0.135457
H -0.804069 -1.308794 1.288129
Cl 2.255504 0.439068 -0.490105
Cl -2.460209 -0.255156 -0.445682
C 0.170001 -1.05012 0.870503
H -0.083055 -0.156025 -1.188142
H 0.787306 -0.630949 1.679339
C -0.282808 1.385193 0.331281
N -0.440028 2.44435 0.76285
N 0.735567 -2.217125 0.223071
H 0.798036 -2.971045 0.896222
H 1.679084 -1.978828 -0.066556
