13

C 0.188452 -0.222966 -0.070437
H 0.958205 1.743433 -0.029274
Br -2.27033 -0.818088 -0.416081
Br 2.711919 -0.201978 -0.255093
C -0.022257 1.283414 -0.183052
H 0.295829 -0.79441 -0.972168
C 0.227114 -0.869799 1.200415
N 0.254012 -1.36288 2.244304
C -0.880774 1.835621 0.886743
N -1.491428 2.420234 1.671266
N -0.460377 1.619412 -1.520436
H -0.509658 2.625873 -1.618453
H -1.39065 1.232463 -1.65697
