12

C 0.159944 0.073238 -0.285764
H 0.278413 1.917453 0.597986
Cl -1.229236 -1.442099 -0.244911
F 1.784946 1.408937 -0.660334
C -0.455452 1.11213 0.622414
H 0.135358 0.290545 -1.339258
H -0.51203 0.690873 1.639331
C 1.347844 -0.593552 0.187705
N 2.169883 -1.266444 0.645704
N -1.729227 1.584446 0.098701
H -2.065523 2.332055 0.694461
H -2.40231 0.827414 0.157016
