14

C -0.612014 0.403816 0.356252
H 0.498151 0.854265 -1.387004
F 0.057618 -0.762058 1.557435
F -1.335802 1.646973 -0.651913
C 0.717483 0.489324 -0.38038
H -0.800193 1.033993 1.205959
C -1.615495 -0.560857 -0.027138
N -2.425383 -1.316612 -0.347842
C 1.406577 -0.792807 -0.532594
N 2.034085 -1.724815 -0.79358
C 1.616112 1.496059 0.333181
H 1.103242 2.460217 0.348197
H 1.789547 1.153514 1.354242
H 2.576 1.610554 -0.177075
