14

C 0.391899 0.063206 -0.726541
H -0.199502 2.099555 -0.491942
Cl -0.539318 -1.80309 0.158545
H 1.66682 1.097025 -1.367209
C -0.555529 1.122756 -0.14812
H 0.194915 -0.256982 -1.745115
C 1.810898 0.285261 -0.426146
N 2.797672 0.141974 0.245381
N -0.53889 1.177447 1.312566
H 0.418392 1.369686 1.60182
H -0.718735 0.228596 1.636816
N -1.889634 0.937239 -0.686527
H -2.507268 1.517588 -0.127104
H -2.153849 -0.026893 -0.497629
