14

C 0.521808 -0.554913 -0.480764
H -0.593244 0.995472 -1.463946
F 0.157301 -1.169889 0.998023
H 1.128173 0.017854 -2.120281
C -0.564309 0.535023 -0.476484
H 0.341072 -1.448755 -1.056413
C 1.895273 -0.169603 -0.343825
N 2.977757 0.086762 0.005119
C -0.283464 1.602387 0.579476
H -0.204741 1.13064 1.558301
H 0.664836 2.093998 0.350018
H -1.077186 2.354098 0.59595
C -1.877707 -0.066921 -0.25669
N -2.952645 -0.471069 -0.144564
