16

C 0.479863 -0.732796 -0.312258
H 2.273478 -0.012625 0.212856
Br -1.743644 0.046485 -0.146402
F 2.357431 -1.418199 -0.998922
C 1.252661 0.365209 0.394178
H 0.43252 -0.67944 -1.382191
C 0.313994 -2.057365 0.372299
H 1.314725 -2.441782 0.571848
H -0.271422 -1.975735 1.290348
H -0.194924 -2.75265 -0.296107
C 0.978817 0.517859 1.887825
H -0.061825 0.795437 2.067563
H 1.185729 -0.422872 2.403176
H 1.630127 1.285107 2.314779
C 1.172118 1.652533 -0.282066
N 1.188218 2.695535 -0.775394
