14

C 1.215038 0.260967 -0.517956
H 0.053294 1.727597 0.589945
F 0.582829 -1.294984 -0.571746
H 1.799904 2.058381 -0.783369
C -0.04058 1.052072 -0.254977
H 1.566767 0.230525 -1.532352
H -0.389095 1.570759 -1.1416
C 2.171058 -0.018147 0.617166
H 1.59198 -0.375336 1.473325
H 2.843214 -0.829532 0.325925
H 2.7524 0.855662 0.902015
N -1.228725 0.146389 0.156522
O -2.075851 -0.099798 -0.677089
O -1.291142 -0.197361 1.320936
