14

C 0.401895 0.876497 0.407471
H 2.246901 0.141391 0.026063
Br -1.773677 -0.088088 0.157966
F 2.164331 1.597729 1.082156
C 1.234795 -0.289536 -0.110081
H 0.227645 0.909439 1.463794
C 0.195935 2.073001 -0.469069
H 1.158089 2.574608 -0.574297
H -0.200936 1.79114 -1.445922
H -0.514324 2.752085 0.002983
C 1.039517 -0.609866 -1.519766
N 0.982824 -0.832383 -2.648845
C 1.174685 -1.487249 0.718112
N 1.217373 -2.430793 1.377297
