17

C 0.29086 0.752657 -0.614565
H -1.620792 1.568228 -0.38382
Br 1.598053 -0.67041 0.140674
H -1.579227 3.507582 -0.783124
C -1.048022 0.695513 0.083971
H 0.169811 0.381361 -1.628565
C 0.819523 2.146275 -0.572863
H -0.167069 2.706181 -0.659315
H 1.272462 2.415468 0.38318
H 1.501302 2.375952 -1.391967
C -1.040237 0.921693 1.574484
H -0.475509 0.14438 2.093747
H -0.586184 1.89551 1.769063
H -2.058583 0.943492 1.960876
N -1.802963 -0.534579 -0.28811
O -2.513482 -1.056186 0.555697
O -1.724027 -0.922388 -1.44233
