13

C 0.126774 -0.124629 0.10641
H 0.954991 1.337884 -1.209659
Br -2.406741 -0.827753 -0.110751
Br 2.664104 -0.406607 -0.115004
C -0.032742 1.050871 -0.837066
H 0.162878 -1.101033 -0.333234
H -0.642151 0.745981 -1.689014
C 0.129428 0.075759 1.586879
H 0.88886 0.809885 1.865167
H -0.844827 0.444029 1.914161
H 0.346659 -0.861998 2.09601
C -0.633041 2.232156 -0.233767
N -1.059521 3.203275 0.217607
