16

C 0.639401 -0.794454 -0.331123
H -1.290116 -1.26187 -0.985516
Cl 1.368122 0.721539 0.970459
H 0.172046 -2.833198 -1.040834
C -0.873255 -0.645725 -0.183874
H 1.068988 -1.614418 0.211273
C 1.267994 -0.368908 -1.630309
H 0.936163 -1.020602 -2.436686
H 0.996467 0.666678 -1.856469
H 2.355934 -0.424169 -1.554928
C -1.360244 0.712654 -0.420594
N -1.8438 1.731982 -0.668025
C -1.366312 -1.207923 1.143688
H -1.093312 -2.267693 1.157551
H -0.891126 -0.692493 1.980211
H -2.452021 -1.116142 1.237035
