17

C -0.061482 0.683741 0.413253
H 0.999583 -0.813434 1.454636
Cl -2.011654 -0.304887 0.152043
H 1.408111 1.945796 1.672717
C 0.983037 -0.429062 0.421757
H -0.362877 1.066697 1.368457
C -0.096215 1.621329 -0.758488
H 0.844738 2.164664 -0.823789
H -0.233521 1.063715 -1.689288
H -0.921296 2.328734 -0.653739
N 2.278292 0.144188 0.024082
H 2.996019 -0.549583 0.226602
H 2.399906 0.938216 0.670416
C 0.702946 -1.594169 -0.523338
H -0.183419 -2.154852 -0.228427
H 0.564767 -1.237863 -1.547255
H 1.568332 -2.269362 -0.522742
