15

C 0.450974 0.284252 0.450366
H 0.131266 -1.225845 -1.037649
F -1.231232 0.656795 1.614418
Cl 2.436153 -0.327341 -0.334354
C -0.445659 -0.723045 -0.255424
H 0.7632 0.004771 1.437686
C 0.494049 1.713925 0.012666
H 0.637161 1.793004 -1.067796
H -0.453682 2.168917 0.30044
H 1.31858 2.231592 0.503727
C -1.555371 -0.036228 -0.95387
N -2.429994 0.376292 -1.584618
N -0.914406 -1.706987 0.704834
H -1.589512 -2.317244 0.258122
H -1.39368 -1.120107 1.395789
