17

C 0.606234 -0.532255 -0.192772
H 2.231229 0.601278 -0.182406
Br -1.698893 -0.16999 -0.110852
F 2.68379 -1.166835 -0.796735
C 1.177056 0.845449 0.01695
H 0.602397 -0.853627 -1.218934
C 0.74232 -1.577522 0.870505
H 1.818381 -1.743279 0.959761
H 0.291385 -1.269973 1.817442
H 0.272208 -2.508207 0.54856
C 1.01096 1.391238 1.432501
H -0.047652 1.527381 1.679624
H 1.459543 0.732466 2.183212
H 1.510603 2.364145 1.513576
N 0.720677 1.754818 -1.028977
H 1.182342 2.649452 -0.903579
H -0.277444 1.906362 -0.907085
