18

C 0.567789 -0.584605 -0.039589
H 2.218897 0.380109 0.612011
Br -1.71475 -0.069521 -0.236822
F 2.574695 -1.270821 -0.634451
C 1.237598 0.734695 0.274363
H 0.598467 -0.918045 -1.059474
C 0.522978 -1.646378 1.01337
H 1.555652 -1.996622 1.083255
H 0.166577 -1.265928 1.974628
H -0.118788 -2.474646 0.709845
C 0.599143 1.580637 1.369396
H -0.330895 2.041486 1.029008
H 0.365468 0.993409 2.262904
H 1.293155 2.37569 1.669028
C 1.480863 1.519426 -1.004441
H 2.079661 0.885885 -1.66175
H 0.535398 1.778709 -1.494046
H 2.030177 2.447905 -0.805181
