16

C -0.158291 -0.575871 -0.300879
H -0.318985 0.661652 1.435464
F -2.048681 -1.113465 -1.273115
Br 1.92798 0.262034 0.00427
C -0.988105 0.290401 0.650828
H -0.206078 -0.328665 -1.343886
C 0.05523 -2.017572 0.050458
H 0.380113 -2.147223 1.086966
H -0.900353 -2.510092 -0.133189
H 0.814281 -2.452593 -0.601112
C -2.154915 -0.44711 1.320162
H -2.784416 -0.836326 0.519081
H -1.771086 -1.274027 1.924292
H -2.699945 0.234358 1.980954
C -1.485567 1.476235 -0.042674
N -1.880688 2.449488 -0.518195
