14

C -0.447197 -0.731381 0.033178
H -1.527005 0.909102 0.53887
Cl 1.839894 -1.099143 0.038069
F -2.546445 -0.696912 0.341891
C -0.448329 0.7176 0.459236
H -0.481741 -1.455404 0.828425
N -0.721168 -1.023837 -1.293446
H -1.720527 -0.801242 -1.341023
H -0.61608 -2.019542 -1.440339
C 0.101608 1.622144 -0.565926
N 0.487152 2.450686 -1.270899
N 0.1634 0.884344 1.764798
H 0.09632 1.855263 2.044429
H 1.146665 0.640943 1.683352
