15

C 1.032644 0.405191 0.013592
H -0.403204 0.737546 1.548975
F 0.705977 -0.587035 -1.330843
H 1.485517 1.754241 1.260764
C -0.415481 0.542554 0.476311
H 1.422998 1.186281 -0.617485
N 1.871514 -0.542628 0.686674
H 2.580596 -0.026615 1.183915
H 2.278277 -1.124841 -0.03682
C -1.190892 -0.689368 0.294446
N -1.891977 -1.606456 0.265449
C -1.077189 1.709004 -0.24551
H -0.490596 2.604376 -0.014645
H -1.067862 1.530502 -1.323325
H -2.110775 1.86113 0.07832
