17

C -0.497849 0.839929 -0.525597
H -2.483756 0.427468 -0.580371
Br 1.434711 -0.290848 0.103839
H -0.545814 2.008693 -2.961967
C -1.616089 -0.109109 -0.165007
H -0.316992 0.992543 -1.621979
N -0.488721 2.045199 0.087239
H -0.470937 2.058032 1.09335
H 0.077755 2.734425 -0.39363
C -1.847377 -0.29845 1.328117
H -0.96543 -0.746405 1.794809
H -2.063013 0.649446 1.834032
H -2.704204 -0.958391 1.505906
C -1.514154 -1.433637 -0.907421
H -1.331982 -1.256953 -1.970822
H -0.69017 -2.036225 -0.519912
H -2.446488 -2.001747 -0.805004
