14

C 0.96416 0.230132 0.533142
H -0.505291 -0.957057 1.509474
F 0.315482 1.69027 -0.030475
H 1.727453 -1.234395 1.328879
C -0.303564 -0.642014 0.481862
H 1.238684 0.668823 1.480307
N 1.887429 0.115917 -0.5685
H 2.718872 -0.351021 -0.241315
H 2.09034 1.061052 -0.871115
N -0.17439 -1.846291 -0.334345
H 0.619594 -2.305091 0.122317
H 0.223762 -1.520784 -1.214221
C -1.516612 0.071585 0.031327
N -2.54399 0.511491 -0.256873
