14

C -0.383817 0.434816 -0.333528
H -0.052516 -0.758179 1.402186
F 1.221143 1.43128 -1.118482
Cl -2.224637 -0.789704 0.002988
C 0.568182 -0.256483 0.654988
H -0.415588 0.130012 -1.365797
N -0.894331 1.682231 0.112678
H -1.817825 1.810528 -0.280934
H -0.245659 2.335992 -0.324948
N 1.474269 0.651366 1.341336
H 0.870792 1.291393 1.850356
H 1.858233 1.201343 0.565824
C 1.331721 -1.303968 -0.028337
N 1.925002 -2.149858 -0.538282
