14

C -0.778639 -0.990785 -0.02473
H 0.642869 -0.655389 1.557017
Cl -1.744788 0.48806 -0.963237
H 0.370406 -2.66192 0.56378
C 0.574456 -0.493455 0.486427
H -0.681091 -1.657716 -0.870724
N -1.70505 -1.289767 1.028803
H -1.394683 -2.181289 1.400444
H -2.629068 -1.396821 0.62752
N 0.710682 1.09041 0.419415
O 1.220455 1.595744 -0.550211
O 0.333667 1.679878 1.409143
C 1.7097 -1.078807 -0.208929
N 2.692496 -1.310727 -0.775514
