16

C 0.10191 0.571795 0.40876
H -0.195065 -0.853494 -1.150752
F -1.785254 1.317438 1.153309
Br 2.22397 -0.371169 -0.070317
C -0.78466 -0.094361 -0.628173
H 0.13212 0.090546 1.372653
N 0.409618 1.92598 0.231084
H 1.110048 2.186089 0.914655
H -0.493587 2.337733 0.510884
C -1.418056 0.854498 -1.614462
H -2.108168 1.496907 -1.069987
H -0.629761 1.458303 -2.068011
H -1.953138 0.306488 -2.390715
N -1.827411 -0.936102 0.077416
O -2.926703 -1.010838 -0.427847
O -1.461388 -1.590329 1.028639
