11

C 0.000214 -0.431789 -0.125576
H 0.886255 -1.300323 1.606607
Cl -2.333767 -0.438672 -0.447018
Cl 2.334638 -0.436709 -0.448165
C 0.000927 -1.425539 0.985089
H 0.00172 -0.621924 -1.177561
H 0.006906 -2.425687 0.550719
H -0.888509 -1.308162 1.602073
N -0.000516 1.007701 0.228438
O 0.001729 1.274165 1.413084
O -0.004781 1.804289 -0.678067
