13

C -0.087264 0.104892 -0.367657
H -0.742487 1.846752 0.60346
Cl 2.166726 -0.501279 -0.826699
Cl -2.419323 0.361705 -0.663727
C 0.141045 1.539919 0.043922
H -0.173269 -0.259019 -1.36875
H 0.12733 2.094366 -0.908489
N -0.283556 -0.945859 0.662722
O -0.3392 -0.58378 1.81597
O -0.389935 -2.083574 0.266738
N 1.298655 1.786194 0.885139
H 1.350015 2.782522 1.060448
H 2.137258 1.495751 0.396298
