13

C -0.014714 0.557968 -0.494203
H -1.413828 0.774533 1.048806
F 0.469014 1.753607 0.441673
H -0.320691 -0.833522 -1.682442
C -1.461332 0.483971 -0.002253
H 0.284135 0.994164 -1.430316
H -1.988834 1.290946 -0.525153
N 0.91984 -0.47378 -0.045511
O 0.571949 -1.172892 0.908432
O 2.050733 -0.479476 -0.509762
N -2.226285 -0.745497 -0.103725
H -1.735798 -1.409652 0.490004
H -2.026168 -1.096692 -1.04193
