12

C -0.007569 0.174822 0.324925
H -0.916683 0.106701 2.263561
Cl 2.367481 0.128302 0.143304
Cl -2.374379 0.115537 0.195539
C 0.073594 0.046 1.81887
H 0.713131 0.836029 2.209407
H 0.523621 -0.91701 2.05097
N -0.011737 -1.061109 -0.539551
O 0.012181 -2.116926 0.045104
O -0.036507 -0.895478 -1.731067
C -0.020325 1.435914 -0.351526
N -0.028602 2.487943 -0.824758
