19

C 0.051715 0.343962 0.151353
H -1.0278 -0.291895 -1.532642
F 0.075421 -0.636656 1.650956
F 0.38145 1.270541 -1.393622
C -1.226915 -0.277953 -0.462891
N 1.343348 -0.344546 -0.193651
O 1.270017 -1.354327 -0.868362
O 2.381497 0.119428 0.21752
C 0.112448 1.61121 0.956289
H -0.1962 2.457074 0.346587
H -0.511953 1.510633 1.843159
H 1.143675 1.759676 1.272994
C -2.412026 0.639868 -0.209669
H -2.63391 0.711589 0.860873
H -2.21968 1.641813 -0.598521
H -3.29159 0.221764 -0.705722
N -1.562494 -1.635274 -0.05187
H -1.374813 -1.657021 0.947561
H -0.828993 -2.223191 -0.435405
