15

C 0.167011 0.267848 -0.211607
H -0.980412 -0.756028 -1.735953
F -0.1704 0.225441 1.356788
H 0.911659 0.123303 -1.861675
C -0.917059 -0.70692 -0.650089
H -0.609908 -1.688739 -0.284237
N 1.518577 -0.305072 -0.090844
O 1.614603 -1.531933 -0.027351
O 2.445885 0.458543 0.163364
C 0.026832 1.744795 -0.468052
H -0.643423 2.166564 0.286594
H 1.010655 2.200049 -0.368823
H -0.360099 1.945101 -1.465624
C -2.232056 -0.372924 -0.118737
N -3.311028 -0.127627 0.208192
