16

C 0.582001 0.228892 0.19426
H 1.702993 1.36605 -1.146417
Br -1.799181 -0.196407 0.031332
F 2.655627 0.201308 0.290941
C 0.663069 1.336348 -0.824661
H 0.050436 1.062704 -1.683463
N 0.884823 -1.17083 -0.30962
O 1.016538 -1.316709 -1.501349
O 0.95227 -2.047118 0.523137
N 0.60424 0.445853 1.562766
H 1.60676 0.573309 1.731088
H 0.314003 -0.411247 2.020083
C 0.230425 2.671553 -0.248047
H -0.794318 2.621628 0.126662
H 0.878301 2.967093 0.580376
H 0.285633 3.447645 -1.019032
