15

C -0.412813 -0.38692 0.109451
H 0.471142 1.474458 -0.561666
F -0.357299 -0.337472 1.498496
H 0.464602 -0.938954 -2.699848
C 0.66296 0.408609 -0.571811
H 0.645345 -0.056392 -1.701493
N -1.793024 0.449595 -0.078428
O -1.767625 1.655214 0.018226
O -2.794091 -0.212355 -0.249956
N -0.542192 -1.658535 -0.363516
H -0.253449 -1.680745 -1.367811
H -1.46491 -2.041513 -0.208993
N 1.996147 0.190337 -0.074155
O 2.328483 -0.936157 0.260487
O 2.761429 1.153359 -0.098731
