12

C -0.293712 -0.591079 -0.094561
H -1.606257 0.205808 1.405643
Br 2.109877 0.120722 -0.21526
Cl -2.534798 -1.261308 -0.538409
C -0.697905 0.482714 0.873232
H -0.269242 -0.409932 -1.152217
H 0.092253 0.711391 1.585425
C 0.046052 -1.870578 0.440687
N 0.303089 -2.889442 0.918911
N -1.01782 1.780832 0.201381
O -1.335238 2.676069 0.959488
O -0.951562 1.866884 -0.998236
