15

C 0.604343 0.154202 -0.304795
H 0.131004 -1.499862 0.915106
Cl -0.960198 1.899758 -0.853897
Cl 2.271761 -1.48515 -0.333007
C -0.328573 -0.53888 0.670574
H 0.522091 -0.041649 -1.356813
C 1.522727 1.1384 0.177834
N 2.260588 1.911047 0.614922
N -1.584721 -0.978546 -0.060845
O -2.615022 -1.002049 0.57569
O -1.453174 -1.378228 -1.193165
C -0.636858 0.215747 1.941256
H 0.301194 0.418034 2.463494
H -1.132007 1.160902 1.721251
H -1.274187 -0.387873 2.586367
