13

C 0.468584 0.156928 -0.114741
H 2.041863 -0.438484 1.098852
Br -1.610729 -0.104204 -0.148682
F 2.630702 0.223045 -0.928043
C 1.047337 -0.831015 0.88347
H 0.808673 -0.022593 -1.129954
H 0.440282 -0.847583 1.795824
C 0.667264 1.545486 0.234088
N 0.756411 2.648833 0.562078
C 1.205711 -2.20322 0.258289
H 0.250799 -2.608821 -0.09238
H 1.889225 -2.076852 -0.584211
H 1.640115 -2.916821 0.966928
