13

C 0.103223 -0.334591 -0.213517
H -0.112336 1.221086 1.18582
Cl 2.343955 -1.070077 -1.112626
Br -2.244501 0.044169 -0.092617
C 0.511329 1.04714 0.294067
H 0.018038 -0.503001 -1.270054
C 0.148033 -1.442376 0.688249
N 0.136516 -2.289951 1.471992
N 0.288248 2.023151 -0.760155
H 0.552742 2.940791 -0.422202
H -0.711661 2.035533 -0.940289
C 1.886094 1.170182 0.793793
N 2.871159 1.453778 1.320648
