15

C 0.862549 0.693687 0.320487
H -0.134237 0.506974 -1.585858
F 0.46217 -0.248672 1.538685
H 1.438653 1.895816 -1.031494
C -0.399431 0.612564 -0.539283
H 0.99066 1.603282 0.886493
C 2.088102 0.127836 -0.183859
N 3.053367 -0.472644 -0.422273
C -1.326559 1.776612 -0.289535
H -1.598036 1.824087 0.766551
H -0.789684 2.681303 -0.578272
H -2.24666 1.693286 -0.872534
N -1.137314 -0.703105 -0.240671
O -2.172946 -0.673004 0.390303
O -0.649625 -1.702077 -0.720217
