13

C -0.753112 -0.678491 0.131771
H 0.396293 -0.272176 -1.61196
F -0.170293 -0.014003 1.659211
F -1.341894 -1.355797 -1.388488
C 0.370068 0.05615 -0.57046
H -0.5517 -1.672458 0.486774
C -2.048372 -0.081703 0.349956
N -3.090442 0.376299 0.531005
N 1.708324 -0.387511 0.00355
O 2.561291 0.451757 0.163424
O 1.849357 -1.57601 0.164032
C 0.267531 1.504588 -0.516282
N 0.162578 2.648869 -0.577537
