13

C 0.076359 -0.111601 -0.382486
H -0.820689 1.657979 -1.074084
Cl 2.457041 -0.230448 -0.546707
Cl -2.292771 -0.512418 -0.659538
C -0.061853 1.396079 -0.335075
H 0.130595 -0.630105 -1.320033
H 0.887277 1.822467 -0.662721
C 0.090353 -0.897141 0.815804
N 0.099466 -1.484235 1.810048
C -0.446568 1.935466 1.029652
H -1.408949 1.527074 1.346961
H 0.302613 1.677987 1.783327
H -0.52945 3.026134 0.995013
