13

C -0.127 -0.26217 -0.025147
H -0.988781 1.141565 1.288593
Br 2.351594 -0.474014 -0.561585
Br -2.643613 -0.085354 -0.364464
C 0.010145 0.953525 0.886184
H -0.157972 -0.16963 -1.092114
C -0.214217 -1.557656 0.567557
N -0.28112 -2.602646 1.053623
C 0.359681 2.156523 0.104507
N 0.612905 3.165374 -0.393052
N 0.880473 0.69909 2.013203
H 0.88671 1.506339 2.623609
H 1.823226 0.52556 1.676638
