14

C 0.447263 -0.100529 -0.516692
H -0.417915 -1.836308 0.140741
Cl -0.104173 1.97065 -0.291109
F 1.12256 -1.915022 -1.013801
C -0.621509 -0.778214 0.337705
H 0.321973 -0.071799 -1.582099
C 1.78452 -0.001628 0.00209
N 2.828388 0.147097 0.472799
C -1.970296 -0.510364 -0.147394
N -3.064315 -0.39351 -0.493172
C -0.502952 -0.49713 1.832726
H 0.486454 -0.800447 2.180988
H -0.638984 0.564396 2.043243
H -1.254283 -1.069612 2.382189
