15

C 0.630794 -0.050109 -0.391864
H -0.33007 -1.203173 1.134431
F -0.608575 1.398044 -1.124213
Cl 2.004607 -1.503509 0.165249
C -0.472829 -0.239449 0.636965
H 0.42975 -0.440484 -1.373791
C 1.473865 1.11583 -0.320552
N 2.236582 1.975213 -0.205831
N -1.781836 -0.459667 -0.102515
O -2.786254 0.022244 0.37047
O -1.757636 -1.226336 -1.040112
C -0.585219 0.875295 1.644634
H 0.359626 0.962017 2.187624
H -0.785751 1.799414 1.105096
H -1.386475 0.673998 2.355798
