16

C 0.296431 0.303731 0.441847
H -0.784007 1.050905 -1.184943
F -0.047993 -1.249057 1.281331
F 0.814414 1.947233 -0.139614
C -0.92731 0.242617 -0.465637
H 0.244326 0.760075 1.412527
C 1.570225 -0.208915 -0.006684
N 2.57433 -0.635518 -0.384731
C -2.169088 0.530795 0.365409
H -2.251827 -0.217805 1.156611
H -2.100605 1.522939 0.823288
H -3.076027 0.503217 -0.250387
C -1.053832 -1.075031 -1.219043
H -0.145438 -1.293008 -1.788952
H -1.211497 -1.895356 -0.519535
H -1.891584 -1.025107 -1.926296
