12

C -0.587936 -0.030568 -0.187741
H -1.585348 1.817701 -0.082487
Br 1.932412 -0.303071 -0.376196
Cl -2.975368 -0.25495 -0.728216
C -0.548882 1.478396 -0.10798
H -0.551471 -0.543315 -1.128919
H -0.102316 1.826116 -1.050507
C -0.710066 -0.818358 0.999552
N -0.804971 -1.452766 1.959248
N 0.110428 1.941139 1.096879
H 0.034744 2.949095 1.149371
H 1.094354 1.696608 1.043199
