13

C 0.155846 0.136259 0.191342
H -0.733119 -1.630113 0.836895
F -0.420565 -0.161587 -1.445004
F 0.928679 0.354272 1.689021
C -1.025685 -0.577509 0.816122
H -1.136071 -0.235131 1.844482
C 0.153218 1.55721 -0.076181
N 0.109516 2.69559 -0.245702
N 1.362693 -0.670096 -0.236297
O 1.325114 -1.863407 -0.035947
O 2.279388 -0.064766 -0.729266
C -2.305013 -0.44691 0.134376
N -3.38793 -0.376614 -0.253684
