15

C 0.290018 0.055532 -0.036566
H -0.934737 -0.995022 -1.388357
F 0.368738 -0.56381 1.666653
F 0.413876 0.791607 -1.651428
C -1.115809 -0.52426 -0.413035
C 1.444279 -0.772073 -0.318472
N 2.317547 -1.478494 -0.579246
C 0.466231 1.371045 0.546953
N 0.607919 2.427591 0.985885
N -2.02547 0.598549 -0.47901
H -2.924005 0.243502 -0.782421
H -1.662248 1.230187 -1.184267
N -1.675302 -1.516919 0.463934
H -1.506348 -1.177349 1.407101
H -1.097368 -2.348043 0.396693
