14

C -0.181583 -0.020454 -0.067052
H 0.129405 -1.274171 -1.782439
F 1.459822 1.362292 0.504797
Cl -1.883794 -0.896639 -0.260392
C 0.642281 -0.428581 -1.318574
H 0.575885 0.413342 -2.010631
C -0.517765 1.402993 -0.000722
N -1.113344 2.393445 -0.098387
C 0.327985 -0.561002 1.188423
N 0.628589 -1.138629 2.14109
C 2.098682 -0.781539 -1.068472
H 2.581932 0.064495 -0.582166
H 2.189954 -1.657505 -0.419195
H 2.584604 -1.016137 -2.022607
