14

C 0.559587 0.247853 -0.052557
H -0.762794 1.861488 -0.406382
F 1.131934 0.206489 1.656709
F -0.08338 0.082524 -1.749458
C -0.689136 1.038116 0.307424
H -0.570974 1.43076 1.31831
C 0.593125 -1.200454 -0.018461
N 0.659981 -2.352046 0.004921
C 1.78008 1.025435 -0.486316
H 1.609478 1.456134 -1.471572
H 1.989447 1.794279 0.257823
H 2.642423 0.359888 -0.52643
C -1.938729 0.299387 0.238332
N -2.970571 -0.214481 0.242573
