18

C 0.513891 -0.307322 0.183461
H 1.646381 0.457347 -1.405161
Br -1.86914 0.105809 0.132202
F 2.511563 -1.096133 0.125667
C 1.174498 0.906929 -0.521933
C 0.366694 -1.503607 -0.60973
N 0.181996 -2.437211 -1.265321
C 0.554437 -0.4368 1.688279
H 1.5651 -0.737593 1.955129
H 0.310919 0.520653 2.145685
H -0.158971 -1.190141 2.019819
N 2.168875 1.445858 0.399413
H 2.666152 2.189529 -0.079151
H 2.809378 0.658028 0.522592
C 0.276985 2.040207 -0.992086
H -0.472397 1.701778 -1.70669
H -0.235721 2.513326 -0.153523
H 0.909869 2.791991 -1.483347
