15

C -0.703099 -0.501529 0.199947
H 0.20929 -2.237123 -0.542635
Br 0.135222 1.713356 0.072012
F -1.641899 -2.329504 0.02997
C 0.370171 -1.162693 -0.644824
H 0.284824 -0.860161 -1.68341
C -1.916058 -0.165838 -0.506837
N -2.867627 0.181354 -1.062342
C -0.748449 -0.615378 1.703942
H -0.962831 -1.657741 1.933182
H 0.196805 -0.308777 2.143697
H -1.548718 0.016843 2.088356
N 1.790944 -0.918625 -0.2567
O 2.57462 -0.719241 -1.160828
O 2.098671 -1.04594 0.90965
