16

C 0.81345 0.174283 -0.25472
H -0.829436 0.80538 -1.401769
F 1.291186 1.064245 1.216215
F 0.407228 -0.934579 -1.641764
C -0.63175 0.706195 -0.341404
C 1.241937 -1.036309 0.43763
N 1.686424 -1.97202 0.94583
N 1.731611 0.919751 -1.061548
H 2.017133 0.300348 -1.808768
H 2.512845 1.166919 -0.469896
N -0.937878 1.91463 0.359565
H -0.662807 2.682799 -0.238898
H -0.30699 1.933496 1.158683
N -1.637065 -0.328372 0.124031
O -2.570417 -0.565157 -0.612122
O -1.487075 -0.792201 1.232922
