14

C -0.690639 -0.210583 0.225318
H 0.403091 -1.960947 -0.166484
Cl 0.180887 1.86552 0.302482
F -1.657291 -1.902708 -0.021341
C 0.425131 -0.931951 -0.512924
H 0.265363 -0.881064 -1.584917
C -1.801475 0.293659 -0.566735
N -2.697813 0.714854 -1.160394
N -0.799277 -0.361718 1.629331
H -1.45288 -1.128637 1.750269
H -1.149017 0.491745 2.041197
N 1.828722 -0.45827 -0.273715
O 2.450317 -0.071623 -1.24335
O 2.281491 -0.58855 0.839515
