17

C 0.268141 -0.073873 0.407677
H -0.93425 1.492489 0.938076
Cl 0.4068 -1.382332 -0.90368
H 0.830867 1.638738 2.173057
C -1.031301 0.706642 0.175299
C 1.470702 0.801641 0.240086
N 2.474881 1.141123 -0.242528
N 0.225428 -0.756189 1.67315
H 0.405927 0.067776 2.302557
H 1.071014 -1.32031 1.732447
C -2.275485 -0.129781 0.447208
H -2.391731 -0.916433 -0.307004
H -2.224168 -0.607123 1.426808
H -3.16388 0.512145 0.406207
N -1.010267 1.350741 -1.129334
H -1.783645 2.002088 -1.187083
H -1.148368 0.65278 -1.853146
