15

C -0.571115 0.262088 -0.003562
H 0.763794 0.581813 1.610478
F 0.018935 0.237881 -1.691193
F -1.247731 0.126744 1.677974
C 0.870539 0.457024 0.532343
C -1.158999 -1.050966 -0.235975
N -1.673483 -2.062308 -0.446653
N -1.321312 1.457512 -0.227967
H -2.123655 1.414202 0.385072
H -1.590384 1.467053 -1.202111
N 1.529314 1.626215 -0.022005
H 0.885711 2.391775 0.162374
H 1.469229 1.490317 -1.029004
C 1.708355 -0.723122 0.317127
N 2.40288 -1.635266 0.201278
