15

C -0.467656 0.701501 0.396448
H -2.359438 0.313597 1.187475
Br 1.215585 -0.283447 -0.050258
H 0.084416 2.210105 2.675483
C -1.556757 -0.291993 0.741325
H -0.24209 1.317893 1.327399
H -1.190105 -0.923943 1.557947
C -0.782657 1.643817 -0.738309
H -0.981006 1.148086 -1.694844
H -1.667034 2.228796 -0.454113
H 0.038496 2.352885 -0.873341
C -2.106315 -1.151562 -0.386813
H -2.590444 -0.548673 -1.162424
H -1.305649 -1.724337 -0.864935
H -2.852321 -1.864324 -0.015534
