14

C -0.240954 -0.427191 0.153953
H -0.992132 1.47638 0.691817
Br 2.258036 -0.861786 -0.462532
Br -2.710873 -0.301147 -0.152788
C -0.031982 1.076572 0.333815
H -0.267335 -0.819925 -0.84182
C -0.258874 -1.288346 1.378945
H 0.721936 -1.288791 1.856471
H -1.001618 -0.922029 2.091399
H -0.519134 -2.309998 1.105659
C 0.249179 1.781449 -0.915502
N 0.40233 2.395454 -1.876674
C 0.942307 1.42559 1.373009
N 1.590458 1.770055 2.260577
