15

C 0.153678 -0.465435 0.080522
H -0.126528 1.474029 0.812423
Cl 2.382676 -1.455311 -0.697571
Br -2.276763 -0.074261 -0.025598
C 0.522639 1.007264 0.050574
H 0.030743 -0.969605 -0.857992
C 0.201157 -1.184252 1.390094
H 1.231979 -1.21915 1.748542
H -0.419288 -0.67323 2.130604
H -0.156198 -2.206555 1.27511
N 0.32731 1.567154 -1.276477
H 0.497394 2.565942 -1.243046
H -0.657143 1.433345 -1.49303
C 1.878906 1.302514 0.533517
N 2.850113 1.714864 0.998444
