15

C -0.741641 0.125968 -0.393947
H 0.222541 0.912404 1.293821
F -0.259705 -1.448163 -1.121934
F -1.085869 1.927498 0.100827
C 0.417993 0.100028 0.592465
H -0.600451 0.56384 -1.362553
C -2.10826 -0.284647 0.069702
H -2.351084 -1.276927 -0.311714
H -2.143086 -0.302735 1.160823
H -2.829959 0.453137 -0.278109
C 1.682162 0.420809 -0.093382
N 2.722182 0.644494 -0.542793
N 0.487997 -1.176262 1.298231
H 1.368035 -1.242301 1.796008
H 0.471391 -1.872018 0.554603
