13

C 0.390919 0.651504 -0.098154
H 1.538886 -0.805415 -0.958813
Cl -1.802363 0.991109 -0.205608
F 2.447235 0.769285 -0.383833
C 0.458644 -0.673043 -0.819757
H 0.562117 1.520663 -0.699179
H -0.025439 -0.598469 -1.795667
C 0.577991 0.70419 1.384549
H -0.140951 0.061729 1.897734
H 1.599386 0.378718 1.581979
H 0.451969 1.725716 1.74557
C -0.096437 -1.810889 -0.108442
N -0.47966 -2.755134 0.432721
