18

C -0.146947 -0.593402 -0.117588
H -1.619809 0.473087 0.783542
Cl 1.997284 -0.214822 -0.547113
F -2.206449 -1.137137 -0.436648
C -0.671905 0.759141 0.314531
H -0.309246 -0.886307 -1.136631
C -0.008588 -1.684169 0.896866
H 0.538726 -1.353977 1.784192
H -1.031583 -1.971012 1.14649
H 0.512716 -2.543847 0.472878
C -1.023242 1.595671 -0.905138
H -0.132717 1.802227 -1.509053
H -1.745822 1.025465 -1.492296
H -1.472926 2.55425 -0.61756
C 0.181203 1.524684 1.320262
H 0.481007 0.898864 2.166762
H 1.093919 1.906551 0.85868
H -0.39317 2.369352 1.720143
