16

C 0.127005 0.164487 0.20058
H 0.554132 1.821682 -1.071177
F 1.599836 -1.265684 0.294519
Cl -1.747524 1.311901 -0.110542
C 1.01612 0.870893 -0.803388
H 1.035274 0.234925 -1.693685
C 0.23855 0.414347 1.668997
H 1.147505 -0.068028 2.01972
H 0.290335 1.489001 1.84195
H -0.626038 -0.003391 2.179927
N -0.557406 -1.107595 -0.236396
O -0.566475 -1.365334 -1.418548
O -1.102111 -1.762315 0.622159
N 2.325591 1.135831 -0.213693
H 2.915574 1.535704 -0.935485
H 2.673955 0.204108 0.011895
