16

C -0.208294 -0.450225 -0.216795
H 0.325784 1.530415 -0.688507
Cl -2.632159 -1.084394 -0.034243
Br 2.348314 0.12911 -0.034958
C -0.615366 1.000371 -0.520811
C 0.079773 -1.376297 -1.371471
H -0.853822 -1.768347 -1.771288
H 0.595976 -0.824154 -2.154256
H 0.710236 -2.197483 -1.03523
C -0.107222 -0.918364 1.133204
N -0.022472 -1.324551 2.211466
C -1.249086 1.684834 0.620486
N -1.725763 2.359266 1.425015
N -1.372246 1.082093 -1.75248
H -1.493839 2.055557 -2.001801
H -2.284098 0.660275 -1.598951
