15

C -0.477632 0.030317 0.13307
H 0.30323 -1.36005 -1.250186
Cl -2.950791 0.469964 0.139661
Br 2.239687 -0.068352 0.007512
C -0.687166 -1.036598 -0.928388
H -1.180999 -0.55723 -1.783293
C -0.391422 -0.332517 1.591066
H -1.394298 -0.463194 1.995865
H 0.14793 -1.273053 1.683979
H 0.131122 0.444826 2.145441
C -0.317935 1.389891 -0.292804
N -0.220781 2.487131 -0.642966
N -1.388666 -2.179891 -0.379781
H -1.364588 -2.934495 -1.053629
H -2.35695 -1.911123 -0.233766
