16

C 0.708424 -0.232376 -0.158659
H -0.775018 -0.466537 -1.692461
F 0.3618 -0.379615 1.467245
H 1.181913 0.320178 -1.859783
C -0.755188 -0.421772 -0.604317
C 1.62951 -1.427066 -0.343095
H 1.308979 -2.060781 -1.168939
H 2.64367 -1.082522 -0.542289
H 1.612892 -2.013431 0.57835
C 1.283774 1.078062 -0.242819
N 1.729426 2.128586 0.022269
C -1.603964 0.71866 -0.205379
N -2.385737 1.523203 0.064226
N -1.260355 -1.680046 -0.067637
H -2.25123 -1.754271 -0.265068
H -1.136089 -1.621344 0.938596
