16

C -0.385816 -0.286333 -0.292924
H 0.262317 -0.530104 1.731725
F 1.159049 -0.371932 -1.648002
Cl -2.041899 0.156118 1.136325
C 0.736874 -0.440434 0.752545
C -1.009653 -1.534909 -0.864354
H -0.356743 -1.890069 -1.658284
H -1.101008 -2.290618 -0.085853
H -1.997822 -1.303179 -1.260372
C -0.567619 0.951826 -1.010463
N -0.805056 1.932837 -1.570282
C 1.594936 0.75674 0.824699
N 2.336891 1.620552 1.007774
N 1.488982 -1.657478 0.501733
H 2.23331 -1.731204 1.185016
H 1.882737 -1.514161 -0.429339
