15

C -0.325114 0.316733 -0.196603
H 1.19477 0.571003 -1.726898
F 0.033089 0.504171 1.463106
H -0.856444 -0.292957 -1.831523
C 1.123234 0.559228 -0.639564
H 1.382064 1.557304 -0.2698
C -1.310575 1.461752 -0.323187
H -1.124343 2.148461 0.506856
H -1.198179 1.994023 -1.268857
H -2.335865 1.094151 -0.258758
C -0.804602 -1.033543 -0.240171
N -1.095614 -2.1352 0.043431
N 2.076779 -0.391741 -0.094463
H 1.830313 -1.308604 -0.459486
H 1.844078 -0.43736 0.89489
