15

C -0.514053 0.079365 0.161713
H -0.171513 -1.608118 -1.121367
F -2.564588 0.728249 0.177148
Br 1.828093 -0.236762 -0.044904
C -0.997857 -0.941018 -0.873416
H -1.258412 -0.372089 -1.776469
C -0.613372 -0.24732 1.629862
H -1.655906 -0.103009 1.907366
H -0.318733 -1.28227 1.797744
H 0.026765 0.415589 2.211885
C -0.457592 1.469705 -0.223789
N -0.308652 2.573217 -0.533505
N -2.090591 -1.730672 -0.327553
H -2.427196 -2.352844 -1.054093
H -2.805006 -1.02705 -0.126572
