19

C -1.009035 0.334873 0.331829
H 0.610355 1.149272 1.438829
Cl -0.706852 -1.41877 -0.953983
H -1.099534 2.277886 1.383306
C 0.427416 0.877181 0.397807
C -1.520901 -0.404274 1.548297
H -2.391369 -1.001775 1.267823
H -0.753451 -1.08008 1.928159
H -1.803423 0.307374 2.321829
C -2.03299 0.955088 -0.60546
H -2.569222 1.753777 -0.101018
H -1.528835 1.35468 -1.486057
H -2.736262 0.184011 -0.931169
N 0.651377 1.920606 -0.558985
H 1.633056 2.170897 -0.559218
H 0.104117 2.693491 -0.180022
N 1.546882 -0.184769 0.215886
O 2.386822 -0.01737 -0.642543
O 1.610216 -1.034943 1.080305
