18

C -0.702115 -0.186321 -0.152649
H -0.525328 1.655556 0.683001
Cl 0.980269 -1.849633 -0.194607
F -2.153975 1.425651 -0.060662
C 0.186224 0.823776 0.572201
C -1.673649 -1.002189 0.648361
H -1.718 -2.021698 0.263635
H -1.375991 -1.021945 1.696165
H -2.636468 -0.502788 0.550782
C -0.834327 -0.14376 -1.646317
H -1.596278 0.605971 -1.856691
H 0.108043 0.124769 -2.124968
H -1.14247 -1.1217 -2.019833
C 1.298371 1.31849 -0.253335
N 2.184247 1.810651 -0.807256
N 0.615696 0.374563 1.884128
H 1.093692 1.133602 2.353521
H 1.26739 -0.395337 1.760988
