17

C -0.96031 -0.528287 -0.095884
H 0.57879 -1.922284 -0.619564
Cl -0.588414 1.604757 0.181195
H -1.19118 -2.675203 -0.732865
C 0.397494 -0.853359 -0.702625
H 0.425722 -0.561204 -1.748878
C -2.156167 -0.328526 -1.015259
H -2.782078 0.481547 -0.625046
H -1.828478 -0.045009 -2.018592
H -2.732067 -1.244833 -1.087687
C -1.260424 -0.887484 1.342277
H -1.535855 -1.937867 1.403335
H -0.394121 -0.693241 1.972684
H -2.091929 -0.272246 1.696715
N 1.622272 -0.227954 -0.083237
O 2.462922 0.202654 -0.853
O 1.796424 -0.356269 1.114399
