18

C -0.091027 -0.335294 0.015349
H 1.84201 0.104545 -0.40801
Cl -2.253414 0.114938 -0.096654
F 2.853892 -0.521664 -0.030414
C 0.673069 0.677356 -0.646991
H 0.530452 0.656222 -1.731522
C -0.059322 -1.675188 -0.667869
H -0.715507 -2.398652 -0.180565
H -0.345234 -1.589388 -1.718091
H 0.984095 -2.007629 -0.608621
C 0.078068 -0.419137 1.508143
H 1.144105 -0.625438 1.664737
H -0.183847 0.51768 2.000971
H -0.528124 -1.218927 1.937565
C 0.693644 2.077478 -0.08093
H -0.315618 2.504977 0.00116
H 1.154664 2.10736 0.912243
H 1.289416 2.739005 -0.719236
