18

C -0.395202 0.518987 0.04468
H 0.168868 -1.12694 -1.153706
F 1.569973 1.435263 0.480677
Cl -2.278762 -0.585722 -0.391436
C 0.490503 -0.714972 -0.184312
C -0.504387 1.50514 -1.083199
H 0.331345 2.193562 -0.962578
H -0.436073 1.003712 -2.051603
H -1.457205 2.035951 -1.036507
C -0.758781 0.966251 1.43312
H -1.778911 1.353956 1.456269
H -0.666814 0.131261 2.127254
H -0.041036 1.73678 1.707779
N 0.335952 -1.690115 0.892744
H 1.016767 -2.426802 0.751707
H -0.590806 -2.093096 0.796156
C 1.932555 -0.439836 -0.354189
N 3.017611 -0.707298 -0.670323
