16

C 0.333998 0.508437 0.033021
H -0.327509 -0.526753 -1.734436
F -0.827544 2.316703 -0.008481
Cl 1.469439 -1.519058 -0.011769
C -0.766805 0.013071 -0.893057
H -1.264574 0.927443 -1.231286
C 0.186193 0.543726 1.527528
H -0.140332 1.551311 1.780237
H -0.560443 -0.176362 1.865912
H 1.136191 0.305658 2.008056
C 1.453345 1.281955 -0.605005
H 2.369247 1.175146 -0.021696
H 1.652931 0.92359 -1.617099
H 1.122915 2.319777 -0.62913
C -1.762856 -0.845713 -0.280203
N -2.597748 -1.505001 0.16602
