14

C 0.008849 -0.100384 0.248675
H 1.929371 -0.830152 0.930761
F -0.085024 0.759999 -1.271611
H -0.022866 -0.997598 1.999953
C 1.52155 -0.044218 0.298555
H 1.81309 0.925158 0.707538
H 1.919608 -0.125095 -0.720647
C -0.622177 -1.380303 -0.279884
H -0.619144 -1.349335 -1.378036
H -0.084653 -2.259386 0.074052
H -1.653025 -1.466363 0.071198
N -0.759235 0.943466 0.898922
H -1.24957 0.512223 1.667688
H -1.402282 1.295726 0.195464
