17

C -0.80052 -0.258205 -0.232554
H 0.498763 0.585212 -1.691817
F -0.483662 -0.084418 1.443328
H -1.16894 -0.530142 -2.200877
C 0.485065 0.49926 -0.607012
C -2.112457 0.505314 -0.260062
H -2.357776 0.831502 0.759633
H -2.040405 1.377699 -0.907226
H -2.904742 -0.134205 -0.644416
N -0.723236 -1.690918 -0.172681
H -1.27644 -2.057182 -0.931144
H -1.071361 -1.974412 0.737833
C 1.680615 -0.276237 -0.21721
N 2.708707 -0.733417 0.042577
N 0.494561 1.834629 -0.01284
H 1.386959 2.277542 -0.198248
H 0.410453 1.690892 0.987942
