18

C -0.47949 -0.165298 -0.06609
H 0.370213 1.546242 0.853482
F 0.62429 -1.495657 -0.757439
F -1.670399 1.269356 0.565313
C 0.753996 0.657641 0.356161
C -1.164207 -1.109011 0.894049
H -1.066263 -2.13344 0.529788
H -0.696323 -1.034513 1.876562
H -2.210363 -0.819722 0.977604
N -1.020693 0.0762 -1.371762
H -1.919812 0.50696 -1.192025
H -1.115991 -0.824986 -1.821919
N 1.550861 1.078796 -0.79578
H 0.909927 1.589367 -1.399703
H 1.695851 0.204852 -1.302386
N 1.55598 -0.110684 1.298172
H 2.442125 0.379161 1.374227
H 1.740795 -0.987381 0.814378
