13

C 0.970144 0.078916 -0.205944
H -0.045212 -1.338804 1.03829
F 0.155336 1.662151 -0.507516
F 1.780324 -1.54791 -0.060771
C -0.154372 -0.303964 0.712417
H 0.876914 -0.127337 -1.259261
H -0.191628 0.382419 1.551961
N 2.098055 0.722069 0.391523
H 2.158561 1.63676 -0.035002
H 2.897534 0.147056 0.165344
N -1.492568 -0.229993 0.063452
O -2.412922 0.203098 0.733092
O -1.618347 -0.680912 -1.054394
