14

C 1.142184 -0.132193 0.345692
H 0.186097 0.385073 -1.46134
F 0.165577 -1.281608 1.37777
F 2.053818 1.092397 -0.480037
C -0.094492 0.359906 -0.409894
H 1.379467 0.339015 1.286471
N 1.873798 -1.205124 -0.226406
H 1.797682 -1.979052 0.41807
H 2.828811 -0.895804 -0.34044
C -0.499191 1.690722 0.018922
N -0.823509 2.751285 0.329063
N -1.29212 -0.575789 -0.35112
O -2.241543 -0.264669 0.328944
O -1.229057 -1.541524 -1.075372
