16

C -0.615142 0.615646 -0.148822
H 0.793774 0.818972 1.43639
F -0.663107 -0.710579 -1.273706
H -0.652825 2.385357 0.737093
C 0.710289 0.236558 0.520627
H -0.631461 1.325395 -0.958593
N -1.82088 0.227543 0.540569
H -2.421417 -0.191253 -0.161658
H -2.229023 1.083824 0.887375
C 1.86363 0.582227 -0.399279
H 1.744962 0.050113 -1.347964
H 1.870142 1.659124 -0.59868
H 2.818053 0.294336 0.052569
N 0.750925 -1.180072 0.893728
H 0.469992 -1.662276 0.040846
H -0.057206 -1.307276 1.500737
