13

C -0.404927 -0.92791 -0.248455
H -2.237162 -0.172685 0.261241
Br 1.764756 0.071101 -0.241102
F -2.151217 -1.808921 -0.679074
C -1.236997 0.282171 0.174917
H -0.260864 -1.086712 -1.302188
N -0.182126 -1.895804 0.752897
H 0.716574 -2.333979 0.606666
H -0.940303 -2.557873 0.602398
C -1.332227 1.310611 -0.854273
N -1.472335 2.113204 -1.668187
C -0.877369 0.856741 1.468409
N -0.713343 1.327359 2.50651
