19

C -0.548642 0.024312 0.459927
H -1.725807 1.666271 0.539365
Br 1.829378 -0.267639 -0.079804
F -2.59746 -0.184827 0.556983
C -0.774014 1.466882 0.03703
N -0.464117 -0.225308 1.818319
H -0.184767 -1.193173 1.939418
H -1.443001 -0.154094 2.103253
N -0.82187 -1.200491 -0.4167
O -1.00633 -1.05092 -1.597814
O -0.800859 -2.267822 0.157388
C -0.988507 1.726108 -1.444672
H -0.115948 1.430942 -2.03204
H -1.855451 1.181346 -1.812839
H -1.154835 2.800873 -1.586448
C 0.266774 2.42056 0.620951
H 0.524099 2.141851 1.644068
H 1.184392 2.426628 0.031076
H -0.154036 3.43352 0.62709
