14

C -0.706286 -0.119457 -0.325455
H -0.208716 1.653308 -1.321117
F -2.853796 -0.244693 -0.378391
Br 1.743652 -0.151992 -0.078825
C -0.824568 1.379865 -0.453057
H -1.879031 1.534724 -0.687229
N -0.774487 -0.864127 -1.513193
H -1.795573 -0.850992 -1.658498
H -0.497702 -1.81966 -1.322493
C -0.908644 -0.763397 0.954663
N -1.027288 -1.347051 1.944056
N -0.497339 2.065775 0.779631
H -0.73551 3.045206 0.689722
H 0.503665 1.995133 0.933646
