13

C 0.368302 -0.145256 0.157415
H -0.727366 -1.494844 -1.072066
F -0.263789 1.521975 0.399315
F 1.169554 -1.700598 -0.179143
C -0.738062 -0.42689 -0.852826
H -0.527696 0.117059 -1.77644
N 0.163686 -0.482011 1.526119
H 0.182601 0.378729 2.054507
H 0.905967 -1.111956 1.794889
C 1.599793 0.495655 -0.303181
N 2.58865 0.99145 -0.634224
C -2.069608 -0.056383 -0.395395
N -3.173469 0.135683 -0.123112
