14

C -0.551865 -0.437826 0.22174
H 0.512715 0.394633 1.798839
Cl 0.108173 -0.499558 -1.918769
F -1.254797 -0.274344 2.021143
C 0.690484 0.334396 0.717042
N -0.540249 -1.843273 0.401048
H -0.801884 -2.312797 -0.453249
H -1.1801 -2.029754 1.162847
C -1.755626 0.293572 -0.122494
N -2.739723 0.817731 -0.420092
C 0.806381 1.70152 0.221122
N 0.915699 2.805555 -0.08612
C 1.936639 -0.4014 0.518199
N 2.959618 -0.927451 0.474691
