16

C -0.305214 -0.15229 -0.027744
H 0.845914 0.465069 -1.657935
F -1.716484 1.194391 -0.009967
F 1.0039 -1.497506 -0.102313
C 0.676985 0.833373 -0.63658
H 0.184299 1.803219 -0.682804
N -1.128644 -0.906637 -0.926717
H -2.074171 -0.611999 -0.717742
H -0.97713 -1.88168 -0.701642
C -0.43965 -0.295724 1.470527
H -0.209288 -1.322806 1.757848
H 0.269272 0.373018 1.963656
H -1.45331 -0.020457 1.756653
N 1.902902 0.931334 0.158305
H 2.583764 1.469809 -0.367714
H 2.231371 -0.031178 0.201867
