17

C	0.0	0.0	0.0
C	-0.44134	0.162122	-1.448995
F	1.402106	0.0	0.0
H	-1.529747	0.268359	-1.457136
H	-0.009121	1.102262	-1.810053
C	-0.417727	1.189145	0.84801
H	-1.508257	1.236789	0.876504
H	-0.014343	2.11969	0.437265
H	-0.030792	1.063611	1.864985
N	-0.456765	-1.267919	0.508154
H	-1.468024	-1.285483	0.358609
H	-0.317777	-1.282646	1.514
C	-5e-06	-0.993472	-2.34074
H	-0.511424	-1.914271	-2.061272
H	1.074704	-1.162243	-2.2473
H	-0.228439	-0.776313	-3.388528
Br	-3.931772	0.0	0.0
