17

C	0.0	0.0	0.0
C	-0.465426	-0.181046	-1.434881
F	1.427692	0.0	0.0
H	-0.088631	-1.153836	-1.778935
H	-1.558954	-0.238651	-1.400707
C	-0.459878	1.294683	0.62981
H	-1.552086	1.334078	0.585618
H	-0.023105	2.152249	0.114708
H	-0.138969	1.330091	1.675214
N	-0.447815	-1.099261	0.77991
H	-0.152059	-1.976754	0.373549
H	-0.111939	-1.029791	1.731657
C	0.004445	0.913199	-2.385204
H	-0.481065	1.865374	-2.160549
H	-0.250833	0.65782	-3.417604
H	1.086325	1.049632	-2.322324
Br	-4.280846	0.0	0.0
