17

C	0.0	0.0	0.0
C	-0.314981	-0.291416	-1.471153
F	1.399626	0.0	0.0
H	0.024436	-1.319342	-1.64235
H	0.360974	0.356677	-2.039538
C	-0.447336	1.375849	0.455255
H	-0.081614	2.151769	-0.222612
H	-0.043379	1.572475	1.45397
H	-1.538497	1.412516	0.498665
N	-0.465063	-1.072288	0.837291
H	-0.496328	-0.761591	1.802636
H	-1.424308	-1.283491	0.575488
C	-1.742633	-0.100892	-1.956676
H	-2.47673	-0.703722	-1.424985
H	-2.080152	0.929942	-1.841829
H	-1.800234	-0.356081	-3.019852
Br	-4.675879	0.0	0.0
