11
Coordinates from ORCA-job run
  C   -0.07384395532583      0.44448205538179     -0.12661354660233
  C   1.24021123094700      0.12550269937982     -0.03208213437047
  H   2.00693179950439      0.86589150876198     -0.23968153878095
  C   -0.41048827457605      1.78515414300214     -0.51072793640596
  N   -0.71974135093070      2.87711306446774     -0.82302780598098
  C   -1.21525245755621     -0.49301448538360      0.13632613174909
  H   -0.85343469877562     -1.48163912290622      0.42000426595293
  H   -1.84604021731962     -0.10038295347583      0.93797809514992
  H   -1.83859056142867     -0.58443762030091     -0.75690583302118
  C   1.67335754150276     -1.18070554318434      0.34258335738315
  N   2.03689094395853     -2.25696374574258      0.65114694492679
