11
Coordinates from ORCA-job run
  C   -0.08745536976181      0.43669669552431      0.14338710851335
  C   1.23330636133641      0.13206179648053      0.12813891880868
  H   1.97518313050016      0.86589639010378      0.42852926510639
  C   -0.46508790371588      1.75326937323828      0.57035074696836
  N   -0.80760949079482      2.82538034826043      0.91502095998013
  C   -1.19698040108418     -0.49364766403449     -0.24938349333053
  H   -0.80522576276725     -1.46368950640976     -0.55648135757779
  H   -1.88205282513870     -0.63562671995248      0.59043282972602
  H   -1.77248896148356     -0.06420616876188     -1.07344260026935
  C   1.70611535175845     -1.14993157031685     -0.28067284894563
  N   2.10229587115118     -2.20620297413187     -0.61687952897963
