11
Coordinates from ORCA-job run
  C   -0.14854068661580      0.13085505352199     -0.02127811845319
  C   0.89475099857091     -0.72086549643934      0.12074508036517
  H   0.71115804772971     -1.78910471579695      0.19330053441984
  C   0.08591970994610      1.54235738425858     -0.11675512125979
  N   0.23091314987323      2.70783469674899     -0.19836983398406
  C   -1.57750414023621     -0.32461364974296     -0.08609266076316
  H   -2.03282950720496     -0.01332130521309     -1.02957671536390
  H   -1.64153719761799     -1.41036962593450     -0.00369240830348
  H   -2.15654426820527      0.12734026185408      0.72304353829839
  C   2.25232213206794     -0.28972394426311      0.18297712867388
  N   3.38089176169235      0.04061134100630      0.23769857637030
