11
Coordinates from ORCA-job run
  C   -0.05839166483739      0.46433774245232      0.00306983291409
  C   1.20903311293857      0.07936708411336      0.29075577006370
  H   1.97838281122301      0.81654204110146      0.50025445429436
  C   -0.34206237360400      1.87038067408182     -0.01431050517981
  N   -0.60560125700383      3.01730987041909     -0.03737390521186
  C   -1.19821962038741     -0.46237706470185     -0.30157343961400
  H   -2.00823327533947     -0.30921945904062      0.41611560875944
  H   -0.87843026724171     -1.50389405299677     -0.26006311273320
  H   -1.59695647449460     -0.25133344981597     -1.29715657908272
  C   1.58916156495750     -1.29469816138564      0.33270497596275
  N   1.91131744378932     -2.42641522422721      0.36757689982726
