11
Coordinates from ORCA-job run
  C   -0.06277575472183      0.46387972851634     -0.00345504057081
  C   1.21912375752415      0.09813421197175      0.24236121626956
  H   1.98755736293958      0.84728817248018      0.40809164907333
  C   -0.36395530890965      1.86609449953107     -0.03657133619450
  N   -0.64457836955350      3.00871614287002     -0.07111631393980
  C   -1.20289577739448     -0.48076647945742     -0.24596605962041
  H   -1.64407388433862     -0.29200904315379     -1.22798718163744
  H   -1.98485012274146     -0.32415195364724      0.50147555482359
  H   -0.86925685285277     -1.51770500352188     -0.19937879348990
  C   1.61579841086970     -1.27079183153526      0.29471514334122
  N   1.94990653917887     -2.39868844405379      0.33883116194517
