11
Coordinates from ORCA-job run
  C   -0.15002020155910      0.12915322187583     -0.02000295310091
  C   0.90474783353360     -0.70894978968304      0.11760865979521
  H   0.73765638867984     -1.78180535298976      0.15688488861998
  C   0.06139419022660      1.54657027211077     -0.07306075731327
  N   0.18524130150147      2.71626635891629     -0.12358628094173
  C   -1.56984876025025     -0.34729276154882     -0.12315567815680
  H   -2.16976499088681      0.07001581194514      0.68943936965847
  H   -2.01433847085189     -0.01382748503113     -1.06418660587545
  H   -1.61744942390701     -1.43593169421348     -0.07517607279275
  C   2.25386447468389     -0.25865807665552      0.21619616585463
  N   3.37651765882966      0.08545949527373      0.30003926425262
