11
Coordinates from ORCA-job run
  C   -0.15313500853080      0.11750025526026     -0.04454885892205
  C   0.92276767032616     -0.65117073357649      0.24802681982143
  H   0.77691365079066     -1.65982153209579      0.62452037676914
  C   0.03127643493709      1.44983360159746     -0.54194543078100
  N   0.13528358388950      2.54874557136219     -0.95139501160381
  C   -1.56888946438414     -0.35250502491623      0.12310361088523
  H   -2.09567763009885     -0.31779496139973     -0.83391184173588
  H   -1.59512415048475     -1.37413723473661      0.50430378975022
  H   -2.10561561825398      0.29918442223259      0.81714744108765
  C   2.26731424839672     -0.20464589866749      0.08877824383115
  N   3.38488628341239      0.14381153493984     -0.03407913910208
