11
Coordinates from ORCA-job run
  C   -0.05282506415136      0.46432062045195     -0.02305145721898
  C   1.19152666491439      0.08577850236496      0.35849579129272
  H   1.95480241454364      0.82717398795252      0.57529621495925
  C   -0.32162343739765      1.86952607214357     -0.12948830787565
  N   -0.57521711806274      3.01486168413527     -0.22616799775266
  C   -1.18215621009844     -0.46850354870736     -0.34773337828883
  H   -1.52166012283924     -0.30304822062608     -1.37347990361046
  H   -2.03023696551734     -0.27537245409532      0.31415459268153
  H   -0.87516894461092     -1.50895882978123     -0.23817804587542
  C   1.55444494486115     -1.28715302581142      0.49080001505316
  N   1.86011383835853     -2.41862478802687      0.60035247663533
