11
Coordinates from ORCA-job run
  C   -0.14985475433474      0.12392870877035     -0.03955903718311
  C   0.90631318380544     -0.68175150060713      0.22396106084866
  H   0.73908058050063     -1.66311275446943      0.65920692316879
  C   0.06194417987954      1.41947440982062     -0.61670309280095
  N   0.18671048713075      2.48944555088823     -1.09194819371151
  C   -1.57164152963133     -0.26707737691409      0.24185539680655
  H   -2.03212319802883      0.44493953857694      0.93121005611803
  H   -2.15775130432930     -0.25584068439606     -0.68054387477197
  H   -1.61953125147534     -1.26508096755815      0.67910608912397
  C   2.25649614401072     -0.31322751845197     -0.04693804719044
  N   3.37935746247246     -0.03169740565930     -0.26064728040801
