11
Coordinates from ORCA-job run
  C   -0.05883057052378      0.46334107096245     -0.02764574260837
  C   1.20025382743725      0.10138734719192      0.31985512189752
  H   1.96217704882226      0.85285582393206      0.50430507897959
  C   -0.34352189780539      1.86469735346805     -0.14355283162603
  N   -0.60703545671743      3.00739722931350     -0.24580816399790
  C   -1.18884997826910     -0.48418547944081     -0.30386793735660
  H   -0.86803861785891     -1.52006257450746     -0.19083058608102
  H   -1.56361881361354     -0.33561482959283     -1.31976874248500
  H   -2.01654603350236     -0.29049524438385      0.38314887666937
  C   1.58121275985669     -1.26615742590005      0.45635208441402
  N   1.90179773217431     -2.39316327104298      0.56881284219443
