11
Coordinates from ORCA-job run
  C   -0.07069715857584      0.45305285554500     -0.09440520081058
  C   1.24042665375397      0.11166066585878     -0.05146984374579
  H   2.01227001632784      0.85482847212410     -0.22791267367474
  C   -0.39652711862564      1.82120274333601     -0.37728924012102
  N   -0.69696486298073      2.93602504816501     -0.60632530641284
  C   -1.21908146395700     -0.48581137822492      0.13123560309383
  H   -1.82499842756722     -0.14149620441756      0.97324720405041
  H   -0.86445372023862     -1.49588084740345      0.33797407543177
  H   -1.86400884844625     -0.50813194929451     -0.75097332815963
  C   1.66405922148485     -1.22248990717638      0.22143239591099
  N   2.01997570882465     -2.32195949851209      0.44548631443759
