11
Coordinates from ORCA-job run
  C   -0.06817011695461      0.45685245820469     -0.07626015667494
  C   1.23930277718460      0.12471937141448      0.05641698558856
  H   2.01425152131041      0.88151611049120     -0.02030039176208
  C   -0.38720986405112      1.83404646437498     -0.32038782127424
  N   -0.68281006847665      2.95518157186373     -0.52394374368766
  C   -1.21950785673509     -0.50125828543554      0.00992771483715
  H   -0.87060279746010     -1.51740770677915      0.19566270802355
  H   -1.79100146670737     -0.48559325200283     -0.92157678034122
  H   -1.89556826237274     -0.20363077836167      0.81553277704934
  C   1.65569737381366     -1.21829252303767      0.29542488239432
  N   2.00661876044902     -2.32513343073221      0.48850382584723
