11
Coordinates from ORCA-job run
  C   -0.05129501848968      0.45707685033688     -0.08695908621101
  C   1.22772310480508      0.10332352998636      0.18941900271261
  H   2.01993935747626      0.84593928759679      0.19300714080518
  C   -0.31712388897606      1.83841031735326     -0.36860268140007
  N   -0.56724704684347      2.96408361372968     -0.60490883954510
  C   -1.22206513835375     -0.48041568380802     -0.12207919921292
  H   -1.97628207268918     -0.16636224992685      0.60396030111133
  H   -0.91323860041240     -1.50125324290004      0.10416251647134
  H   -1.68898733240387     -0.46043909372484     -1.11015579122330
  C   1.59114202371467     -1.24481403821960      0.48048957237695
  N   1.89743461217241     -2.35554929042361      0.72166706411497
