11
Coordinates from ORCA-job run
  C   -0.05505748210432      0.46396052630725      0.02698550690212
  C   1.17908824427043      0.04844766070373      0.40306491171481
  H   1.92930850833025      0.76247963778397      0.72940673876814
  C   -0.33154505665394      1.87067430061209      0.07706114759549
  N   -0.59101530642417      3.01843839068773      0.10663964769597
  C   -1.16688906414647     -0.42942882204659     -0.43832513411621
  H   -0.85651299519506     -1.47463359632457     -0.43701411884191
  H   -2.03737954746402     -0.31459033243355      0.21262304981126
  H   -1.47386451283399     -0.15026481312230     -1.44955189026076
  C   1.54703204798945     -1.32957294644773      0.38984479778750
  N   1.85583516423183     -2.46551000572004      0.38126534294359
