11
Coordinates from ORCA-job run
  C   -0.06152086479438      0.46392409710633      0.01762060572083
  C   1.19451280879917      0.07340539308885      0.34511085649242
  H   1.94935015085111      0.80501964918847      0.61738004243907
  C   -0.35248042193269      1.86835336222969      0.04459919280370
  N   -0.62053688252725      3.01449937449247      0.05883251572171
  C   -1.18108146849679     -0.45561326403111     -0.37228232881863
  H   -2.02067403817984     -0.33717803440032      0.31745931272221
  H   -1.54048239743316     -0.20667706003281     -1.37396681111873
  H   -0.85529325335531     -1.49606344659399     -0.35983988844491
  C   1.58102827265261     -1.29935244606527      0.34888596726078
  N   1.90717809441654     -2.43031762498231      0.35620053522155
