11
Coordinates from ORCA-job run
  C   -0.16422127305039      0.09738257642510     -0.05450525766681
  C   0.98215746719655     -0.53144109468307      0.29830395461152
  H   0.93544807474768     -1.46071116376860      0.85936015607938
  C   -0.11083678137633      1.32416252565657     -0.79522916311047
  N   -0.11434824502346      2.33247271304179     -1.40300861855759
  C   -1.52825060840454     -0.42552305348050      0.29156901706716
  H   -2.07491898431863      0.30737359634028      0.89034846953333
  H   -1.45471316777058     -1.35749296550589      0.85340540685971
  H   -2.10737447794919     -0.60374499120899     -0.61805668440514
  C   2.27793824724062     -0.03599720413335     -0.03050027223726
  N   3.35811974870825      0.35351906131666     -0.28968700817385
