11
Coordinates from ORCA-job run
  C   -0.16182505171211      0.09779420615960     -0.05761526276351
  C   0.97314456916338     -0.53271198587801      0.32751423548191
  H   0.90977736121352     -1.46944289924079      0.87405343970104
  C   -0.08577567064596      1.33423430796888     -0.78006078642966
  N   -0.07337518721085      2.34916521589056     -1.37646235733468
  C   -1.53579149979986     -0.43293999270052      0.23211131190172
  H   -2.08229755862834     -0.59938781085688     -0.69958889215577
  H   -2.10502786031671      0.28984281476846      0.82200325980117
  H   -1.47967402780476     -1.37300508712408      0.78247510518521
  C   2.27767654500175     -0.02927105317561      0.04936095199530
  N   3.36416838073994      0.36572228418838     -0.17279100538272
