11
Coordinates from ORCA-job run
  C   -0.06612567665145      0.45900128667355      0.06187728385005
  C   1.19925571674159      0.05817588843654      0.33639976695226
  H   1.94907977876309      0.77275753239171      0.66225813998050
  C   -0.37558791674539      1.85115954094037      0.21788398815426
  N   -0.66201782615439      2.98678448504627      0.33545566434696
  C   -1.17982141094449     -0.43606621413541     -0.39569890227266
  H   -2.01202663716199     -0.39101753353638      0.31147981207504
  H   -1.55502368491011     -0.10096086178471     -1.36602587099389
  H   -0.84226558589254     -1.46915752611496     -0.48235010028496
  C   1.60273345431918     -1.30400108968037      0.21021679553553
  N   1.94179978863651     -2.42667550823661      0.10850342265692
