11
Coordinates from ORCA-job run
  C   -0.07285287286009      0.45750071177566      0.06518558083976
  C   1.20497717185220      0.07853819205109      0.31158224396418
  H   1.94786281635241      0.80516979431492      0.62737588312429
  C   -0.40508623030864      1.84257897620711      0.23523693600427
  N   -0.71182722365790      2.97171043945901      0.36458403211526
  C   -1.17936764832191     -0.45585656152204     -0.37367106991626
  H   -1.99657879088892     -0.42961089461520      0.35169626690724
  H   -0.82501350023773     -1.48232508259298     -0.47226175150810
  H   -1.58146828690187     -0.12325908632361     -1.33392257468383
  C   1.63001679424384     -1.27541909404836      0.17025092282185
  N   1.98733777072863     -2.39102739470562      0.05394353033132
