11
Coordinates from ORCA-job run
  C   -0.14284304859512      0.13775221297491     -0.00448172008428
  C   0.86279157235857     -0.76791208503885      0.04612329182110
  H   0.71256135881660     -1.76166777348946     -0.36647356396173
  C   0.04657262560695      1.45173910910829      0.53814684294396
  N   0.15674102629511      2.54111243740665      0.97085182290800
  C   -1.48432784672258     -0.15754459385598     -0.61025544179936
  H   -1.69060494327576      0.53381688078981     -1.43114076526103
  H   -1.52032421520396     -1.17933823851611     -0.99048385816856
  H   -2.27367812560353     -0.02798500028618      0.13441751643345
  C   2.13687338615146     -0.48892360465848      0.62201949962231
  N   3.19623821017226     -0.28104934443460      1.09127637554614
