11
Coordinates from ORCA-job run
  C   -0.15883286445294      0.10717790668225     -0.05014348071032
  C   0.95342914889712     -0.59402059179572      0.27436668674705
  H   0.86314921923644     -1.51103934091640      0.84988535591356
  C   -0.04666750101824      1.31771846893833     -0.81096221786333
  N   -0.00373424858890      2.31618791459786     -1.43332447408821
  C   -1.54298111513198     -0.31618931882787      0.34714767332567
  H   -2.16248928920523     -0.46546434910011     -0.54084911882265
  H   -1.51506260000830     -1.24443319927692      0.91933150119042
  H   -2.01849469049974      0.45928627131052      0.95290768379843
  C   2.26796115251994     -0.19131057360379     -0.10301305356632
  N   3.36272278825182      0.12008681199183     -0.40334655592430
