14

C	-0.372781	-0.023727	-1.487986
C	0.0	0.0	0.0
Cl	-2.123751	0.145162	-1.760943
H	1.095584	0.0	0.0
H	-0.047442	-0.948139	-1.959587
N	0.315898	1.074716	-2.252239
O	0.947253	0.728145	-3.245608
O	0.176306	2.222658	-1.844187
C	-0.478391	-1.264897	0.569745
N	-0.892079	-2.274263	1.004688
N	-0.451948	1.11515	0.799241
H	-1.388226	1.3964	0.535525
H	0.177049	1.891133	0.642051
Br	3.381188	0.0	0.0
