14

C	-0.389502	-0.005434	-1.463445
C	0.0	0.0	0.0
Cl	-0.099057	-1.552419	-2.264974
H	1.095503	0.0	0.0
H	0.170718	0.77001	-1.982209
N	-1.843897	0.349023	-1.65307
O	-2.628393	0.049734	-0.757005
O	-2.13975	0.900502	-2.710063
C	-0.486273	-1.163497	0.748625
N	-0.842039	-2.081736	1.39031
N	-0.403939	1.289488	0.549238
H	0.305295	1.595927	1.199992
H	-1.292093	1.22215	1.023572
Br	3.417665	0.0	0.0
