14

C	-0.58314	-0.020991	-1.411338
C	0.0	0.0	0.0
Cl	0.107525	1.266896	-2.400059
H	1.098042	0.0	0.0
H	-1.66573	0.103055	-1.385983
N	-0.330207	-1.344246	-2.090248
O	0.826894	-1.739739	-2.144226
O	-1.327817	-1.92152	-2.527853
C	-0.508253	-1.172863	0.711763
N	-0.942907	-2.102298	1.281565
N	-0.510433	1.225546	0.649719
H	-0.417286	1.098904	1.652284
H	0.15123	1.959246	0.409304
Br	3.468209	0.0	0.0
