14

C	-0.579335	0.049455	-1.410809
C	0.0	0.0	0.0
Cl	0.244417	1.238862	-2.411564
H	1.092717	0.0	0.0
H	-1.63913	0.295174	-1.387804
N	-0.500807	-1.292543	-2.084747
O	0.582205	-1.859246	-2.0879
O	-1.549359	-1.711988	-2.574986
C	-0.485716	-1.2099	0.678149
N	-0.943187	-2.118562	1.267068
N	-0.40963	1.222072	0.689562
H	0.355233	1.521923	1.281115
H	-1.229955	1.066076	1.260937
Br	3.428348	0.0	0.0
