13
Coordinates from ORCA-job run
  C   -0.62281558126950      0.06768006938290     -0.08704863671098
  C   0.76101243637168      0.03900726283923      0.07173371214201
  N   -1.30041482445766      1.24113334599199      0.08077881260859
  H   -0.74380163526988      2.07285213902259      0.20706034359073
  H   -2.11745979637652      1.36779762906427     -0.49530014519562
  N   -1.37431134860776     -1.00586873686628     -0.41191206087116
  H   -2.33573233741659     -0.99449241011954     -0.11215067184951
  H   -0.88701885434430     -1.89114096955705     -0.38898603399318
  C   1.46426145124200      1.25295629168828      0.26463414993689
  N   1.93429512148697      2.32277195252317      0.41094700713503
  N   1.53056001029368     -1.16671436748311      0.13875985048951
  O   0.96589832465281     -2.24980461278450     -0.08252746334826
  O   2.72552703369506     -1.05717759370196      0.40401113606596
