13
Coordinates from ORCA-job run
  C   -0.61348031878333      0.08791862574621     -0.12616735658028
  C   0.76261244926074     -0.05401649556878      0.04030998515841
  N   -1.14514577042328      0.11262035012391     -1.38339692367365
  H   -1.96320177758200      0.68761870562861     -1.50845756004981
  H   -0.49279203937344      0.13997934169026     -2.15219753412155
  N   -1.49349961719307      0.21377615681303      0.88950802188095
  H   -2.43845929595707     -0.08716807648949      0.71449597677491
  H   -1.11112702833877      0.04696360720854      1.81016850968736
  C   1.60665362430294     -0.02766747103241     -1.09649025637024
  N   2.20032543732669      0.01528187399355     -2.11262112169195
  N   1.39059517024908     -0.31200720851248      1.30101245674022
  O   2.59989892162434     -0.53052824930694      1.29268526373906
  O   0.69662024488717     -0.29277116029400      2.33015053850657
