13
Coordinates from ORCA-job run
  C   -0.61980128886909      0.09275457742131     -0.08729668825893
  C   0.76152045756731      0.00913113340553      0.07490706141055
  N   -1.25445521211644      1.28547791917254      0.11058836627650
  H   -2.06215545814494      1.46053145829087     -0.46582114655492
  H   -0.66753999584520      2.09123959784098      0.26512183102441
  N   -1.40832377801530     -0.94290994249103     -0.44384339365922
  H   -0.95432979739867     -1.84595848826001     -0.44544565021174
  H   -2.37126037358431     -0.90399038347337     -0.15164554935564
  C   1.50792425921755      1.19046934309914      0.30518347666208
  N   2.01719740422368      2.23682760654936      0.48591972125825
  N   1.48578234487605     -1.22547376278410      0.11135990930543
  O   0.88276650152242     -2.28035309986217     -0.14296130475892
  O   2.68267493656694     -1.16774595890904      0.38393336686216
