13
Coordinates from ORCA-job run
  C   -0.60193051157787      0.10560367532916     -0.16282535104676
  C   0.74431965843328     -0.16030445197932      0.07847468198826
  N   -1.01353037548116      0.42979818299994     -1.42384837017818
  H   -1.93885250399397      0.12361651470154     -1.68000846837476
  H   -0.32803877072928      0.34994964263509     -2.15948324007795
  N   -1.56709608004506      0.06165523468039      0.77969643869127
  H   -2.38214253285667      0.63246462626758      0.62458787842486
  H   -1.23452677380887     -0.03310882896419      1.72943407176767
  C   1.64444108673672     -0.23550247490443     -1.01218972199964
  N   2.28968042191402     -0.27616746814967     -1.99655862412987
  N   1.30854209415282     -0.29312054656701      1.38768021100947
  O   0.54921246765210     -0.28807574663699      2.36976416597333
  O   2.52892181960392     -0.41580835941210      1.46427632795229
