13
Coordinates from ORCA-job run
  C   -0.62763948313013      0.06139616059411     -0.03950514257048
  C   0.76507727065223      0.04170610359962      0.00744838179878
  N   -1.29289230713645      1.24776055061127      0.07838363084536
  H   -0.73237031053318      2.08604783433911      0.07959143487563
  H   -2.15861670567404      1.32252789037329     -0.43162628682096
  N   -1.39928489092326     -1.03390099017799     -0.20646124328999
  H   -0.90856645006012     -1.91462387214570     -0.13608235946481
  H   -2.33381287939991     -0.99161699326467      0.16645922464324
  C   1.47315743601780      1.26762180324026      0.03630197967731
  N   1.94550932784622      2.34653430471970      0.04795045313401
  N   1.54429481778198     -1.15422603866082      0.10855396048344
  O   0.96472410243239     -2.25103338309140      0.05948231232958
  O   2.76042007212648     -1.02519337013679      0.22950365435886
