13
Coordinates from ORCA-job run
  C   -0.61928534061783      0.05956302656661     -0.11244163961211
  C   0.76530185282860     -0.00516599582126      0.02995989515765
  N   -1.16816117169764      0.17598142700511     -1.35730869686188
  H   -2.02274003884933      0.70666597420281     -1.41748527036661
  H   -0.52881900544568      0.32435579606301     -2.12323029871507
  N   -1.49240362442552      0.02280315271306      0.91617562511351
  H   -1.08899143804018     -0.20969474813642      1.81324665251760
  H   -2.41778480864450     -0.32066944962889      0.71646105787196
  C   1.59070047985351      0.18982300781606     -1.10416709436040
  N   2.16807896473417      0.37406944026950     -2.11392722161384
  N   1.42493957115215     -0.34964630950763      1.25327990327786
  O   0.74483394626058     -0.47800584600942      2.28390360119935
  O   2.64533061289166     -0.48907947553254      1.21453348639197
