13
Coordinates from ORCA-job run
  C   -0.62426509836960      0.08116595216669     -0.05822009746774
  C   0.76451274967985      0.02145083513867      0.03952445228393
  N   -1.41545837615050     -0.98315904197674     -0.30729207499865
  H   -0.95113484997068     -1.88040709823795     -0.27655731095697
  H   -2.36552515240570     -0.93508020800878      0.02278423519344
  N   -1.26366526154830      1.27749065765947      0.09892196699594
  H   -0.68057019830188      2.09808697396594      0.16253635789697
  H   -2.10577213206883      1.40422232737286     -0.43984528318985
  C   1.50605865533147      1.22259023378733      0.15266701953250
  N   2.00853406349339      2.28442339365870      0.23590047890153
  N   1.50684578871581     -1.20098897318012      0.10763690751286
  O   2.71640126186469     -1.11396937569640      0.30709342408776
  O   0.90503854973027     -2.27582567664970     -0.04615007579173
