13
Coordinates from ORCA-job run
  C   -0.61622875825401      0.14292816325351     -0.00061607798640
  C   0.76181076229753     -0.05790454310027     -0.04706462670143
  N   -1.53179340225225     -0.84685280206576     -0.06398295020482
  H   -2.42473955754774     -0.67140642116964      0.36715009106403
  H   -1.15535443860846     -1.78296169762584      0.00101724505042
  N   -1.11361421085926      1.40986070413559      0.10980401904376
  H   -0.44993354655661      2.16605163196250      0.03774316497680
  H   -1.99344284583754      1.58147998786913     -0.35059813405356
  C   1.62516878389823      1.06185020247667     -0.12325368189132
  N   2.23566712801177      2.06670517612161     -0.19025272065772
  N   1.38382417567770     -1.34310535512598      0.06124563731250
  O   0.66581386282023     -2.35578920270645      0.07672894688277
  O   2.61082204721039     -1.37085584402508      0.12207908716498
