13
Coordinates from ORCA-job run
  C   -0.60217656603652      0.16504456407125     -0.10389849682237
  C   0.74885238681863     -0.15929121328470      0.01073518810909
  N   -1.18052312284021      0.22904445236189     -1.33778576374361
  H   -0.57004590866532      0.13042406094359     -2.13490056818991
  H   -1.91614892533036      0.90762527451033     -1.45256709507084
  N   -1.40709713728662      0.43982374456896      0.94278259104129
  H   -2.39477258450195      0.28717026443829      0.82120356140405
  H   -1.00415354614724      0.26571921701280      1.85383327700362
  C   1.53494339439333     -0.28682321121986     -1.16029869738007
  N   2.08215792085161     -0.35998750146840     -2.20074210652459
  N   1.39298647912769     -0.46160201194665      1.25289022969552
  O   0.75238246546373     -0.32613668075012      2.30776476391750
  O   2.56459514415323     -0.83001095923737      1.20298311656032
