13
Coordinates from ORCA-job run
  C   -0.63100328129707      0.06298343591092     -0.02464708864848
  C   0.76436468591046      0.04625919589607      0.04372240802702
  N   -1.29499292387342      1.25367692383821      0.12382234511738
  H   -2.15385661729395      1.33173581428786     -0.39909235770562
  H   -0.72028554434977      2.08066572436540      0.07480545203497
  N   -1.39487162103093     -1.03040628369074     -0.16492433383462
  H   -0.91597902683964     -1.91945036309732     -0.12576243301764
  H   -2.35896785559117     -0.98660373005510      0.11901899856619
  C   1.48359410713417      1.26480016875442      0.02571793267375
  N   1.97489064427168      2.33135507153189     -0.06734239919324
  N   1.53720165868669     -1.15465249149864      0.10765625334810
  O   0.95974328024440     -2.24988945378279      0.01506749792772
  O   2.75016249402855     -1.03247401246019      0.27095772470447
