13
Coordinates from ORCA-job run
  C   -0.60382195880939      0.14064029662224     -0.12422662311434
  C   0.75642079385512     -0.05466045540425      0.10662122134318
  N   -1.47848878068843     -0.85018640970843     -0.39811135723684
  H   -1.11649002960572     -1.78606922478853     -0.27682743015190
  H   -2.44253938443027     -0.68686750189335     -0.15700808152135
  N   -1.12324100779280      1.40275704961004     -0.08793524442947
  H   -0.46553448870423      2.16282048122778     -0.00289120046890
  H   -1.89334487135226      1.58381042652538     -0.71216272611293
  C   1.60717124853890      1.06977509726754      0.23836269838870
  N   2.20938502766999      2.07833802150496      0.32261576858490
  N   1.35345935598161     -1.33972895185366      0.31196383303212
  O   2.54254929347167     -1.36456938113529      0.62121697056612
  O   0.65547480186582     -2.35505944797443      0.15938217112072
