13
Coordinates from ORCA-job run
  C   -0.62632812555577     -0.02227939418241     -0.07858590436091
  C   0.76165038981460      0.08296479787660     -0.01876888127814
  N   -1.24496033567629     -0.15234538737382     -1.28880948956056
  H   -2.15645925673194      0.27014187136199     -1.36791135766410
  H   -0.66470500124069     -0.05393051898121     -2.10796326568569
  N   -1.43878533262130      0.00612034903957      0.99893824012347
  H   -2.32958419174379     -0.45452028014887      0.90885098563673
  H   -0.96940644852642     -0.04921726637383      1.89217762448598
  C   1.50339780173573      0.18554766938742     -1.22081484637579
  N   2.00276508924311      0.27462399516788     -2.28362360732575
  N   1.51581051529014     -0.00845662698573      1.19512455497920
  O   2.74069148484471     -0.02181098208338      1.09706342750466
  O   0.90591341116791     -0.05683822670420      2.27532251952089
