13
Coordinates from ORCA-job run
  C   -0.57552608745633      0.20502940860700     -0.13293485956239
  C   0.74608344448822     -0.19955319885641      0.05481193081252
  N   -1.01240992876988      0.52126313882897     -1.38700052304098
  H   -0.38508634832904      0.32845445492024     -2.15216361047679
  H   -1.98329592013392      0.33864249156591     -1.58309787175581
  N   -1.48672959800141      0.31382848851496      0.85672237541994
  H   -2.25337520426979      0.94746812799483      0.70480183680287
  H   -1.11866673104792      0.22303710423861      1.79405587280348
  C   1.54163605381151     -0.48128688199325     -1.08165442993698
  N   2.04033021768264     -0.71030445918031     -2.12353338007221
  N   1.33112054238294     -0.43745358920102      1.33628094246072
  O   0.64847210573474     -0.25756428875585      2.35785411707905
  O   2.50944745390823     -0.78956079668365      1.35485759946659
