13
Coordinates from ORCA-job run
  C   -0.61065984487446      0.06612598612215     -0.07499495888637
  C   0.77587312722999     -0.06091821323725     -0.02091892858782
  N   -1.39752654901028      0.33160252361872      1.00466819228669
  H   -0.93478677468040      0.15813088663392      1.88808118105361
  H   -2.32937056030459     -0.05362891736337      0.95455067443212
  N   -1.25432402281115     -0.01329498908716     -1.27061680675902
  H   -2.11052864415038      0.50718896373649     -1.36915145730893
  H   -0.68752561478697     -0.07726472096321     -2.10289346690979
  C   1.48671526332703     -0.15047767783050     -1.24042287572683
  N   1.89041674248643     -0.28103229204990     -2.33810382207376
  N   1.52041897263912     -0.11716499460736      1.19615077512182
  O   2.74226271620762     -0.01894512968546      1.11192802445060
  O   0.90903518872803     -0.29032142528706      2.26272346890768
