13
Coordinates from ORCA-job run
  C   -0.61324487123836      0.01729818743497     -0.06094465732086
  C   0.74915264077591     -0.16856560323054     -0.07220434155840
  N   -1.36460113201554      0.06048932949045      1.07201021719493
  H   -2.32448871935131      0.33230537685476      0.92920833048704
  H   -0.95635098362165      0.42503226682768      1.91566243847341
  N   -1.33514433006107      0.03390725538857     -1.23349273486531
  H   -2.01051261764067      0.78054707075487     -1.30816837515698
  H   -0.78100089749084     -0.06138725029141     -2.07432396373467
  C   1.48512245461429     -0.18226097988096     -1.27879336722607
  N   2.03590875309972     -0.23605232362758     -2.31683696230593
  N   1.50675004789840     -0.30191180127191      1.15676584178534
  O   2.57613212547918      0.30321408977316      1.21776694144953
  O   1.03327752955194     -1.00561561822206      2.05335063277798
