13
Coordinates from ORCA-job run
  C   -0.61280498983052      0.10783811783497     -0.11152728623423
  C   0.75862323654383     -0.01068117536122      0.10463442885518
  N   -1.21856032531947      1.32352795503475      0.02786702981679
  H   -0.61440452728930      2.11786766816775      0.17420694606427
  H   -2.00216343461577      1.50091636468378     -0.58042100558427
  N   -1.41824625683165     -0.91554785909974     -0.46611107558145
  H   -2.38995979989333     -0.84032967351454     -0.21307816370825
  H   -0.99181211781604     -1.83087313076877     -0.42482135055021
  C   1.53063144358699      1.15575144183850      0.32588187104963
  N   2.06128902043614      2.19404680459299      0.49118689785461
  N   1.44477522638716     -1.26366049080848      0.20095508852562
  O   0.81857093373281     -2.30864792550499     -0.03769112483503
  O   2.63406159090914     -1.23120809709500      0.50891774432735
