13
Coordinates from ORCA-job run
  C   -0.61583706979170      0.14254031531990     -0.01588579247051
  C   0.76289125395587     -0.05935726062825     -0.03526689014243
  N   -1.53000672900994     -0.84750654289185     -0.08536113604122
  H   -2.43361440933942     -0.66587955819344      0.32036837380370
  H   -1.15710351825343     -1.78372408965782     -0.00779904655796
  N   -1.11394959280061      1.41088254421211      0.07080039796332
  H   -1.98555664355113      1.57936618539551     -0.40583058579242
  H   -0.44840251110397      2.16590076976624      0.00543465906176
  C   1.62795020731316      1.05974134513021     -0.10313561228796
  N   2.23970545434780      2.06386584787669     -0.16957649254571
  N   1.38153503768866     -1.34254605396015      0.10741588778014
  O   2.60590494602939     -1.36833024301615      0.21218165642964
  O   0.66448357451531     -2.35595325935299      0.10665458079964
