13
Coordinates from ORCA-job run
  C   -0.62306606193600      0.07052108476119     -0.08242282134352
  C   0.75404553238910     -0.13161984916785     -0.01851700250207
  N   -1.44713113319756      0.03828593629813      0.98610945725083
  H   -2.30058066312632      0.56879263356145      0.91977661627401
  H   -0.98322721150521      0.00670403282017      1.88347368673268
  N   -1.21771748213868      0.31169971435589     -1.28763078638844
  H   -0.63664851254161      0.22072530453455     -2.10699609653076
  H   -2.15494307257748     -0.04174158972370     -1.39818100386218
  C   1.50050548969658     -0.22041065769234     -1.21859870277321
  N   2.00872739944829     -0.28247714175600     -2.27917943884275
  N   1.49808604884997     -0.16672221773875      1.20446711363758
  O   0.88076930950894     -0.14307636047999      2.28128530101751
  O   2.72218035712998     -0.23068088977276      1.11641367733032
