13
Coordinates from ORCA-job run
  C   -0.62422632113712      0.07897423825292     -0.05847432599116
  C   0.74542080197534     -0.21878976239203     -0.03683608527080
  N   -1.34033780654573      0.34493626190575      1.04044635486282
  H   -0.84230566636577      0.44817047441996      1.91077905588758
  H   -2.32101991351725      0.54963480804988      0.98115734152157
  N   -1.29847460008144      0.01157078696265     -1.24268324998832
  H   -2.11445818578397      0.59205712765561     -1.34467725829367
  H   -0.73119942766826     -0.07185538845753     -2.07305108045815
  C   1.42413195515137     -0.41760734627617     -1.26104913671163
  N   1.87041800006275     -0.56057097745825     -2.34207390739891
  N   1.52895760823812     -0.24543160611298      1.15189436792521
  O   0.98207905240826      0.01106220122076      2.23875818611843
  O   2.72201450326369     -0.52215081777058      1.03680973779703
