13
Coordinates from ORCA-job run
  C   -0.58604805092445      0.07007262709650     -0.06107820014317
  C   0.78329733443835     -0.22575502660290      0.00347802777211
  N   -1.34590691332397      0.31311614361235      1.01160727262642
  H   -0.90520450207336      0.53016621702859      1.88701954554691
  H   -2.30219640669536      0.59383856796161      0.88833207333544
  N   -1.25433359043738     -0.00605173064018     -1.26478223594638
  H   -0.65369518490378     -0.18171724921598     -2.05998652803760
  H   -1.89694879951842      0.75544077227658     -1.43150101364274
  C   1.42148891493606     -0.60599615936953     -1.21009156839849
  N   1.45548257743767     -1.04803633885820     -2.30348415592395
  N   1.55150358148698     -0.09069620956264      1.18955963110839
  O   2.77429335676897     -0.03475270732468      1.06399058013732
  O   0.95726768280868     -0.06862890640151      2.28593657156574
