13
Coordinates from ORCA-job run
  C   -0.59477892553382      0.08323894229437     -0.05481036353420
  C   0.79064211790194     -0.08571918022153     -0.03643002313675
  N   -1.39177599381972      0.00812274443869      1.02579550926721
  H   -2.39032994700421      0.04035252059440      0.90924050376268
  H   -1.02043427664636      0.30527423174145      1.90817755052898
  N   -1.18469544974839      0.34143509847289     -1.26054765016766
  H   -0.76457733496267      0.01275668942253     -2.10482677826191
  H   -2.18618014306355      0.46538753297933     -1.27360976119977
  C   1.47686886283045     -0.16303545368927     -1.26378524652160
  N   2.02931394708199     -0.13818527277298     -2.31007865383545
  N   1.53888442142935     -0.26296601399448      1.16326082020431
  O   2.77412024298662     -0.19923346623278      1.07017109564005
  O   0.92294247854840     -0.40642837303263      2.22744299725411
