13
Coordinates from ORCA-job run
  C   -0.61414283023004      0.13681412106978     -0.06288786600214
  C   0.73308461534591     -0.21865989942606     -0.03739851802888
  N   -1.37981806145243      0.29419991137598      1.03715626458303
  H   -2.17359806858069      0.90884369451095      0.95800258873670
  H   -0.87745156418988      0.28465389682172      1.91417168929349
  N   -1.23871698000537      0.34100745944425     -1.25981559562543
  H   -0.71475732683400      0.11115834396594     -2.09047340092584
  H   -2.21456901165225      0.09267034754196     -1.29914719956846
  C   1.40106164346459     -0.49906134253916     -1.25414126704737
  N   1.84173132688324     -0.71315394630561     -2.32510006879652
  N   1.52945798849131     -0.23731916440755      1.15220647966342
  O   2.73201700247434     -0.45392210744980      1.02075090396192
  O   0.97470126628529     -0.04823131460242      2.24667598975607
