13
Coordinates from ORCA-job run
  C   -0.61691449471139      0.04275088644065     -0.13175489431156
  C   0.76186202178330     -0.06899380426408      0.03680692113296
  N   -1.12069495645489      0.46437177791398     -1.32850779951318
  H   -0.46340225753574      0.57137445033051     -2.08602935780619
  H   -2.01094172509981      0.07688846387095     -1.59814190801090
  N   -1.52598349230166     -0.24856724336133      0.82209740597832
  H   -1.14366170246093     -0.41739410057253      1.74234409226190
  H   -2.41583514954925      0.21925159028614      0.76387289386892
  C   1.61641393046308      0.11840757889588     -1.07666128830323
  N   2.21865490308135      0.28967006865223     -2.07416065187798
  N   1.39455986653380     -0.28707313770415      1.30261906773162
  O   0.68428350743318     -0.50895379779534      2.29637887788658
  O   2.62265954881896     -0.25173273269291      1.33113664096275
