13
Coordinates from ORCA-job run
  C   -0.61290944174671      0.15076010184619     -0.01125666881049
  C   0.76681840859956     -0.06886514876868     -0.11649940730887
  N   -1.51893278136762     -0.83830002156430      0.02883789511305
  H   -1.16032167181433     -1.77458320406278      0.14842722740973
  H   -2.47909068761449     -0.63732429684912      0.24800916606016
  N   -1.07791477491822      1.42804850829714     -0.06110732326398
  H   -2.00241727376632      1.61952929915393      0.28682655828996
  H   -0.40793471390467      2.17169729689005      0.05410106942675
  C   1.63960226599884      1.04342499157764     -0.14512274591636
  N   2.25732405464200      2.04630831178507     -0.16041973500103
  N   1.36812940433507     -1.36173484621632     -0.09450665928856
  O   0.63572484369149     -2.36201425434685      0.00711679388820
  O   2.59292236786539     -1.41794673774196     -0.18340617059856
