13
Coordinates from ORCA-job run
  C   -0.60615140043026      0.16673679133029     -0.06814440825281
  C   0.74257034436692     -0.18329639265566     -0.03799885163821
  N   -1.29798399331329      0.62073172520482      0.99709058181451
  H   -0.81156854908296      0.56415519462942      1.88127553089697
  H   -2.29366464859441      0.47232639213954      0.99462992103617
  N   -1.30742704493045      0.06021248185187     -1.23532028100621
  H   -2.03650293940949      0.74073337921325     -1.37880373245968
  H   -0.77724716009525     -0.16521976158698     -2.06331274904320
  C   1.40625838339190     -0.49858950062945     -1.24848100047138
  N   1.84568028034430     -0.73025305781872     -2.31628526029680
  N   1.50402273956898     -0.31578082562659      1.16711843226152
  O   0.98194433492529      0.01386919119171      2.24412314028758
  O   2.65106965325871     -0.74462561724350      1.06310867687154
