13
Coordinates from ORCA-job run
  C   -0.62249303452566      0.10983503091126     -0.02130661422440
  C   0.76512968261387     -0.01453172973351     -0.02732469999601
  N   -1.19347602620568      1.34206535985335      0.13199763824876
  H   -2.05655431046923      1.49050311567098     -0.36720193966288
  H   -0.56827606375729      2.13371093518142      0.12457782642914
  N   -1.48041608585534     -0.92141322955565     -0.16345988584255
  H   -1.06097271835296     -1.84061827307917     -0.14411487974244
  H   -2.39890744331242     -0.80979116623744      0.23235696607934
  C   1.57045474944104      1.14991537422987     -0.00555525640683
  N   2.13671003468031      2.18262121283346      0.01129398578471
  N   1.45020781176257     -1.26945364646415      0.05681014042945
  O   2.66985490355911     -1.23664768887541      0.20174089683114
  O   0.78973850042169     -2.31719529473502     -0.03081417792743
