13
Coordinates from ORCA-job run
  C   -0.58976695302331      0.21623912573240     -0.07405304133353
  C   0.72125160751245     -0.25370752374807     -0.03421938979196
  N   -1.19580564348779      0.86811729753983      0.94061852565373
  H   -2.20006820904938      0.80805589305219      0.98563669053075
  H   -0.68733304118113      0.86995550694863      1.81398234772995
  N   -1.34255364323454      0.03093359896158     -1.19817988542354
  H   -2.01205953608620      0.75452059445456     -1.40754858328319
  H   -0.86842841440642     -0.34715148588217     -2.00427130597179
  C   1.30406814003085     -0.78909619707894     -1.20853195892929
  N   1.67852611851041     -1.20285563004604     -2.24561183356678
  N   1.51338447014221     -0.30655060408218      1.15752513750264
  O   1.06374746814163      0.20097013339839      2.19734452662567
  O   2.61303763613122     -0.84943070925019      1.07830877025736
