13
Coordinates from ORCA-job run
  C   -0.61468565702901      0.10692601094185     -0.10166791014695
  C   0.74919268934498     -0.15890110961110      0.00173987936893
  N   -1.48903484158136      0.00729852385498      0.92184415753437
  H   -2.31822170670398      0.57638712462535      0.86900909015833
  H   -1.07067898193367     -0.12944096246458      1.83175531230643
  N   -1.14165316507887      0.48882370830218     -1.30186788997186
  H   -2.08596079570209      0.19003638423230     -1.48756775289301
  H   -0.52650943561457      0.45311691711461     -2.10037402782631
  C   1.54667769375153     -0.16625128549746     -1.16839500440935
  N   2.10015624374959     -0.15069194787744     -2.20777153671630
  N   1.43174367013504     -0.34957612887005      1.24573755176622
  O   0.76516831474162     -0.40335601202707      2.29171106479015
  O   2.65480597192080     -0.46237122272356      1.20484706603936
