13
Coordinates from ORCA-job run
  C   -0.61125288388866      0.08668386422280     -0.11861759370116
  C   0.75838551041775      0.01755352052225      0.12173234088788
  N   -1.28113154099628      1.26205406747396      0.06999270917537
  H   -0.72114569838992      2.07638652534969      0.26919784344430
  H   -2.04816509155811      1.43027143295224     -0.56180222411674
  N   -1.35791417363484     -0.94682449519413     -0.56604289160998
  H   -0.89717497222016     -1.84570425891775     -0.56180165141224
  H   -2.33560900483547     -0.91969621825715     -0.32769555331648
  C   1.47236382867177      1.20475157994042      0.42400743730400
  N   1.94159426206331      2.25769735579551      0.66439537686835
  N   1.49324445525131     -1.21002045791462      0.18015570140183
  O   0.91804292576886     -2.26741611285409     -0.12153530259945
  O   2.66976238335044     -1.14573680311909      0.52901380767432
