13
Coordinates from ORCA-job run
  C   -0.62135848320550      0.11663063898299     -0.08134654031368
  C   0.70884878996822     -0.31540751724263      0.00456357572169
  N   -1.30981223409014      0.61096041878163      0.95073083342490
  H   -2.30918339250943      0.69162813586913      0.85920712088114
  H   -0.85244426558666      0.67606030828975      1.84610161462166
  N   -1.29287547501756     -0.01361995890790     -1.26602347793841
  H   -0.72725914117312     -0.26493442892840     -2.06237122779777
  H   -1.96568113505167      0.70911308778503     -1.46869995044389
  C   1.43295114678574     -0.56673293874136     -1.18303175962764
  N   1.94316044176953     -0.71750428375342     -2.23554395715882
  N   1.45975546081271     -0.31077419059092      1.21553225978350
  O   2.63093818340311     -0.67896682315834      1.15821020082706
  O   0.90296010389477      0.06354755161444      2.26167130802025
