13
Coordinates from ORCA-job run
  C   -0.60917478212428      0.10571997656442     -0.12653071325244
  C   0.75308396892540     -0.00659005397434      0.14342393638140
  N   -1.25061438189607      1.28867179029820      0.10284782605281
  H   -0.67669306166416      2.07650930738053      0.36203666060822
  H   -2.01423104699221      1.50768862528854     -0.51661386004959
  N   -1.37142323299754     -0.89199512221060     -0.62168209767540
  H   -2.35690060465924     -0.85935433650382     -0.41744567150252
  H   -0.92789625320929     -1.79946490090238     -0.64996848253512
  C   1.48485080396877      1.14743761752817      0.51494493298309
  N   1.98120487230700      2.17523159749277      0.80482357705122
  N   1.46752827217315     -1.24736981105785      0.13886392217193
  O   2.64367454029244     -1.22068011270220      0.49412657253072
  O   0.87759090587604     -2.27580457720146     -0.22882660276431
