13
Coordinates from ORCA-job run
  C   -0.62144248281564      0.12227574440176     -0.01990756749276
  C   0.72902750369879     -0.24886303354419     -0.07573378669254
  N   -1.23317829941544      0.50459119638125      1.10574361735927
  H   -0.66072183457841      0.63743446240671      1.92521842050630
  H   -2.21295587622456      0.72507301301286      1.11504101344773
  N   -1.39066529754003     -0.00404166246104     -1.14099949238919
  H   -0.88746194683022     -0.16964584418388     -2.00015611470025
  H   -2.18140200074578      0.61416204682943     -1.23174151572487
  C   1.29471779861061     -0.59699603537280     -1.32484337417719
  N   1.64159026513377     -0.85308676864138     -2.42108788819107
  N   1.60273995148063     -0.24243623000728      1.04926576309757
  O   2.75599081278390     -0.62970190729479      0.87176223520836
  O   1.16276140644240      0.14023501847336      2.14743868974863
