13
Coordinates from ORCA-job run
  C   -0.59611088534075      0.18961859204262     -0.07978277348297
  C   0.75984941599528     -0.12536996774747     -0.03540821100319
  N   -1.58785913453462     -0.69815534138929      0.13945675619612
  H   -2.50627938115267     -0.46952477987535     -0.20389384297468
  H   -1.30112580166362     -1.66531733811304      0.19582815354661
  N   -0.97711436184274      1.47080905203902     -0.35769283518899
  H   -0.25375159555707      2.17416126072522     -0.35267617236975
  H   -1.85787621539651      1.76443839923271      0.03196929177097
  C   1.71747506651275      0.91411410795351     -0.03130840412378
  N   2.40864386167248      1.86871041259393     -0.03174792509428
  N   1.26004716821402     -1.45073844600945      0.18194935569976
  O   2.47679543515474     -1.57876025751014      0.29882061001222
  O   0.45630642793871     -2.39298569394225      0.24448599701197
