13
Coordinates from ORCA-job run
  C   -0.61418767781460      0.11945243646969     -0.02785079753441
  C   0.72858975868748     -0.23971179376432     -0.07026554418765
  N   -1.22738609153593      0.63928738211357      1.04625131757202
  H   -0.69126456559129      0.75207003512058      1.89173543412711
  H   -2.23183160060572      0.58211904810667      1.08063863001705
  N   -1.41473351173205     -0.10787252229718     -1.10960067943877
  H   -2.20291301186783      0.51524625675615     -1.22784448839647
  H   -0.96936356236161     -0.42424635344818     -1.95113161944960
  C   1.33076744345701     -0.55494476182741     -1.32242269636100
  N   1.74763560604137     -0.77997021192798     -2.40260082211998
  N   1.61412480082757     -0.16506178569485      1.06113639544753
  O   1.16333911086953      0.21683013002522      2.14676876946579
  O   2.76522330162607     -0.55419785963196      0.88418610085838
