13
Coordinates from ORCA-job run
  C   -0.61388328664307      0.07817466641843     -0.12963437651945
  C   0.75646067341205     -0.11617233028825      0.03730770363000
  N   -1.09347768908158      0.51030496841473     -1.33092101709596
  H   -2.00925858140603      0.19394070524457     -1.60195983520512
  H   -0.43190683449889      0.58855726021927     -2.08779181730702
  N   -1.53242708014166     -0.13619758878345      0.83572870085545
  H   -1.16110230648246     -0.31046313623814      1.75928233058780
  H   -2.40516209733288      0.35989555000087      0.75210175826592
  C   1.61807927681650      0.01665632551216     -1.07931425456824
  N   2.23013275663612      0.15425858945803     -2.07611888985566
  N   1.37915112038955     -0.36885852884512      1.29919001985585
  O   0.65946489241289     -0.52591947274098      2.29909903186381
  O   2.60592915591945     -0.44317700837211      1.32203064549262
