13
Coordinates from ORCA-job run
  C   -0.61365101524188      0.14036242600799     -0.04860534276715
  C   0.73814671455735     -0.19671398598852     -0.05548087055970
  N   -1.37612989970484      0.21223173873581      1.06245955064841
  H   -2.17656445118592      0.82188577159221      1.02415899071136
  H   -0.87204440725490      0.15473649558435      1.93646525575063
  N   -1.24819320100918      0.41554429944535     -1.22650236249763
  H   -2.22100004017770      0.15749736439720     -1.27692761771182
  H   -0.72603907953307      0.24243203357712     -2.07213809725062
  C   1.39723769964603     -0.39800657491750     -1.29274579607045
  N   1.82311778504000     -0.54902312689764     -2.38024139020080
  N   1.54036722243423     -0.30246007328077      1.12548242413223
  O   0.99125671621147     -0.19273036753349      2.23341322438307
  O   2.74249595621840     -0.50675600072214      0.97166203143247
