13
Coordinates from ORCA-job run
  C   -0.60847227013506      0.15551261642098     -0.07048793539262
  C   0.73153807329274     -0.22506815960729     -0.03420745197175
  N   -1.41434341661719      0.20458245769764      1.01114773735257
  H   -2.19432470560693      0.84012748950944      0.97390524725822
  H   -0.94618525859818      0.09062123559966      1.89983344790000
  N   -1.18305454626987      0.50226323016685     -1.25925465150932
  H   -2.16094555179727      0.28096707815999     -1.36051975160447
  H   -0.63163047968035      0.35854106734400     -2.09137361216414
  C   1.44101022973523     -0.38451224096396     -1.24945048222647
  N   1.91667496802234     -0.49164545213507     -2.32146312800824
  N   1.47988730260607     -0.39369866762807      1.17452126973890
  O   2.68295265226225     -0.61924888980021      1.06429779008142
  O   0.88589300278623     -0.31744176476397      2.26205152054589
