13
Coordinates from ORCA-job run
  C   -0.60874934756527      0.10231212677353     -0.13477324234258
  C   0.77674778963861     -0.01766717731011      0.03213316775931
  N   -1.44283689217442     -0.94781882691105     -0.17546640034260
  H   -1.04923141933591     -1.84279341083114      0.07727427308726
  H   -2.43692505477941     -0.80742509590750     -0.15437814689279
  N   -1.13496920255209      1.33336077121142     -0.37975139567562
  H   -2.11894219857111      1.47231858058921     -0.22467316674333
  H   -0.55029443352969      2.13291922646766     -0.19184779860697
  C   1.57249675216970      1.15126729383891      0.04808393999218
  N   2.12057783716665      2.19393652931535      0.04021802592949
  N   1.44196880475432     -1.25318781910804      0.28472570250610
  O   2.65884640097606     -1.21688886665295      0.45531563861718
  O   0.77031096380255     -2.29933333147529      0.32313940271236
