13
Coordinates from ORCA-job run
  C   -0.61929830975908      0.12174424650533     -0.04905423436809
  C   0.75404581060334     -0.11323413137260     -0.06014621810356
  N   -1.32673542609732      0.06036250086867     -1.21520569001248
  H   -2.11475380634894      0.68399783350011     -1.29007909848440
  H   -0.79390142438327     -0.04515902538975     -2.06503311618529
  N   -1.33043634593573      0.42296908039986      1.05769386997293
  H   -2.30918665396852      0.18625629489685      1.05044752143277
  H   -0.82964759849741      0.32233970788793      1.92977616981448
  C   1.42335213109442     -0.27119822258209     -1.29805759883604
  N   1.86948680455008     -0.37601770533370     -2.38292763308530
  N   1.54266186929863     -0.28730225811267      1.12244610264876
  O   1.01045147931420     -0.10196223360151      2.22850199736945
  O   2.72096147012960     -0.60179608766644      0.97163792783676
