13
Coordinates from ORCA-job run
  C   -0.61447527189948      0.14432185138705     -0.03544881637610
  C   0.72876686818430     -0.22527482772215     -0.06622675579377
  N   -1.30241619454892      0.42045586207150      1.09245844418007
  H   -2.09142201812321      1.04025694615449      1.00560494156016
  H   -0.74173013994831      0.48978554356744      1.93056252461652
  N   -1.31733816945768      0.24004001310372     -1.20211774649928
  H   -0.85299308227213     -0.07643267106807     -2.03963874394757
  H   -2.29546430303627      0.00299247886564     -1.15169633638311
  C   1.30472625552995     -0.64966387505703     -1.28834846444451
  N   1.66217636371261     -0.99114495982778     -2.35715916148343
  N   1.60292491864514     -0.14970795682005      1.06541017235975
  O   1.12707915498522      0.15954601860349      2.16959816117696
  O   2.79016561822879     -0.40517442325823      0.87700178103431
