17

C	0.0	0.0	0.0
C	-0.423161	0.46866	-1.440398
Cl	1.832141	0.0	0.0
H	0.492149	0.814718	-1.927204
C	-0.295469	1.05698	0.999171
N	-0.454848	1.817047	1.88183
N	-0.559959	-1.259594	0.366075
H	-1.586858	-1.030302	0.308216
H	-0.336039	-1.431624	1.341405
N	-1.313206	1.619915	-1.326201
H	-2.146081	1.229693	-0.849517
H	-1.574626	1.895363	-2.26756
C	-1.00538	-0.687191	-2.256095
H	-0.374671	-1.579779	-2.237371
H	-1.987618	-0.91804	-1.844053
H	-1.11856	-0.351001	-3.293473
F	-2.866176	0.0	0.0
