17

C	0.0	0.0	0.0
C	-0.246425	0.24353	-1.570573
Cl	1.796637	0.0	0.0
H	0.335296	1.153686	-1.770798
C	-0.36769	1.218996	0.749921
N	-0.612071	2.18318	1.377072
N	-0.646844	-1.18162	0.45201
H	-0.496368	-1.279971	1.452197
H	-1.670566	-0.922971	0.314086
N	-1.602737	0.449292	-2.0251
H	-1.969764	-0.460289	-2.290178
H	-2.220401	0.656106	-1.216611
C	0.34051	-0.91254	-2.386386
H	-0.057156	-1.855306	-2.001526
H	1.428433	-0.962378	-2.379394
H	0.007231	-0.776984	-3.418843
F	-2.996972	0.0	0.0
