17

C	0.0	0.0	0.0
C	-0.412351	0.077216	-1.530086
Cl	1.794439	0.0	0.0
H	0.501333	0.282226	-2.097529
C	-0.3462	1.268753	0.679634
N	-0.486966	2.27318	1.269765
N	-0.544737	-1.057817	0.798878
H	-0.358992	-1.93719	0.328303
H	-1.569305	-0.85084	0.715423
N	-1.317998	1.200735	-1.734214
H	-2.144982	0.960525	-1.156044
H	-1.592406	1.199486	-2.710954
C	-0.990366	-1.259939	-1.995321
H	-0.317244	-2.110445	-1.826768
H	-1.173309	-1.201381	-3.074053
H	-1.939894	-1.395867	-1.47542
F	-2.849599	0.0	0.0
