17

C	0.0	0.0	0.0
C	-0.434564	0.13857	-1.508869
Cl	1.78585	0.0	0.0
H	0.479377	0.368979	-2.063594
C	-0.325218	1.246092	0.746199
N	-0.489852	2.132647	1.501397
N	-0.562478	-1.153781	0.631656
H	-0.330594	-1.115877	1.620055
H	-1.588326	-0.942095	0.530472
N	-1.319041	1.289777	-1.651281
H	-2.160874	1.02225	-1.109986
H	-1.567351	1.36746	-2.63253
C	-1.013479	-1.16983	-2.047666
H	-1.145248	-1.065597	-3.131469
H	-0.366898	-2.028589	-1.850458
H	-1.98545	-1.317317	-1.578766
F	-2.866103	0.0	0.0
