17

C	0.0	0.0	0.0
C	-0.551257	0.109814	-1.409843
Cl	1.864201	0.0	0.0
H	-1.660233	0.087832	-1.123441
C	-0.425601	1.16133	0.805197
N	-0.628966	2.077406	1.514394
N	-0.412931	-1.203193	0.626994
H	-0.595034	-1.901904	-0.080459
H	0.252707	-1.522919	1.314467
N	-0.183233	-1.10562	-2.134868
H	0.726879	-0.983236	-2.572297
H	-0.865526	-1.254789	-2.866299
C	-0.121725	1.385501	-2.114503
H	-0.65614	1.473124	-3.066846
H	0.958139	1.372179	-2.322762
H	-0.349227	2.27335	-1.520276
F	-2.795243	0.0	0.0
