11
Coordinates from ORCA-job run
  C   0.88438866540783      0.06142537288893     -0.18606023186915
  C   -0.56368437489784     -0.12804762803618      0.27561466571709
  Br  1.10890825001469      1.82475785021025     -0.99461493422550
  H   -0.60740705068909     -1.07919121214229      0.81615652315637
  H   1.10693203788841     -0.65407813225316     -0.97883350378926
  H   -0.80002615393421      0.66658978693158      0.99237813605588
  C   1.82760968076615     -0.08675451502640      0.91396816840849
  N   2.54698706532353     -0.23607648381324      1.83055552478629
  N   -1.44380669644484     -0.16479290352799     -0.87992072487083
  H   -2.11780076228465     -0.91148543759201     -0.79725709821038
  H   -1.94210066114998      0.70565330236051     -0.99298652515900
