11
Coordinates from ORCA-job run
  C   0.83729566438353      0.27795460096585     -0.11115581377873
  C   -0.51435546474511     -0.39225483180163      0.12434805077852
  Br  0.71889328692252      2.20269399117633      0.22197412806108
  H   -0.36042291249875     -1.46682831200199     -0.01642374993860
  H   1.11098508815921      0.17865448445618     -1.16269311584037
  H   -0.80722199788941     -0.22984068122811      1.17067781171564
  C   1.87318195738384     -0.28802647649458      0.74159764158115
  N   2.68191099271748     -0.78706389398482      1.43193726541705
  N   -1.46725997225393      0.07144487635724     -0.87045146566540
  H   -1.81200007054040      0.99007817332196     -0.62214997902080
  H   -2.26000657163900     -0.55581193076643     -0.90666077330954
