11
Coordinates from ORCA-job run
  C   0.85383365374735      0.11449507063201     -0.20316985810854
  C   -0.55308440751480     -0.26186332790152      0.25420206892185
  Br  0.98665301617419      2.04374741619405     -0.50637863078092
  H   -0.76786149293346      0.26159086526668      1.19593066337782
  H   1.05431709193066     -0.34952872266366     -1.17012144951682
  H   -0.53770006356816     -1.33591679957526      0.46532390430274
  C   1.86278348525556     -0.28066327313288      0.76949103745142
  N   2.66963968970850     -0.63505195137257      1.54608682884197
  N   -1.49658178242830     -0.01823057514034     -0.82469865829808
  H   -2.36248209507507     -0.50820476193840     -0.64186970695790
  H   -1.70851709529647      0.96962605963189     -0.88579619923354
