11
Coordinates from ORCA-job run
  C   0.82486763320276      0.31457430662299     -0.10729771614079
  C   -0.49805499010920     -0.41811789530880      0.10481286236670
  Br  0.65223200003894      2.20130775686735      0.38248294244290
  H   -0.31369120690667     -1.47246418894174     -0.12477209536556
  H   1.07320493354775      0.30879510468838     -1.16976145458400
  H   -0.76933705803712     -0.34902338016634      1.16715361787585
  C   1.90090993765466     -0.28098843239909      0.67206688219650
  N   2.74275166214320     -0.80506531496942      1.30154413191734
  N   -1.49036834406755      0.08999672102109     -0.82768767138175
  H   -2.26059444844904     -0.56156332064692     -0.90102594366011
  H   -1.86192011901772      0.97154864323250     -0.49751555566708
