11
Coordinates from ORCA-job run
  C   0.67772461161770      0.37333630733049      0.24858097133729
  C   -0.44205725913116     -0.50017813240116     -0.35547683627277
  Br  0.32486153378070      0.74672313252252      2.13515520910245
  H   -0.46706730418796     -1.44691210284698      0.18913942591439
  H   0.70332526900351      1.35023074526345     -0.24023583365135
  H   -0.14596953067994     -0.72318580989763     -1.38596368145086
  C   1.97958335674818     -0.26569148074782      0.12079681745875
  N   3.01071969117344     -0.80905384564217     -0.02728944180451
  N   -1.76576785992194      0.07398686709708     -0.36520566129657
  H   -1.79124030432182      0.93551394031871     -0.89508543355775
  H   -2.08411220408069      0.26523037900350      0.57558446422092
