11
Coordinates from ORCA-job run
  C   0.94296982121396      0.02727784557119     -0.30259515400669
  C   -0.56635929312819      0.01923745053855     -0.55295163670366
  Br  1.85964976840479      1.08078697636232     -1.66509298059310
  H   -0.73394802460706     -0.41294369672645     -1.54167468862679
  H   1.32792653582894     -0.99021275034679     -0.37591968420849
  H   -0.92615460125114      1.05611165326605     -0.57330871379849
  C   1.24477336083679      0.56552775404601      1.01715303520794
  N   1.43302164062596      0.99383525618805      2.09466468751869
  N   -1.17623954651112     -0.83301094104426      0.45641344468423
  H   -2.06435510291135     -1.19147137721401      0.13285073922228
  H   -1.34028455850156     -0.31513817064067      1.31046095130407
