11
Coordinates from ORCA-job run
  C   0.88711705846770      0.00802444234625     -0.25370687978536
  C   -0.60387069544198      0.03814998238014     -0.64372553836651
  Br  1.97137673681445      0.90844192526812     -1.60564825581415
  H   -0.90801685977463      1.08028551639745     -0.76422807454746
  H   1.25030320667164     -1.02165689086887     -0.21808021883352
  H   -0.70442697817602     -0.44750944309414     -1.61729361303182
  C   1.09699787403540      0.63463319004166      1.04426523814068
  N   1.20130909467082      1.12711074602393      2.10586893094071
  N   -1.48101169116532     -0.60489575071005      0.30854523487971
  H   -1.25000413790662     -1.58123175997506      0.43583954693833
  H   -1.45977360819544     -0.14235195780944      1.20816362947939
