17

C	-0.267021	0.060348	-1.507943
C	0.0	0.0	0.0
F	-0.014978	-1.204478	-2.043581
H	1.096717	0.0	0.0
C	-1.680335	0.360911	-1.828022
N	-2.800017	0.61624	-2.078408
C	0.701998	1.033089	-2.160596
H	0.708052	0.865691	-3.240637
H	0.413877	2.068022	-1.965412
H	1.679482	0.822035	-1.704402
C	-0.601824	-1.18	0.589642
N	-1.104832	-2.110647	1.103727
C	-0.432483	1.274078	0.726651
H	-1.492722	1.513333	0.58905
H	-0.238347	1.157658	1.794535
H	0.180205	2.108104	0.379074
F	2.603998	0.0	0.0
