17

C	-0.257926	0.069283	-1.509281
C	0.0	0.0	0.0
F	-0.008521	-1.193722	-2.04999
H	1.096657	0.0	0.0
C	-1.666749	0.38315	-1.838448
N	-2.780531	0.660801	-2.09246
C	0.718706	1.04202	-2.151233
H	1.69338	0.822126	-1.692974
H	0.725817	0.884989	-3.232939
H	0.433517	2.076577	-1.946247
C	-0.598796	-1.186941	0.578999
N	-1.099395	-2.123642	1.084494
C	-0.441413	1.266704	0.733517
H	-0.255458	1.143385	1.801845
H	0.168971	2.10606	0.396095
H	-1.50149	1.502322	0.589867
F	2.605101	0.0	0.0
