17

C	-0.238366	-0.058526	-1.507197
C	0.0	0.0	0.0
F	-1.589167	-0.307702	-1.825631
H	1.096962	0.0	0.0
C	0.070117	1.258976	-2.101965
N	0.292489	2.313137	-2.570035
C	0.652066	-1.123664	-2.120301
H	0.616562	-1.091213	-3.211128
H	1.659298	-0.931714	-1.730407
H	0.310795	-2.102523	-1.774974
C	-0.490182	-1.22875	0.599742
N	-0.887531	-2.209709	1.112987
C	-0.568791	1.231228	0.695775
H	-0.037166	2.119224	0.350234
H	-0.410941	1.149592	1.772956
H	-1.639927	1.357038	0.508997
F	2.592506	0.0	0.0
