17

C	-0.259124	0.067202	-1.511676
C	0.0	0.0	0.0
F	-0.050075	-1.207501	-2.044759
H	1.096659	0.0	0.0
C	-1.656173	0.428126	-1.840319
N	-2.755513	0.762146	-2.086771
C	0.746577	1.004942	-2.162839
H	0.493685	2.04877	-1.964412
H	0.746647	0.839906	-3.242464
H	1.715859	0.763091	-1.703039
C	-0.603213	-1.18102	0.585068
N	-1.105234	-2.112311	1.098936
C	-0.433255	1.271239	0.730573
H	-1.495968	1.502845	0.60314
H	-0.226694	1.156671	1.796337
H	0.16924	2.10969	0.376665
F	2.608626	0.0	0.0
