17

C	-0.408141	0.003023	-1.47428
C	0.0	0.0	0.0
F	0.034579	1.201057	-2.040525
H	1.09625	0.0	0.0
C	0.275828	-1.093473	-2.193271
N	0.716953	-1.982397	-2.820605
C	-1.902973	-0.081915	-1.743404
H	-2.401948	0.7546	-1.250953
H	-2.091339	-0.023034	-2.817829
H	-2.306352	-1.018909	-1.357053
C	-0.513028	-1.196116	0.634179
N	-0.948673	-2.158674	1.153945
C	-0.428668	1.263867	0.742496
H	-0.006517	2.126544	0.226483
H	-1.513299	1.387412	0.840577
H	0.010707	1.232235	1.741472
F	2.529437	0.0	0.0
