17

C	-0.236528	-0.055704	-1.507593
C	0.0	0.0	0.0
F	-1.586588	-0.305928	-1.82785
H	1.096897	0.0	0.0
C	0.069688	1.263134	-2.098928
N	0.280263	2.319534	-2.566555
C	0.655287	-1.117935	-2.122672
H	1.661963	-0.925562	-1.732369
H	0.620565	-1.082438	-3.21335
H	0.315778	-2.098061	-1.780096
C	-0.49017	-1.23002	0.597152
N	-0.888185	-2.2114	1.1091
C	-0.570194	1.229728	0.697236
H	-0.414677	1.145644	1.774756
H	-1.641093	1.356012	0.50808
H	-0.037721	2.118696	0.354208
F	2.591968	0.0	0.0
