18

C	-0.431744	0.048399	-1.480875
C	0.0	0.0	0.0
Br	0.140693	-1.642272	-2.324665
H	1.090898	0.0	0.0
C	-1.887189	0.092401	-1.621998
N	-3.05563	0.145003	-1.743883
C	0.243491	1.184058	-2.244536
H	1.317556	1.134586	-2.051721
H	0.040694	1.085744	-3.312058
H	-0.135754	2.145169	-1.89534
C	-0.548352	-1.157905	0.805524
H	-1.628299	-1.260028	0.705014
H	-0.31143	-1.000832	1.8574
H	-0.055586	-2.07337	0.487749
N	-0.457591	1.29557	0.617082
O	0.259314	2.283319	0.474767
O	-1.539895	1.295647	1.207409
Cl	3.324475	0.0	0.0
