18

C	-0.524227	-0.025786	-1.449847
C	0.0	0.0	0.0
Br	0.242373	1.470957	-2.475922
H	1.09102	0.0	0.0
C	-0.048357	-1.252986	-2.089353
N	0.238003	-2.269825	-2.609684
C	-2.045745	0.042465	-1.595096
H	-2.311937	-0.01111	-2.651767
H	-2.425973	0.972875	-1.174951
H	-2.507713	-0.797923	-1.07156
C	-0.461782	-1.200018	0.812622
H	-0.032267	-1.115628	1.812982
H	-1.546054	-1.265357	0.901781
H	-0.061423	-2.110074	0.362153
N	-0.480412	1.255319	0.660769
O	0.271409	2.224924	0.680344
O	-1.624061	1.24184	1.13784
Cl	3.311223	0.0	0.0
