18

C	-0.391131	-0.035636	-1.477922
C	0.0	0.0	0.0
Br	-2.377273	-0.043425	-1.667016
H	1.094697	0.0	0.0
C	0.059377	1.115212	-2.262897
N	0.38296	1.934873	-3.04153
C	0.172299	-1.295107	-2.136579
H	1.249575	-1.314925	-1.93874
H	-0.297576	-2.188921	-1.727329
H	-0.006305	-1.263587	-3.211953
C	-0.445458	-1.200055	0.808941
H	-1.527624	-1.336344	0.8018
H	-0.116606	-1.063663	1.837905
H	0.05023	-2.092756	0.427474
N	-0.466229	1.271159	0.63932
O	-0.182816	2.3212	0.068403
O	-1.090914	1.198522	1.698368
Cl	3.234765	0.0	0.0
