18

C	-0.462661	-0.00656	-1.466896
C	0.0	0.0	0.0
Br	0.359004	-1.575771	-2.330681
H	1.090891	0.0	0.0
C	-1.907533	-0.185426	-1.610738
N	-3.067868	-0.314764	-1.751901
C	0.024116	1.23991	-2.199937
H	1.098422	1.342978	-2.029191
H	-0.182587	1.157254	-3.2677
H	-0.493868	2.120095	-1.80982
C	-0.542543	-1.123343	0.859035
H	-0.157067	-1.007151	1.874439
H	-0.178476	-2.075954	0.474323
H	-1.633567	-1.123539	0.884041
N	-0.45869	1.308987	0.58049
O	0.381088	2.177962	0.794226
O	-1.671389	1.4323	0.786522
Cl	3.346876	0.0	0.0
