18

C	-0.433161	0.02204	-1.480308
C	0.0	0.0	0.0
Br	0.226133	-1.638504	-2.315395
H	1.09092	0.0	0.0
C	-1.887636	-0.002816	-1.63509
N	-3.054094	-0.010636	-1.784997
C	0.19243	1.194189	-2.232808
H	-0.233554	2.13466	-1.877805
H	1.267193	1.191426	-2.03691
H	-0.001436	1.098886	-3.302047
C	-0.551854	-1.140393	0.827835
H	-0.276469	-0.982128	1.872392
H	-0.091234	-2.071476	0.500981
H	-1.638072	-1.213809	0.758576
N	-0.461302	1.303588	0.590493
O	0.310703	2.259027	0.555106
O	-1.606149	1.341617	1.053413
Cl	3.327323	0.0	0.0
