18

C	-0.391272	-0.041526	-1.477861
C	0.0	0.0	0.0
Br	-2.37804	-0.068385	-1.667949
H	1.09471	0.0	0.0
C	0.047981	1.112013	-2.264627
N	0.36944	1.933523	-3.042542
C	0.183056	-1.297004	-2.134018
H	0.003652	-1.26965	-3.209407
H	1.260402	-1.306461	-1.935073
H	-0.278009	-2.193995	-1.72263
C	-0.441871	-1.199419	0.811706
H	0.054903	-2.091249	0.429943
H	-1.523665	-1.338108	0.807415
H	-0.110232	-1.061278	1.839755
N	-0.469928	1.27134	0.635444
O	-0.178691	2.321614	0.06868
O	-1.106023	1.198158	1.687673
Cl	3.235463	0.0	0.0
