18

C	-0.482293	-0.00194	-1.453784
C	0.0	0.0	0.0
Br	0.272821	1.567802	-2.384329
H	1.090977	0.0	0.0
C	0.106334	-1.181862	-2.091305
N	0.549179	-2.161623	-2.568123
C	-1.988983	0.001205	-1.702452
H	-2.195739	-0.027792	-2.773723
H	-2.435638	0.89165	-1.265275
H	-2.43019	-0.883244	-1.235321
C	-0.560433	-1.14963	0.813148
H	-0.106263	-1.128751	1.8079
H	-1.645661	-1.091942	0.927411
H	-0.290818	-2.10125	0.349127
N	-0.395409	1.284878	0.668142
O	0.511596	2.023917	1.039322
O	-1.597551	1.502313	0.858556
Cl	2.699794	0.0	0.0
