18

C	-0.527141	-0.007575	-1.449376
C	0.0	0.0	0.0
Br	0.216433	1.520446	-2.444503
H	1.091022	0.0	0.0
C	-0.031758	-1.215971	-2.107505
N	0.275126	-2.21805	-2.640048
C	-2.049075	0.039486	-1.599171
H	-2.308878	-0.009094	-2.65776
H	-2.499973	-0.812019	-1.085264
H	-2.445172	0.959702	-1.173051
C	-0.453516	-1.211131	0.800139
H	-0.027092	-1.134917	1.80261
H	-1.53612	-1.289183	0.884945
H	-0.043035	-2.111643	0.342495
N	-0.481749	1.243171	0.681497
O	-1.64676	1.241674	1.098405
O	0.294042	2.187205	0.782708
Cl	3.31278	0.0	0.0
