18

C	-0.473922	0.002039	-1.456929
C	0.0	0.0	0.0
Br	0.418153	-1.516616	-2.362279
H	1.090914	0.0	0.0
C	-1.906205	-0.253801	-1.589093
N	-3.05961	-0.453375	-1.707905
C	-0.085128	1.277442	-2.20214
H	-0.645051	2.122413	-1.79324
H	0.984317	1.457778	-2.080753
H	-0.322387	1.185065	-3.263622
C	-0.584396	-1.096452	0.860509
H	-0.282388	-2.068845	0.466696
H	-1.675277	-1.048186	0.907442
H	-0.182369	-1.008899	1.873784
N	-0.39779	1.333245	0.56886
O	0.502266	2.128252	0.831999
O	-1.59913	1.542502	0.766335
Cl	2.700811	0.0	0.0
