12

C	-0.50109	0.00302	-1.433033
C	0.0	0.0	0.0
F	-0.150095	-1.198371	-2.038577
H	1.101126	0.0	0.0
H	-0.039169	0.816203	-1.995591
H	-1.591911	0.075665	-1.457566
N	-0.562018	-1.16688	0.700542
H	-0.247228	-1.973618	0.170698
H	-0.088043	-1.230955	1.596251
C	-0.476838	1.230686	0.63868
N	-0.873999	2.218737	1.133202
Br	3.543632	0.0	0.0
