12

C	-0.371717	0.011991	-1.468996
C	0.0	0.0	0.0
F	-1.754563	-0.150627	-1.627687
H	1.096463	0.0	0.0
H	-0.086379	0.949648	-1.94941
H	0.119155	-0.827922	-1.965167
N	-0.446315	-1.195777	0.709963
H	-1.301209	-1.543781	0.294206
H	0.277339	-1.898506	0.632306
C	-0.51947	1.202084	0.665261
N	-0.942615	2.177693	1.162318
Br	3.480136	0.0	0.0
