12

C	-0.525252	-0.043657	-1.425579
C	0.0	0.0	0.0
F	-0.288236	1.150091	-2.088695
H	1.099788	0.0	0.0
H	-1.602632	-0.22555	-1.413707
H	-0.011116	-0.840796	-1.964568
N	-0.460448	-1.248323	0.660105
H	-0.664286	-1.05485	1.632842
H	0.341639	-1.869305	0.666772
C	-0.524793	1.167529	0.70043
N	-0.990459	2.079673	1.27602
Br	3.509032	0.0	0.0
