12

C	-0.473423	-0.027847	-1.449002
C	0.0	0.0	0.0
F	-0.180804	1.152414	-2.107555
H	1.094782	0.0	0.0
H	-1.559431	-0.171886	-1.493828
H	0.03465	-0.845318	-1.965624
N	-0.412194	-1.195825	0.732124
H	0.20821	-1.958128	0.48734
H	-1.367674	-1.454062	0.509525
C	-0.522114	1.193612	0.67307
N	-0.998147	2.137247	1.183554
Br	3.539626	0.0	0.0
