15

C	0.0	0.0	0.0
C	-0.299972	0.10266	-1.563747
Br	1.927337	0.0	0.0
H	0.576772	0.656331	-1.927133
H	-0.284446	0.905987	0.520071
N	-0.446984	-1.10466	0.856579
O	-0.387789	-2.259508	0.401707
O	-0.549672	-0.853537	2.067531
N	-1.415207	0.895735	-2.047029
H	-1.310567	1.841123	-1.679252
H	-2.230561	0.511333	-1.566691
N	-0.404562	-1.21239	-2.168529
H	0.118987	-1.895155	-1.639217
H	-0.037183	-1.15042	-3.108711
H	-2.117291	0.0	0.0
