15

C	0.0	0.0	0.0
C	-0.332161	0.027344	-1.575234
Br	1.93072	0.0	0.0
H	0.560143	-0.373642	-2.058102
H	-0.368331	0.843057	0.567553
N	-0.373343	-1.232772	0.755247
O	-0.363103	-2.297528	0.13672
O	-0.527268	-1.122746	1.968898
N	-0.451326	1.429217	-1.96792
H	-1.296186	1.775898	-1.519714
H	0.338406	1.941964	-1.58366
N	-1.450943	-0.715345	-2.083159
H	-2.211889	-0.510905	-1.410938
H	-1.231529	-1.697924	-1.968011
H	-2.553366	0.0	0.0
