13
Coordinates from ORCA-job run
  C   0.78534524967620      0.31730018952593      0.47550776933586
  C   -0.63007329093262     -0.03044569870997     -0.02484992772677
  Br  1.60014758654937      1.73743553715649     -0.49927010141620
  H   -0.93897965343010     -0.91338723810224      0.55179027721602
  H   0.73632247902588      0.59644314263177      1.52734060362507
  N   1.60079957471240     -0.96041375538569      0.43660931077934
  O   1.26226192772787     -1.77042861107874      1.29924356718029
  O   2.44951295174523     -1.12500502421619     -0.42611130974760
  C   -0.58443660872290     -0.42597356375996     -1.43541564493371
  N   -0.58699257015719     -0.75928444897117     -2.56113497102725
  N   -1.50750759603189      1.11316395339712      0.16846690889451
  H   -2.19645390345798      1.18061475885202     -0.56789138235778
  H   -1.98894614670425      1.03898075866063      1.05571490017821
