13
Coordinates from ORCA-job run
  C   0.59069398139035     -0.08870721478449      0.86433746914001
  C   -0.77193922091110      0.08775204003851      0.17635178941781
  Br  1.04970674218336      1.48864440111946      1.86363790950831
  H   -1.46216508900912      0.43864699102402      0.95889881670017
  H   0.58989345063453     -0.93458718782705      1.54948557495317
  N   1.62578863808363     -0.40341815129627     -0.19599084858909
  O   1.55791584403830     -1.56290751716689     -0.59270644447884
  O   2.37989518275048      0.46987495112537     -0.58790107176865
  C   -1.28625273029453     -1.20726682665327     -0.28896524581140
  N   -1.77124551909349     -2.20974876831124     -0.66019397485387
  N   -0.62368411445356      0.98197990152031     -0.95900393406268
  H   -0.39507666102584      1.91539199176271     -0.63733184905990
  H   -1.48453050429301      1.02434538944884     -1.48961819109503
