13
Coordinates from ORCA-job run
  C   0.63324783133151     -0.53981586328650      0.48365459383537
  C   -0.61272850683653      0.26749672022437      0.12624849572850
  Br  0.80800913130695     -0.81767432855618      2.37711521892833
  H   -0.52284368578232      1.23064515445871      0.63560854242921
  H   0.66181921626684     -1.50772483151694     -0.01444113148320
  N   1.82465293936006      0.22868849295130     -0.02333393889310
  O   2.61008123964517     -0.39670620844938     -0.72516067617831
  O   1.90054611844046      1.40611206809422      0.30024415298786
  C   -1.82035606392037     -0.42243648785477      0.60863917136607
  N   -2.80952506923683     -0.98324057866622      0.90451365650689
  N   -0.58587498863464      0.49307534939935     -1.30865801246438
  H   -0.98758902577865     -0.28856064579020     -1.81121187159007
  H   -1.10043913616163      1.32914115899223     -1.55121820117317
