13
Coordinates from ORCA-job run
  C   0.60586054633409     -0.06775723876663      0.85321373010164
  C   -0.77180820072266      0.06890681558206      0.18630228297762
  Br  1.03759222158642      1.52617960580444      1.83842005164274
  H   -1.45856499648896      0.40649076973018      0.97766987142745
  H   0.63879632180406     -0.91011496786545      1.54192735416174
  N   1.63237046416853     -0.35935548078900     -0.22181629469399
  O   2.35664971527863      0.53225757119588     -0.62858156520817
  O   1.58993205596216     -1.52188115538576     -0.61295699907731
  C   -1.25833908539456     -1.24286519330412     -0.26155169599548
  N   -1.71671004565121     -2.26931340856654     -0.59959150121770
  N   -0.66524619525312      0.96000673250001     -0.95612781073129
  H   -1.53502095351222      0.97635970013513     -1.47343622588679
  H   -0.45651184811118      1.90108624972988     -0.64347119750044
