13
Coordinates from ORCA-job run
  C   0.64224467841149     -0.05160463861985      0.82752461791181
  C   -0.76447898679785      0.03825614913692      0.21596288116665
  Br  1.05279412471312      1.54966653792988      1.80964941234890
  H   -1.43228870437215      0.34391341587664      1.03596102019782
  H   0.73409020689649     -0.89752148686283      1.50650816767921
  N   1.63520302378542     -0.29630549718195     -0.29014516462812
  O   1.61462940963916     -1.45477040860762     -0.69466572338275
  O   2.31456171660410      0.62297344747716     -0.71241452929372
  C   -1.22056129502511     -1.28732478332671     -0.22340834736946
  N   -1.66730414917081     -2.32609852835280     -0.53867693333587
  N   -0.73509830026728      0.94158283186640     -0.92154400353458
  H   -0.54930854323106      1.88726389254133     -0.60821933685793
  H   -1.62448318118549      0.92996906812349     -1.40453206090192
