13
Coordinates from ORCA-job run
  C   0.56104561906951     -0.11847674006293      0.87080060454791
  C   -0.79170741853018      0.14973034263579      0.20511368241080
  Br  1.19208850600222      1.39332736417394      1.87431027851031
  H   -1.49477498988927      0.26511086329380      1.03780361759210
  H   0.49380265665640     -0.96250333004291      1.55672696194568
  N   1.61942544046583     -0.51111834400585     -0.12962713649917
  O   2.51200383140131     -1.23708585600984      0.28865943595088
  O   1.51204312591137     -0.07052798980567     -1.27141422249572
  C   -1.17910995137854     -1.08271245775393     -0.51963019375541
  N   -1.50315843143732     -2.04533035614466     -1.11053122864176
  N   -0.83236641020397      1.36411840623437     -0.57398359238102
  H   -0.29999136931453      1.25551474365904     -1.42633909787933
  H   -1.78930060875283      1.59895335382885     -0.80188910930527
