13
Coordinates from ORCA-job run
  C   0.67196213316071      0.30829882791026      0.47772063117630
  C   -0.71759049779595     -0.11556675467318     -0.05363267432652
  Br  1.44199854343500      1.73582038069602     -0.53632572286569
  H   -1.03844622322996     -0.93822945987878      0.59509975948970
  H   0.58546611443309      0.62932632313259      1.51579744006429
  N   1.55562411790641     -0.92315599994883      0.51178708514961
  O   2.47453816602080     -1.04706465630944     -0.28143845226554
  O   1.19476007039198     -1.73629832261676      1.36076880389172
  C   -0.57710143602044     -0.64918367158246     -1.41483943687606
  N   -0.45781623304312     -1.07276710643898     -2.50291870570795
  N   -1.73739367505998      0.90549217546797     -0.02679701760505
  H   -1.45847661833571      1.71326777478975     -0.56959141174936
  H   -1.93652446186284      1.19206048945182      0.92336970162454
