13
Coordinates from ORCA-job run
  C   0.60947367385824      0.20552860425141      0.60042483065340
  C   -0.70517545295607     -0.10227668289587     -0.15474229469366
  Br  1.45884906614382      1.80190156340822     -0.02288098589273
  H   -1.07899086355400     -1.03512017633109      0.28179992250403
  H   0.40310187180454      0.31614052363872      1.66498358644097
  N   1.50753245486903     -1.01109029443542      0.49135346332529
  O   2.50936940034049     -0.97971119658941     -0.20472661968690
  O   1.07406004732299     -1.97291809946926      1.12321620598823
  C   -0.40663785617794     -0.35802727779200     -1.56985388169062
  N   -0.16269820746085     -0.54694255937583     -2.70234579274912
  N   -1.74106740939256      0.89652771213867     -0.04261022544995
  H   -1.41978993829074      1.79431022894681     -0.38286805807033
  H   -2.04802678650699      0.99167765450503      0.91724984932144
