13
Coordinates from ORCA-job run
  C   0.79002752078834      0.34590428335225      0.42798502726019
  C   -0.64960577919084     -0.05655392251347      0.10236226189593
  Br  1.46483530652677      1.68080499784921     -0.76562775088367
  H   -0.91400226231222     -0.82205810850661      0.83859191935418
  H   0.82555623266596      0.73562427319922      1.44410490691511
  N   1.63998076309202     -0.91232243899735      0.42554977198054
  O   1.34283861664881     -1.68428786926121      1.33444500247807
  O   2.48673172408255     -1.08493481827301     -0.43598647550911
  C   -0.72350814480055     -0.67261048904787     -1.23790114429474
  N   -0.84413428165656     -1.14368863068053     -2.30752060275359
  N   -1.52165468140417      1.08374464093931      0.30505613419884
  H   -2.48766735802320      0.78021791479632      0.31917160466064
  H   -1.41139765641690      1.75016016714384     -0.45023065530231
