13
Coordinates from ORCA-job run
  C   0.62147676631092     -0.51231969802950      0.52603560559176
  C   -0.58072907887821      0.33318700735144      0.11346244257702
  Br  0.89281806958726     -0.52137220334316      2.42874530193387
  H   -0.38380079521738      1.35157781126551      0.45894123033676
  H   0.54783071887238     -1.54219519825039      0.18001683708712
  N   1.83371051879107      0.07200341259533     -0.14970414772166
  O   2.53194823171972     -0.71460108838364     -0.77780309481578
  O   2.01395034382568      1.27499887283101     -0.01766781578274
  C   -1.80379857773354     -0.16710131412472      0.76301154000220
  N   -2.81634304228416     -0.58927769481204      1.18363343150206
  N   -0.63365762422435      0.33206418888400     -1.33809866546507
  H   -1.09533073489258      1.16325544018147     -1.68273366194632
  H   -1.12907479587686     -0.47921953616533     -1.68683900329929
