13
Coordinates from ORCA-job run
  C   0.58506960792750     -0.56469261738503      0.39096879450141
  C   -0.75243290655772      0.15887667158673      0.16217102497858
  Br  0.77203945775370     -1.21330420854605      2.19231237522643
  H   -0.84305273897449      0.92559173689205      0.93673576047738
  H   0.73078697403642     -1.39976068580942     -0.29344824972284
  N   1.69257208725172      0.40998777443186      0.10305086233627
  O   2.58117500685862      0.02262008223146     -0.64908354967879
  O   1.60242945724333      1.51901199111944      0.61953940117587
  C   -1.83705890941126     -0.81640169082312      0.33172563271537
  N   -2.69327957096262     -1.61333646585004      0.42846049134721
  N   -0.87024483231310      0.80146092525699     -1.12741574261670
  H   -0.70663789324416      0.16450502285885     -1.89629165495821
  H   -0.26036573960789      1.60444146403628     -1.19772514578204
