13
Coordinates from ORCA-job run
  C   0.71509539545585      0.26558292043302      0.60485444516667
  C   -0.61719589795502     -0.05971940033772     -0.09702969603398
  Br  1.53887024642211      1.85140650900173     -0.05982833361294
  H   -0.92566089276734     -1.04104514272553      0.28585851941763
  H   0.53219671176418      0.38739755459902      1.67142387179367
  N   1.60705987404749     -0.95331000466641      0.47952164632689
  O   2.55228030258485     -0.94993008576464     -0.29352507594303
  O   1.22745877650050     -1.89458985458612      1.17471840629676
  C   -0.40947362203256     -0.20385638772029     -1.54107842835236
  N   -0.29414604550310     -0.32471101858073     -2.70328421037273
  N   -1.58766000084568      0.97920661985232      0.21031080465462
  H   -2.07453817690926      1.30115544341094     -0.61347229484567
  H   -2.26428667076196      0.64341284708439      0.88153034550451
