13
Coordinates from ORCA-job run
  C   0.65503277572308      0.24736379507000      0.53330515485722
  C   -0.71344780052658     -0.11735873872869     -0.08849820098859
  Br  1.41171184202887      1.82785763536982     -0.23420844227485
  H   -1.02776852086082     -1.03669701344206      0.41801968081244
  H   0.54082167001658      0.40438689070645      1.60587676313866
  N   1.56634585680555     -0.95688805147586      0.39974543247656
  O   2.50263622575752     -0.93996423618232     -0.38265654447191
  O   1.20932883066652     -1.89658365055146      1.10803193870552
  C   -0.53414794676463     -0.43460815368729     -1.51143719326550
  N   -0.38650493617432     -0.71562366988048     -2.64145938946223
  N   -1.75683386269588      0.86691881882355      0.07237838168868
  H   -1.98365897200195      0.99541585432048      1.05043564019953
  H   -1.48451516197397      1.75578051965785     -0.32853322141558
