13
Coordinates from ORCA-job run
  C   0.61514395931922      0.17578099052282      0.55651027046023
  C   -0.73398201903748     -0.08495641619625     -0.14495627197836
  Br  1.50847263559438      1.71695838037373     -0.15569901706312
  H   -1.15286339577475     -0.98241863057567      0.31713766983448
  H   0.45377266475047      0.35451655694948      1.62249928622271
  N   1.50978828238204     -1.05779986150191      0.49611630096788
  O   2.72030301296698     -0.91037194727596      0.52603405635688
  O   0.90152472241732     -2.12520028535776      0.49959599368487
  C   -0.49483113431874     -0.39186755053807     -1.56123359486459
  N   -0.29197535235040     -0.62542040723895     -2.69325331798658
  N   -1.70573069532849      0.97938426864062     -0.02704892642206
  H   -1.99703717064562      1.09681732788525      0.93508594127101
  H   -1.33358550997493      1.85457757431269     -0.37378839048333
