13
Coordinates from ORCA-job run
  C   0.65192691901612     -0.46193482957558      0.53514424239101
  C   -0.61531415539604      0.26922471114966      0.09873524826099
  Br  0.86148812939095     -0.49157640573194      2.44547705126954
  H   -0.53351524599681      1.29338640595189      0.47232658965719
  H   0.69378239245391     -1.48489010905430      0.16422415228310
  N   1.82049019079135      0.25749404838007     -0.08471602992593
  O   2.61663873377040     -0.43963987481781     -0.70190197453772
  O   1.87130676855687      1.46951921596240      0.07525497677553
  C   -1.80222468346309     -0.36537480130718      0.69519170924789
  N   -2.77770048390119     -0.88923505166536      1.08798728062327
  N   -0.61925467723042      0.29889124292380     -1.35358634137376
  H   -1.14557763475331      1.09099614923163     -1.69739789830880
  H   -1.02204625323870     -0.54686070144727     -1.73773900636233
