13
Coordinates from ORCA-job run
  C   0.62202705008611     -0.41050658045695      0.60724018538899
  C   -0.58559427901252      0.33973668940647      0.05021507389503
  Br  0.89289097933876     -0.08194570767528      2.48181342752962
  H   -0.39799731526251      1.40481557991863      0.20947704747038
  H   0.55542877002521     -1.48541728580630      0.44680916916809
  N   1.83223218373824      0.05365674455867     -0.15879727325971
  O   2.55552937086782     -0.82642538876685     -0.60921488071091
  O   1.99159081789790      1.26269935374883     -0.26148560047734
  C   -1.80545885623383     -0.04477071346578      0.77799378090155
  N   -2.80860132613910     -0.37919270715730      1.28986621688816
  N   -0.63570366596849      0.07691416197579     -1.37785692700529
  H   -1.05209518970006      0.85253223611076     -1.87492716854377
  H   -1.16524853963758     -0.76109638239072     -1.58213305124484
