13
Coordinates from ORCA-job run
  C   0.57804687845999     -0.12483677783966      0.85801618141006
  C   -0.79427752361071      0.11274649085675      0.22129920447582
  Br  1.16540369334508      1.37623872726793      1.90364842306249
  H   -1.48761266792863      0.17424875179609      1.06770762680213
  H   0.55365131636924     -0.99330386597060      1.51565491640491
  N   1.63529422151127     -0.44261591409302     -0.16957501925460
  O   1.49368539603112      0.02956898701919     -1.29468374964660
  O   2.56152359667588     -1.14621271199404      0.21240070851084
  C   -1.14509803008878     -1.11023669785156     -0.53739847148105
  N   -1.43666525243848     -2.06584994342240     -1.15597881864788
  N   -0.89342651375061      1.34902628471209     -0.51678524359815
  H   -0.36866067334181      1.28971361802109     -1.37862474701196
  H   -1.86186444123354      1.55251305149807     -0.72568101102599
