14

C	0.0	0.0	0.0
C	-0.341349	0.040178	-1.493207
F	1.388168	0.0	0.0
H	0.513988	-0.45371	-1.985849
H	-0.356597	-0.919275	0.446471
C	-0.466047	1.165294	0.753394
N	-0.538317	2.125867	1.428457
N	-0.586264	1.368363	-1.974548
H	-0.739938	1.347919	-2.972813
H	0.213898	1.949247	-1.761837
N	-1.457679	-0.884101	-1.882502
O	-1.341186	-2.043141	-1.500501
O	-2.238788	-0.501434	-2.746422
F	-2.289107	0.0	0.0
