14

C	0.0	0.0	0.0
C	-0.528018	0.006562	-1.425771
F	1.372628	0.0	0.0
H	-1.630203	0.175067	-1.219072
H	-0.388189	-0.922051	0.429053
C	-0.447074	1.112906	0.854588
N	-0.554897	1.95457	1.66632
N	-0.281035	-1.245448	-2.06922
H	0.62918	-1.24599	-2.514279
H	-0.979521	-1.394752	-2.784197
N	0.088701	1.165684	-2.175867
O	0.650531	0.936951	-3.249277
O	-0.022444	2.286617	-1.680015
F	-2.584253	0.0	0.0
