14

C	0.0	0.0	0.0
C	-0.502375	0.239102	-1.465749
F	1.380009	0.0	0.0
H	-1.096521	1.144757	-1.492402
H	-0.366874	-0.961892	0.346531
C	-0.43345	1.059389	0.919072
N	-0.557347	1.940161	1.686182
N	-1.251639	-0.8196	-2.068123
H	-2.05645	-0.811196	-1.412439
H	-0.737675	-1.687251	-1.964861
N	0.723117	0.525748	-2.301779
O	1.314899	-0.426704	-2.803094
O	1.06508	1.70329	-2.40701
F	-2.477635	0.0	0.0
