14

C	-0.344252	-0.076091	-1.486585
C	0.0	0.0	0.0
F	-1.623607	-0.700182	-1.608807
H	1.092157	0.0	0.0
H	-0.322196	-0.931144	0.475097
N	-0.33529	1.199257	-2.093911
H	-0.52246	1.089574	-3.079036
H	-1.006084	1.817646	-1.661215
N	0.56636	-0.922214	-2.21348
H	1.507191	-0.642543	-1.916693
H	0.432263	-1.869629	-1.874401
C	-0.588008	1.129731	0.689724
N	-1.063898	2.061982	1.224731
H	2.810138	0.0	0.0
