14

C	-0.374984	0.062127	-1.486873
C	0.0	0.0	0.0
F	-0.19709	-1.266741	-1.950385
H	1.094115	0.0	0.0
H	-0.36481	-0.931269	0.439742
N	-1.737197	0.370501	-1.851694
H	-2.349461	-0.298047	-1.401867
H	-1.954143	1.291561	-1.491597
N	0.488587	0.980017	-2.108512
H	0.41412	0.896769	-3.113698
H	1.444593	0.823605	-1.785798
C	-0.530558	1.139705	0.723603
N	-0.992192	2.054313	1.299581
H	2.820086	0.0	0.0
