14

C	-0.342587	0.074713	-1.482092
C	0.0	0.0	0.0
F	-0.109171	-1.242057	-2.015284
H	1.092564	0.0	0.0
H	-0.330539	0.92612	0.475535
N	-1.715258	0.403768	-1.738642
H	-2.281665	-0.378213	-1.427122
H	-1.846348	0.496261	-2.740986
N	0.543457	1.002141	-2.084247
H	0.555643	0.856753	-3.087378
H	1.48423	0.825892	-1.714265
C	-0.595028	-1.143686	0.660434
N	-1.094404	-2.066141	1.190406
H	2.825113	0.0	0.0
