14

C	-0.270559	-0.024202	-1.50072
C	0.0	0.0	0.0
F	-1.64459	-0.140482	-1.741852
H	1.094414	0.0	0.0
H	-0.362275	-0.919358	0.464497
N	0.138103	1.183458	-2.183908
H	1.125304	1.314848	-1.959039
H	-0.373565	1.972442	-1.798416
N	0.394606	-1.176216	-2.022199
H	1.331721	-1.202109	-1.615126
H	0.488397	-1.047253	-3.022823
C	-0.55498	1.167232	0.650474
N	-1.006676	2.124879	1.160475
H	2.785137	0.0	0.0
