14

C	-0.238198	0.017613	-1.506769
C	0.0	0.0	0.0
F	-1.602649	0.113357	-1.792664
H	1.094429	0.0	0.0
H	-0.36712	0.920725	0.458139
N	0.42826	1.1763	-2.014463
H	1.357268	1.200918	-1.589142
H	0.547666	1.039618	-3.011367
N	0.210668	-1.187719	-2.17412
H	1.188824	-1.305687	-1.912464
H	-0.302069	-1.982698	-1.805305
C	-0.55844	-1.168165	0.645444
N	-1.01041	-2.126091	1.155304
H	2.782024	0.0	0.0
