14

C	-0.331523	0.049099	-1.486334
C	0.0	0.0	0.0
F	-0.081517	-1.300659	-1.94907
H	1.093269	0.0	0.0
H	-0.362124	-0.932941	0.437151
N	-1.700168	0.354296	-1.77795
H	-1.815313	0.464017	-2.780024
H	-2.269166	-0.429663	-1.479298
N	0.552958	0.951001	-2.124592
H	1.49173	0.801802	-1.740382
H	0.572047	0.766847	-3.118633
C	-0.515115	1.140977	0.735003
N	-0.907068	2.042398	1.378333
H	2.831168	0.0	0.0
