18

C	0.0	0.0	0.0
C	-0.450466	0.096001	-1.534489
Cl	1.801677	0.0	0.0
H	0.459205	-0.140125	-2.098199
C	-0.401954	1.159257	0.798746
N	-0.616356	2.102964	1.465534
C	-0.495828	-1.263153	0.682957
H	-0.154206	-2.144448	0.134492
H	-0.110845	-1.314647	1.70458
H	-1.589648	-1.168369	0.670418
C	-0.899949	1.512673	-1.861039
H	-1.839603	1.677578	-1.328099
H	-0.164585	2.265493	-1.56492
H	-1.07581	1.583636	-2.93664
N	-1.490015	-0.812307	-1.956375
H	-2.283861	-0.621278	-1.298648
H	-1.179246	-1.768238	-1.823083
F	-2.950481	0.0	0.0
