18

C	0.0	0.0	0.0
C	-0.6187	-0.153631	-1.426755
Cl	1.793783	0.0	0.0
H	-1.423893	-0.875304	-1.260352
C	-0.385713	1.261358	0.644557
N	-0.570371	2.230615	1.282029
C	-0.463237	-1.157658	0.879718
H	-1.555883	-1.054169	0.901449
H	-0.163229	-2.101068	0.411864
H	-0.015841	-1.095573	1.875551
C	0.347225	-0.671396	-2.47598
H	0.826638	-1.600331	-2.161231
H	1.122113	0.062019	-2.703615
H	-0.216644	-0.879881	-3.392415
N	-1.219313	1.120288	-1.813834
H	-1.521009	1.03018	-2.779855
H	-2.071072	1.097356	-1.228851
F	-2.864251	0.0	0.0
