18

C	0.0	0.0	0.0
C	-0.530158	-0.022313	-1.456228
Cl	1.80281	0.0	0.0
H	-1.620637	-0.006534	-1.258919
C	-0.392267	1.272779	0.619351
N	-0.605157	2.301553	1.145393
C	-0.514795	-1.159232	0.836966
H	-1.611726	-1.074113	0.726103
H	-0.115899	-2.100958	0.454511
H	-0.204247	-1.043344	1.87848
C	-0.1327	-1.284693	-2.204135
H	0.954611	-1.399051	-2.274834
H	-0.532952	-1.210538	-3.217083
H	-0.549607	-2.177372	-1.734613
N	-0.153903	1.150822	-2.238246
H	0.844423	1.317684	-2.152694
H	-0.631771	1.960109	-1.857971
F	-2.863054	0.0	0.0
