18

C	0.0	0.0	0.0
C	-0.428444	0.065877	-1.543337
Cl	1.802394	0.0	0.0
H	0.473738	-0.245441	-2.08191
C	-0.409315	1.171865	0.774523
N	-0.634351	2.132554	1.412811
C	-0.499964	-1.257098	0.688502
H	-0.125563	-1.301148	1.714444
H	-0.150653	-2.140698	0.149241
H	-1.594383	-1.164777	0.667502
C	-0.77935	1.497085	-1.922308
H	-0.909532	1.552507	-3.005521
H	-1.727438	1.732029	-1.433337
H	-0.014638	2.213446	-1.611518
N	-1.512396	-0.791875	-1.952972
H	-1.247312	-1.759701	-1.806651
H	-2.300481	-0.565181	-1.294562
F	-2.964618	0.0	0.0
