18

C	0.0	0.0	0.0
C	-0.451491	-0.362141	-1.493553
Cl	1.806329	0.0	0.0
H	0.458276	-0.750962	-1.964597
C	-0.396339	1.345318	0.419204
N	-0.611758	2.443445	0.777805
C	-0.495452	-1.001942	1.028255
H	-0.154432	-2.006815	0.76697
H	-1.589308	-0.914648	0.98804
H	-0.1103	-0.746996	2.01875
C	-0.90858	0.893732	-2.222142
H	-1.848039	1.2014	-1.757385
H	-1.087658	0.642916	-3.270248
H	-0.177274	1.704761	-2.162543
N	-1.488326	-1.358597	-1.625192
H	-1.174272	-2.228361	-1.20912
H	-2.283524	-0.979881	-1.055966
F	-2.95163	0.0	0.0
