13

C	-0.55163	0.034181	-1.428203
C	0.0	0.0	0.0
Br	0.257109	1.447044	-2.455298
H	1.095265	0.0	0.0
H	-1.629907	0.185398	-1.456006
N	-0.315921	-1.274207	-2.14098
O	-1.101001	-1.519664	-3.053959
O	0.621673	-1.967029	-1.769661
C	-0.514099	-1.176956	0.702525
N	-0.942947	-2.128232	1.242273
C	-0.454805	1.208786	0.691904
N	-0.843971	2.169395	1.244647
Br	3.316417	0.0	0.0
