13

C	-0.430538	0.000308	-1.45007
C	0.0	0.0	0.0
Br	0.404223	-1.430773	-2.438585
H	1.095468	0.0	0.0
H	-0.150771	0.935292	-1.944152
N	-1.944858	-0.087276	-1.630172
O	-2.625999	-0.046226	-0.611409
O	-2.359399	-0.158146	-2.781417
C	-0.433614	-1.199191	0.699157
N	-0.747325	-2.16521	1.295586
C	-0.451402	1.1966	0.689852
N	-0.775492	2.156289	1.291932
Br	2.741171	0.0	0.0
