9
Coordinates from ORCA-job run
  C   -0.42874162814209     -0.24240868889590      0.13306248061037
  C   0.92104463511189     -0.26782146100630     -0.02670092730209
  H   1.47170133787644     -1.17565086201382      0.20334013829708
  C   -1.21002901461553      0.92300160263187     -0.15287178555609
  N   -1.85789730777655      1.87776251662638     -0.38605520998019
  C   -1.12349538950954     -1.40339625052145      0.60402124736072
  N   -1.69066891202611     -2.35861932839883      0.99202330261348
  C   1.64922268856375      0.86149060953158     -0.49223537611252
  N   2.26986359051774      1.78664186204646     -0.87558386993075
