9
Coordinates from ORCA-job run
  C   -0.42594641624851     -0.24282486862117      0.14278876279193
  C   0.93071975205013     -0.22753161891731      0.05618115005525
  H   1.50267542297929     -1.07093437120329      0.43269808653513
  C   -1.23338382831541      0.83834813058113     -0.33626207071719
  N   -1.90231401095012      1.72418241280002     -0.72785877014225
  C   -1.10109864000638     -1.36283993667871      0.72756330378041
  N   -1.65130767133596     -2.28391707518360      1.21075278873841
  C   1.63883911635172      0.86465606439556     -0.51674967474777
  N   2.24181627547524      1.76086126282737     -0.98711357629392
