9
Coordinates from ORCA-job run
  C   -0.50752757036377      0.02535077394421     -0.05600683809627
  C   0.73201588233122      0.33140286098059     -0.52310143862379
  H   0.83352667168442      0.90391862697342     -1.44082123249110
  C   -1.67483739835666      0.45844363650976     -0.76444223986875
  N   -2.63147701930620      0.81795642449405     -1.34761849732797
  C   -0.70584746980556     -0.72437983062688      1.14757958502919
  N   -0.87265770406466     -1.34323417402751      2.13485439605742
  C   1.91632494285911     -0.07260969832077      0.15289871600327
  N   2.90947966502209     -0.39684861992686      0.69765754931800
