9
Coordinates from ORCA-job run
  C   -0.42418418403883     -0.25488192772814      0.12772604095507
  C   0.91161325918792     -0.27045592141307     -0.12483556934616
  H   1.46135152171912     -1.20441310398078     -0.04878154188077
  C   -1.20246427254392      0.94410096694866      0.04544384104549
  N   -1.84606695497329      1.92714761327918     -0.02451607666492
  C   -1.10468270286532     -1.45998074348090      0.49748645616762
  N   -1.65990468418453     -2.45119331895535      0.80355299824341
  C   1.62666504469937      0.90414507468657     -0.48790637269413
  N   2.23767297299949      1.86553136064383     -0.78916977582561
