9
Coordinates from ORCA-job run
  C   -0.44457331739326     -0.22364152410361      0.11566599338418
  C   0.88867680130494     -0.34310474236287     -0.12225840239973
  H   1.35804331379096     -1.32171034412674     -0.07448987144032
  C   -1.11717029368262      1.03958860910545      0.06672816390337
  N   -1.67344718170350      2.07625498732677      0.02781178146579
  C   -1.23113441315879     -1.37921550999633      0.42830144862694
  N   -1.87531481750343     -2.33004952844531      0.68416709382059
  C   1.70308887784042      0.78076923877199     -0.43346021853068
  N   2.39183103050528      1.70110881383064     -0.69146598883015
