9
Coordinates from ORCA-job run
  C   -0.41681587383523     -0.25741862140377      0.14087555957171
  C   0.92768683299395     -0.24253767424749     -0.05974015417469
  H   1.51064211594190     -1.13732962428527      0.13932344617787
  C   -1.23799723753085      0.89013487950515     -0.10269540370748
  N   -1.92016617028626      1.82901311578465     -0.30017366375702
  C   -1.06613878902418     -1.44358027115507      0.61360913320253
  N   -1.60184458602156     -2.41731992795575      0.99986751384204
  C   1.61000407216251      0.91534694794267     -0.52513410535776
  N   2.19462963559972      1.86469117581490     -0.90593232579720
