9
Coordinates from ORCA-job run
  C   -0.43018002710302     -0.24125597261551      0.13277458287036
  C   0.91956136406886     -0.27235854185277     -0.02665379397414
  H   1.46628115315962     -1.18329302093228      0.20070109098611
  C   -1.13094607147754     -1.40049622646240      0.59882671689147
  N   -1.70440576940197     -2.35422400428116      0.98107019745427
  C   -1.20544844000280      0.92866535684210     -0.15135910919910
  N   -1.84778176839261      1.88738861032681     -0.38338020382351
  C   1.65301101943702      0.85618220153319     -0.48623017617433
  N   2.27890853971245      1.77939159744201     -0.86574930503114
