9
Coordinates from ORCA-job run
  C   -0.43696917152599     -0.24583417960901      0.09890901876941
  C   0.91241160779302     -0.28884780760345     -0.06133033198225
  H   1.43634676160631     -1.23462861995847      0.04542506484096
  C   -1.18244097362177      0.96999443748308     -0.02923384819005
  N   -1.80025801335983      1.96648668878400     -0.13371826042709
  C   -1.16741240795024     -1.43912188675135      0.40700197559288
  N   -1.76526162594176     -2.42060593051641      0.65951143653833
  C   1.67537884864815      0.87194096418450     -0.36701642251136
  N   2.32820497435210      1.81961633398713     -0.61954863263083
