9
Coordinates from ORCA-job run
  C   -0.43876885229385     -0.23275577837047      0.11726773721049
  C   0.90077476853550     -0.31590391771866     -0.09957685293225
  H   1.40076075104050     -1.27631431162839     -0.01051590458153
  C   -1.19022778988291     -1.40284285514341      0.46122537676884
  N   -1.80629332696070     -2.36533680747724      0.74201129536074
  C   -1.15325206541671      1.00424589397322      0.01791727745136
  N   -1.74606215317631      2.01806892005261     -0.06165995338322
  C   1.68353302744419      0.82109338773539     -0.44216325818861
  N   2.34953564071028      1.75074546857695     -0.72550571770582
