9
Coordinates from ORCA-job run
  C   -0.42359084624423     -0.25544570264793      0.12887166714671
  C   0.92320165307301     -0.25538498722342     -0.05633084354706
  H   1.49049421065445     -1.16489128832132      0.11993929990337
  C   -1.09632493487173     -1.44676216013997      0.55347153995428
  N   -1.64604248355254     -2.42744173389589      0.90078758792228
  C   -1.22260623162548      0.91320647560158     -0.08607293356710
  N   -1.88139753831634      1.87278354655477     -0.26122901907358
  C   1.62790407483833      0.90665263951626     -0.47603017132120
  N   2.22936209604453      1.85828321055592     -0.82340712741770
