9
Coordinates from ORCA-job run
  C   -0.43783015326902     -0.24083464349186      0.10461279678925
  C   0.89021965498469     -0.31104549518767     -0.17749612464552
  H   1.37602898637475     -1.28090717288378     -0.23777724821229
  C   -1.13363166877242      1.00715093252234      0.19711761704094
  N   -1.71140835255319      2.02982286012918      0.27388204119751
  C   -1.19554229258260     -1.43693667131957      0.32229137161803
  N   -1.81556849592441     -2.42085640945045      0.50130035690760
  C   1.67872094007799      0.85182527011982     -0.39859543721765
  N   2.34901138166421      1.80278132956199     -0.58433537347787
