9
Coordinates from ORCA-job run
  C   -0.43845195173786     -0.25393484809907      0.06676650619090
  C   0.91715743438981     -0.28080998251890     -0.03344731443022
  H   1.44330906182092     -1.22736947362688      0.05202498034022
  C   -1.18675026840011      0.96244168357904     -0.03758338456929
  N   -1.80398079770481      1.96119555959242     -0.12215738939906
  C   -1.17223495405039     -1.46484971025242      0.28491910851894
  N   -1.77273308804713     -2.46060784200528      0.46502839865050
  C   1.68217594119089      0.89863476332055     -0.24889780675747
  N   2.33150862253867      1.86529985001054     -0.42765309854452
