9
Coordinates from ORCA-job run
  C   -0.42838274382367     -0.25374058562982      0.11216972746839
  C   0.92241971173063     -0.26332667419777     -0.04086665650116
  H   1.47571280434783     -1.18341471538560      0.12499650254461
  C   -1.21110248992571      0.92782698088382     -0.09226418944062
  N   -1.85974589966202      1.89594977852045     -0.25839201733326
  C   -1.12317084811301     -1.44822878701532      0.48977317616002
  N   -1.69290663489742     -2.43009884404599      0.79945840986707
  C   1.64917342724378      0.90092468085280     -0.41411017409477
  N   2.27000267309958      1.85410816601743     -0.72076477867027
