9
Coordinates from ORCA-job run
  C   -0.43069024733965     -0.23845511047570      0.13347665601970
  C   0.89918588710669     -0.30594519571184     -0.14032339061478
  H   1.41080234807379     -1.26286544816212     -0.08728146325506
  C   -1.16009478872606      0.99267004721675      0.08056022501484
  N   -1.76638300257447      2.00075851898533      0.03742756740761
  C   -1.15714779105770     -1.42015613216182      0.49136000559585
  N   -1.75216186190406     -2.39184651267994      0.78554377693640
  C   1.65625078135328      0.84306816450357     -0.50009706922022
  N   2.30023867506817      1.78277166848577     -0.80066630788435
