9
Coordinates from ORCA-job run
  C   -0.50766808128984     -0.00027292663903     -0.05495164113430
  C   0.71643844833127      0.31335022479233     -0.55634515052187
  H   0.79248185615765      0.79114743296708     -1.52895472273581
  C   -1.69348522259876      0.29607742552433     -0.80194890354579
  N   -2.66610023380755      0.53920972283399     -1.41797855214752
  C   -0.67147878988119     -0.63193150241034      1.21971823273309
  N   -0.81316710781606     -1.15083574890131      2.26676535216408
  C   1.91773027913413      0.03403352615041      0.15207596600462
  N   2.92424885177034     -0.19077815431745      0.72161941918350
