9
Coordinates from ORCA-job run
  C   -0.42072028769548     -0.26704560033049      0.11188702780385
  C   0.93316711111383     -0.22430392742234     -0.00360575591131
  H   1.51977898071571     -1.11152593889801      0.21775154044165
  C   -1.24649376419330      0.86917696786599     -0.16646183420483
  N   -1.93063966672172      1.79964939597585     -0.39401613522628
  C   -1.07439748160167     -1.47338608792627      0.52354016674604
  N   -1.60912731020664     -2.46534867221060      0.86219458447943
  C   1.62029697394183      0.95339599534521     -0.40835499577001
  N   2.20813544464745      1.91838786760067     -0.74193459835853
