9
Coordinates from ORCA-job run
  C   -0.43938902773169     -0.22739835382612      0.12763267657980
  C   0.87175983815852     -0.33838632518773     -0.21424726901212
  H   1.32772823098387     -1.32193998255665     -0.28357751477956
  C   -1.09488479849891      1.04112835900030      0.23539732669436
  N   -1.63902226675420      2.08094819957228      0.32620288367306
  C   -1.21937639721438     -1.39861587057920      0.39578749094114
  N   -1.85823182538592     -2.36181231066716      0.61653799896473
  C   1.68092750890012      0.79898005116299     -0.48729441041308
  N   2.36948873754257      1.72709623308129     -0.71643918264832
