9
Coordinates from ORCA-job run
  C   -0.50627293375426     -0.01658580677052     -0.06553335625664
  C   0.70751795974328      0.42353492297826     -0.49134233063582
  H   0.77265832560945      1.04255371502918     -1.38172105765473
  C   -1.69569959291928      0.33161918706551     -0.78394869850626
  N   -2.67137649341131      0.61878789531443     -1.37572327347031
  C   -0.65512880425692     -0.83506886548004      1.10002493412330
  N   -0.78323225945857     -1.50794257135492      2.05730638349902
  C   1.91160783551447      0.10002632280543      0.19315088198923
  N   2.91992596293315     -0.15692479958735      0.74578651691221
