9
Coordinates from ORCA-job run
  C   -0.42730925694171     -0.24323653699709      0.13608504533640
  C   0.90100784042690     -0.29516633325677     -0.14817812061754
  H   1.42201284378125     -1.24762814180123     -0.10909450262306
  C   -1.14031136840665     -1.43604264938794      0.48403461491727
  N   -1.72471306180485     -2.41772355214611      0.76548921693820
  C   -1.16858274100820      0.98135639807851      0.10122561308446
  N   -1.78671973423135      1.98283178602485      0.07268824103275
  C   1.64459166326425      0.86430343933346     -0.50263042693430
  N   2.27902381492036      1.81130559015230     -0.80061968113418
