9
Coordinates from ORCA-job run
  C   -0.50997990097630      0.00843341791746     -0.03433839069603
  C   0.69913255665683      0.20462216939658     -0.62382188842972
  H   0.74563468448188      0.52987283369429     -1.65930221274217
  C   -0.63463010852416     -0.42163876868413      1.32570890375225
  N   -0.74155835840020     -0.77856867220799      2.44236441349764
  C   -1.71846303901493      0.22831304283741     -0.77131073737324
  N   -2.70931164023581      0.40882695011187     -1.37975962894533
  C   1.92230937784412     -0.00456201353445      0.07112327329168
  N   2.94686642816858     -0.17429895953105      0.62733626764493
