9
Coordinates from ORCA-job run
  C   -0.43724761870428     -0.24031902805306      0.10683272280438
  C   0.92046331945743     -0.26927868385814      0.04405735539888
  H   1.45244580989420     -1.17358341999637      0.32584602572696
  C   -1.19361173794858      0.92154546904243     -0.25175748867425
  N   -1.82208333518012      1.87260796378801     -0.54545227668063
  C   -1.16739665522091     -1.39414292199051      0.53969668208753
  N   -1.76552834922107     -2.34328653390774      0.89451449664580
  C   1.68157813380154      0.85394254648469     -0.38219163959978
  N   2.33138043312180      1.77251460849069     -0.73154587770889
