9
Coordinates from ORCA-job run
  C   -0.50884386665609     -0.01345061089611     -0.03449443493719
  C   0.68621323076588      0.31485383603154     -0.59324363226097
  H   0.71063627887376      0.77604683329009     -1.57648075408895
  C   -1.73130832767100      0.24622908101858     -0.73446475255893
  N   -2.73507330891192      0.46149217560695     -1.30961590702069
  C   -0.60563540619942     -0.62306846011013      1.25761280775989
  N   -0.69232250629817     -1.12430700304376      2.31909753392896
  C   1.92168581646487      0.07572841748696      0.06974496085446
  N   2.95564808963209     -0.11352426938410      0.60184417832343
