9
Coordinates from ORCA-job run
  C   -0.50719338648545      0.01736378942210     -0.05441145124417
  C   0.72497698302256      0.35536562483536     -0.51887019993742
  H   0.81392186859095      0.93999303312715     -1.43019770712386
  C   -0.68874694997037     -0.75104619905404      1.14018894277210
  N   -0.84576737338460     -1.38270627369989      2.12104228804626
  C   -1.68415226458841      0.42844001687294     -0.76001163536662
  N   -2.64949379490556      0.76771568213929     -1.34111115689377
  C   1.91804017599032     -0.03233624369556      0.15135909113397
  N   2.91741474173056     -0.34378942994736      0.69201182861352
