13

C	0.0	0.0	0.0
C	-0.480527	0.182227	-1.44247
F	1.37634	0.0	0.0
H	0.413532	0.338865	-2.065431
H	-0.349393	0.835917	0.592859
C	-0.436651	-1.261867	0.60839
N	-0.499876	-2.306513	1.142958
N	-1.247455	1.472938	-1.607494
O	-2.092555	1.518325	-2.488815
O	-0.85011	2.429526	-0.952287
C	-1.242091	-0.92641	-2.0012
N	-1.652628	-1.854821	-2.591093
F	-2.299333	0.0	0.0
