13

C	0.0	0.0	0.0
C	-0.474138	-0.090489	-1.453741
F	1.379152	0.0	0.0
H	0.423668	-0.025392	-2.089923
H	-0.347357	0.933688	0.424253
C	-0.436214	-1.123664	0.835212
N	-0.512989	-2.043421	1.56374
N	-1.262027	1.135502	-1.851014
O	-2.12088	1.005142	-2.709203
O	-0.861121	2.200105	-1.396263
C	-1.209158	-1.298179	-1.805397
N	-1.645572	-2.314512	-2.199746
F	-2.294191	0.0	0.0
