11

C	0.0	0.0	0.0
C	-0.465933	0.170747	-1.429976
Cl	1.79934	0.0	0.0
H	-1.55847	0.16318	-1.458915
H	-0.253444	0.886046	0.589718
H	-0.070207	-0.646392	-2.035877
H	-0.105848	1.120398	-1.830783
N	-0.493764	-1.234993	0.544367
H	-0.297002	-1.264566	1.540756
H	-1.511753	-1.197641	0.438457
Br	-3.852468	0.0	0.0
