11

C	0.0	0.0	0.0
C	-0.447217	-0.086825	-1.449133
Cl	1.800418	0.0	0.0
H	-1.539792	-0.058655	-1.46669
H	-0.297293	0.959368	0.425998
H	-0.097794	-1.028141	-1.885969
H	-0.045076	0.738336	-2.042511
N	-0.496362	-1.032541	0.867589
H	-0.396084	-1.925836	0.396278
H	-1.502321	-0.857738	0.947997
Br	-3.839976	0.0	0.0
