20

C	-0.387948	0.046451	-1.482377
C	0.0	0.0	0.0
Br	0.034001	-1.823581	-2.33496
H	1.098207	0.0	0.0
C	-1.865898	0.217028	-1.780989
H	-2.205059	1.176888	-1.383128
H	-2.448176	-0.589624	-1.336271
H	-2.043527	0.201904	-2.859085
N	0.390092	1.036003	-2.113714
H	0.285538	1.020114	-3.119648
H	1.371412	0.935264	-1.859182
C	-0.508816	-1.199522	0.784778
H	-0.133481	-2.136895	0.378406
H	-1.604532	-1.238642	0.808771
H	-0.155905	-1.118367	1.816351
C	-0.445149	1.295962	0.690969
H	0.049118	1.354698	1.66353
H	-0.15589	2.173106	0.112121
H	-1.527646	1.318422	0.859301
Cl	3.499215	0.0	0.0
