20

C	-0.225073	-0.030477	-1.510202
C	0.0	0.0	0.0
Br	-2.188023	-0.290943	-1.944214
H	1.102909	0.0	0.0
C	0.170846	1.276813	-2.183617
H	1.215096	1.472047	-1.915441
H	-0.453131	2.114939	-1.872536
H	0.092413	1.176342	-3.269655
N	0.472529	-1.174715	-2.042271
H	0.534603	-1.099844	-3.052822
H	1.420014	-1.155932	-1.658023
C	-0.491083	-1.25703	0.706645
H	-0.015639	-1.325847	1.68952
H	-0.237471	-2.150672	0.136325
H	-1.577003	-1.229067	0.845032
C	-0.507139	1.255719	0.690667
H	0.018135	2.151318	0.354239
H	-0.33453	1.167487	1.766917
H	-1.582639	1.389449	0.52813
Cl	3.472159	0.0	0.0
