20

C	-0.44717	-0.079236	-1.473245
C	0.0	0.0	0.0
Br	-0.143565	1.689382	-2.341898
H	1.096209	0.0	0.0
C	0.405086	-1.070993	-2.250167
H	0.20311	-2.08724	-1.896041
H	1.463318	-0.857206	-2.08983
H	0.156341	-1.021952	-3.311202
N	-1.855036	-0.369446	-1.700081
H	-2.424239	0.244012	-1.127402
H	-2.027131	-1.322076	-1.396846
C	-0.432655	-1.271427	0.742998
H	-0.154037	-2.186224	0.214489
H	-1.51265	-1.287377	0.93213
H	0.079713	-1.298817	1.708115
C	-0.503873	1.216422	0.76832
H	-0.043609	2.134616	0.409437
H	-1.593799	1.324224	0.702789
H	-0.246293	1.105718	1.824711
Cl	3.548765	0.0	0.0
