16

C	-0.544134	0.00792	-1.411272
C	0.0	0.0	0.0
Cl	0.109817	-1.399775	-2.270223
H	1.087708	0.0	0.0
C	-1.993475	0.014114	-1.526915
N	-3.162462	-0.013708	-1.652455
N	0.007688	1.264689	-2.150293
O	-0.678639	1.707645	-3.05588
O	1.107376	1.642726	-1.794019
N	-0.475817	-1.207705	0.744585
O	-1.659218	-1.209613	1.084451
O	0.355299	-2.079439	0.969712
N	-0.491373	1.168463	0.771768
O	-0.09986	1.220585	1.935214
O	-1.10078	2.052414	0.159927
Br	2.747317	0.0	0.0
