18

C	-0.401051	0.009401	-1.447264
C	0.0	0.0	0.0
Cl	0.206626	-1.425829	-2.253465
H	1.094583	0.0	0.0
N	-1.934877	0.053759	-1.641331
O	-2.401973	-0.333635	-2.706757
O	-2.533711	0.72667	-0.804322
N	0.166492	1.208727	-2.260884
O	1.376017	1.29763	-2.287779
O	-0.650331	1.935696	-2.81583
C	-0.553236	-1.169636	0.776899
H	-0.244123	-2.108848	0.31922
H	-1.644668	-1.134402	0.854219
H	-0.139727	-1.138133	1.78449
N	-0.26026	1.285436	0.691192
O	-0.842995	1.248801	1.789715
O	-0.236709	2.319214	-0.0086
Cl	2.878223	0.0	0.0
