18

C	-0.538708	-0.063916	-1.418802
C	0.0	0.0	0.0
Cl	-2.210504	-0.581192	-1.539995
H	1.088661	0.0	0.0
N	-0.328389	1.260649	-2.175679
O	-1.214533	1.668913	-2.903032
O	0.778257	1.741712	-1.992621
N	0.278786	-1.070859	-2.254357
O	0.624002	-2.097494	-1.691864
O	0.441329	-0.782322	-3.432663
C	-0.452605	-1.131443	0.917222
H	-0.26358	-2.090034	0.442753
H	-1.511909	-1.044936	1.169201
H	0.147045	-1.06836	1.824377
N	-0.442673	1.274924	0.653563
O	-1.254687	1.997715	0.0712
O	0.008758	1.484801	1.772724
Cl	3.21405	0.0	0.0
