18

C	-0.517072	-0.016454	-1.428724
C	0.0	0.0	0.0
Cl	-2.214578	-0.41878	-1.582514
H	1.088627	0.0	0.0
N	-0.20503	1.298062	-2.176845
O	0.937227	1.687891	-1.992352
O	-1.057677	1.78151	-2.898164
N	0.255585	-1.054177	-2.2699
O	0.867301	-1.928019	-1.675146
O	0.146907	-0.919144	-3.482932
C	-0.483635	-1.155844	0.864138
H	-1.552618	-1.080198	1.074266
H	-0.27238	-2.100203	0.369035
H	0.076021	-1.123888	1.797647
N	-0.426538	1.268006	0.679784
O	-0.042107	1.408248	1.833901
O	-1.144147	2.064059	0.072601
Cl	3.241396	0.0	0.0
