18

C	-0.385843	-0.010395	-1.470734
C	0.0	0.0	0.0
Cl	0.181368	-1.483355	-2.217181
H	1.091627	0.0	0.0
N	-1.895013	0.096268	-1.751689
O	-2.569428	-0.819124	-1.304765
O	-2.292261	1.057936	-2.390436
N	0.237515	1.186168	-2.215055
O	0.379199	1.073905	-3.42185
O	0.485489	2.166098	-1.528155
C	-0.473038	-1.183884	0.833076
H	-0.118919	-2.116502	0.399166
H	-0.01284	-1.077239	1.816915
H	-1.558862	-1.20984	0.925968
N	-0.50983	1.220833	0.694859
O	0.162514	1.654889	1.618767
O	-1.615775	1.645245	0.352942
Cl	3.226466	0.0	0.0
