18

C	-0.435336	-0.00681	-1.461723
C	0.0	0.0	0.0
Cl	0.229229	1.359789	-2.300465
H	1.089523	0.0	0.0
N	0.040904	-1.272827	-2.185911
O	-0.394546	-1.401603	-3.325249
O	0.801603	-2.021999	-1.591546
N	-1.958575	-0.088008	-1.661105
O	-2.437922	-1.144512	-1.263833
O	-2.551131	0.839951	-2.179364
C	-0.524534	-1.097221	0.912423
H	-0.251311	-2.074322	0.523019
H	-0.024552	-0.969562	1.875309
H	-1.603964	-1.03883	1.04397
N	-0.461643	1.309551	0.57633
O	0.356561	2.002839	1.165643
O	-1.662142	1.567268	0.445745
Cl	3.280862	0.0	0.0
