15
Coordinates from ORCA-job run
  C   -0.64180580353691      0.16692076936683     -0.18066757042135
  C   0.72254530892587     -0.13048496433372      0.48618033967811
  Cl  -0.96761190442889      1.92173187755092     -0.12477978688609
  H   0.81541384163269     -1.21653552922818      0.57137079352304
  N   -0.55223486948004     -0.21464516205783     -1.55838733074696
  H   -0.22860120485525     -1.16820320523977     -1.67121459082952
  H   -1.43691108127319     -0.08051072522971     -2.03080819982419
  N   -1.62234537359430     -0.47981638603607      0.67487009424386
  H   -1.81005018241493     -1.41590427129377      0.33568416881478
  H   -2.48807986651401      0.04140710538930      0.70861777907311
  C   0.84164798553719      0.47769353054672      1.80119651331911
  N   0.96934798148969      0.93644247061206      2.87395949757403
  N   1.86341236112087      0.29207446165768     -0.40347188310153
  O   2.21950463750361      1.46117525574662     -0.35334273864776
  O   2.31576816988761     -0.59034522745107     -1.12720708576864
