15
Coordinates from ORCA-job run
  C   -0.60206957887848     -0.41926959251833     -0.32692180158884
  C   0.86448688614807     -0.27062043967584      0.19089343461805
  Cl  -0.84888280383148     -2.25042079062377     -0.29711430531248
  H   1.53609238294005     -0.77783523708010     -0.50311267498154
  N   -1.45329110135792      0.31804031068255      0.51053934030977
  H   -1.38691962543324      0.06884409025233      1.48878252660480
  H   -2.40884471322902      0.25887319048663      0.18387809599097
  N   -0.84550524777512     -0.02075892801869     -1.67242282304600
  H   -0.31841787602590     -0.57438279959319     -2.33394309758705
  H   -0.63175914249354      0.96185230099903     -1.79297639360128
  C   1.03492927709227     -0.76969251970694      1.54722844073553
  N   1.14479830461102     -1.18244389759676      2.64140389571563
  N   1.22909594558340      1.19595080899557      0.14645731996204
  O   1.50379228313041      1.62686956659599     -0.97105796634121
  O   1.18449500951947      1.83699393680152      1.18736600852161
