15
Coordinates from ORCA-job run
  C   -0.61745972342925     -0.28340019015199     -0.39812506518470
  C   0.67102118092464     -0.25831994114482      0.46840687687603
  Cl  -0.23905694905831     -1.55382138777837     -1.68833829037042
  H   0.83712146562132     -1.25755533118192      0.87248223573395
  N   -1.75630586480938     -0.77298111730449      0.31012074374956
  H   -2.01840406500703     -0.12917953611404      1.04692327877512
  H   -1.63336911570735     -1.71348373480238      0.65874840677391
  N   -0.92962126984164      0.99263005949210     -0.88303536935726
  H   -1.77365539430594      0.96209910709224     -1.43938033307727
  H   -0.16710898999597      1.43808760427007     -1.37387584810875
  C   0.54165166064706      0.71913498066493      1.54291469942234
  N   0.41485216368586      1.47469156633857      2.43303252762153
  N   1.91969988945803      0.05232727387730     -0.32505741126083
  O   2.81612468138250     -0.77975771560291     -0.27792577325741
  O   1.93351033043546      1.11052836234569     -0.94689067833578
