15
Coordinates from ORCA-job run
  C   -0.65081054778511     -0.00799920189264     -0.19933188916990
  C   0.77394932575683     -0.27155427821526      0.34113935393853
  Cl  -0.83246777890341      1.87136837647395     -0.17334404181586
  H   0.98985505480775     -1.32374211478377      0.13309496688254
  N   -0.80639509751223     -0.54164879175785     -1.49461413984654
  H   -0.04609907939767     -0.26675126254146     -2.10262445515581
  H   -1.68577536965385     -0.24565732140291     -1.90072704437607
  N   -1.56308094464846     -0.61703185818841      0.69748140116266
  H   -1.73537823807110     -0.05165905802993      1.51810178616923
  H   -2.43441293309924     -0.85261273270145      0.24226726790409
  C   0.85406526456954     -0.00313922912017      1.76864044431060
  N   0.88031352504409      0.18529442594401      2.92705544768655
  N   1.82920058505627      0.52382066686719     -0.39555802040278
  O   2.51077866231981      1.31719705037150      0.23570037983912
  O   1.91625757151672      0.28311532897716     -1.59728145712627
