15
Coordinates from ORCA-job run
  C   -0.73715651817976      0.08350170364336     -0.14761312461932
  C   0.68832349897678     -0.09048412455161      0.46636812707592
  Cl  -1.19746566778758      1.79855852214721      0.00947657981491
  H   0.94025528334921     -1.15409638891544      0.41382725721932
  N   -0.85095145472251     -0.25500196936748     -1.53957560359064
  H   -0.50205986124040     -1.19223976321666     -1.70746262664119
  H   -0.34694376094268      0.38747538843430     -2.13831813895338
  N   -1.59384325609806     -0.69613313208099      0.70327626401849
  H   -2.55541038048722     -0.53819553547349      0.42065031396781
  H   -1.39029095352375     -1.68381328616154      0.58191786210066
  C   0.78020899797689      0.37727454062062      1.83926478584435
  N   0.89145412930827      0.70788526116005      2.96024743587215
  N   1.71707487812949      0.59051550849690     -0.39529117123435
  O   2.08865600588428     -0.05856858560129     -1.37180394946859
  O   2.06714905935701      1.72432186086609     -0.09396401140621
