15
Coordinates from ORCA-job run
  C   -0.65309477252727     -0.25720199955656     -0.35679192422485
  C   0.68759080597926     -0.28663682636356      0.42652945752167
  Cl  -0.41345909542755     -1.54645243342210     -1.66118709903363
  H   0.83477482350242     -1.29104736656108      0.82507705670987
  N   -1.76506047192217     -0.69365585947878      0.42494265973006
  H   -1.95219923391983     -0.03562747166841      1.17194315547279
  H   -1.66143498763695     -1.63704786215550      0.77198865956501
  N   -0.93917802250366      1.03009286694728     -0.82823225120962
  H   -1.81748163112756      1.03499863308039     -1.32965834018918
  H   -0.19074700363099      1.43972079962019     -1.36934098700696
  C   0.66936946304653      0.69872235981703      1.50145044163781
  N   0.63037736629804      1.46171976397669      2.39339773344038
  N   1.89615757236870     -0.03424079875900     -0.44572888820535
  O   1.91742736782394      1.02010683634807     -1.07389915280041
  O   2.75595781967709     -0.90545064182461     -0.45049052140758
