15
Coordinates from ORCA-job run
  C   -0.64642814992488      0.03296697426856     -0.21023991484604
  C   0.75041344354484     -0.31755705979644      0.35357057830540
  Cl  -0.71484568094479      1.91975997746409     -0.17802669931035
  H   0.90586685976756     -1.38038608923796      0.14570121220493
  N   -0.81115900092599     -0.48573679974655     -1.51029991761847
  H   -1.66253390761679     -0.13388410584234     -1.93120077562511
  H   -0.02379311477164     -0.25859594665538     -2.10334243293139
  N   -1.60924967626299     -0.52291350567056      0.66770942321476
  H   -1.76828321024995      0.05148934737658      1.48452848818333
  H   -2.48121941904655     -0.71610928948063      0.19447813663942
  C   0.82146058310892     -0.05825595928755      1.78324749829918
  N   0.83564701690826      0.11925688917220      2.94359093965066
  N   1.86434114957313      0.41433194477053     -0.36190447138770
  O   1.95912435588209      0.17012996550604     -1.56239813986943
  O   2.58065875095882      1.16450365715939      0.28358607509077
