15
Coordinates from ORCA-job run
  C   -0.65506425997390     -0.29099369460026     -0.31494712739632
  C   0.70725199439059     -0.28618076511377      0.44806100529099
  Cl  -0.42998743008522     -1.52189698765647     -1.65378871585410
  H   0.87788240163017     -1.25623871963392      0.91854803617664
  N   -1.63816710291185     -0.64867276021582      0.63755859980784
  H   -2.55613191121127     -0.56875855267626      0.21613830037805
  H   -1.50721295588049     -1.58348534542411      1.00169927675295
  N   -1.06311694049898      0.92721689724279     -0.92611096562292
  H   -0.38169308117860      1.25532843220193     -1.59728541149271
  H   -1.21153447603602      1.63292843345476     -0.21266264456936
  C   0.71080956759723      0.78821901546826      1.43108702713331
  N   0.69574005883098      1.66980468255772      2.20688744037847
  N   1.86937242664426     -0.08726985045097     -0.48923891812167
  O   2.69768260808372     -0.98798310686871     -0.53498904494604
  O   1.88316910059936      0.95798232171484     -1.13195685791513
