15
Coordinates from ORCA-job run
  C   -0.72505202908097      0.13707472001156     -0.16349501409595
  C   0.66814505224268     -0.14168626333379      0.48566224119200
  Cl  -1.06284025241515      1.88115826599809     -0.01754467551985
  H   0.83767708765737     -1.22191578514664      0.44408338224702
  N   -0.82638734723196     -0.19367022248722     -1.55813505212495
  H   -0.53581431734996     -1.15151838393161     -1.72019467406933
  H   -0.26929057544380      0.41569771092349     -2.14419772218549
  N   -1.65748415209106     -0.57678639043651      0.66504753201956
  H   -1.52426594262679     -1.57682872830508      0.54768160261133
  H   -2.59763796911610     -0.34872829297496      0.35932916210778
  C   0.76421314409612      0.32850378797788      1.85718363059225
  N   0.86426238173773      0.67286759829931      2.97508659705314
  N   1.76522122900646      0.45123906010514     -0.35610852254987
  O   2.18515511893821      1.56292532754239     -0.06136282557828
  O   2.11609857167722     -0.23733240424202     -1.31303566169936
