15
Coordinates from ORCA-job run
  C   -0.56421735418877     -0.28123099522854     -0.34810689438592
  C   0.75077355435013     -0.28736219504528      0.47349268616680
  Cl  -0.40358420294861     -1.55200602481973     -1.64152774101150
  H   0.90985791496243     -1.28101539642964      0.89770505387231
  N   -1.61190767811851     -0.57592706001851      0.57650362559770
  H   -2.51474914355509     -0.47416292256172      0.12840727376130
  H   -1.53881168836067     -1.51396680842660      0.95437670235260
  N   -0.71391764370357      0.96947725117728     -1.01951285051829
  H   -0.95730374550387      1.69729944318471     -0.35710711101655
  H   -1.40634095731344      0.91584946785184     -1.75438869399813
  C   0.68233267962296      0.72326559675771      1.52123282119853
  N   0.62252918075554      1.52792338934112      2.37430714689808
  N   1.95771335761811     -0.01557604204084     -0.39318763815943
  O   2.22261914001066      1.15502584105831     -0.63139342997502
  O   2.56500658637268     -1.00759354480012     -0.78280095078245
