15
Coordinates from ORCA-job run
  C   -0.78456586466798     -0.18754890066821      0.03513907070195
  C   0.61583711945520     -0.01376870808263      0.70297217996267
  Cl  -1.92239753350392     -0.15267776299783      1.48327525962524
  H   0.77022303657750     -0.76865555115724      1.47510754296761
  N   -1.21387819709364      0.84918424254468     -0.84045063969859
  H   -0.54767276590232      0.95265118173774     -1.59764179179895
  H   -1.32960978646835      1.72994946373144     -0.35647120870385
  N   -0.77630231921052     -1.39753476798399     -0.68368120485303
  H   -1.65646067736131     -1.51826194773161     -1.16807007051083
  H   -0.56343868994464     -2.20674878621225     -0.11518640245654
  C   0.78399995967038      1.32707227449765      1.23848535139818
  N   0.90443614291543      2.41486773221937      1.66390904359337
  N   1.66381146900188     -0.27255396151716     -0.35023632102508
  O   1.78427421147561      0.57481418869884     -1.22838965696533
  O   2.27374389505670     -1.33078869707880     -0.25876115223682
