15
Coordinates from ORCA-job run
  C   -0.56422937831640     -0.27065965402912     -0.35461133563384
  C   0.74206749903177     -0.29977951492408      0.48037141922515
  Cl  -0.40160215533544     -1.52593088822041     -1.66260776569209
  H   0.88202015364083     -1.29693440269656      0.90307388128327
  N   -1.62383496359886     -0.56684644755218      0.55572052132417
  H   -1.56510748638822     -1.51064225297350      0.92135050645805
  H   -2.52108175312554     -0.44743383470228      0.10096716612039
  N   -0.69617548280964      0.99003477526794     -1.01071759353604
  H   -0.94966195539083      1.70987630921040     -0.34358131497717
  H   -1.37151400441726      0.95030337390117     -1.76216770064608
  C   0.67693000325682      0.70972332680715      1.52960941515868
  N   0.62033786998932      1.52202211771255      2.37564324299578
  N   1.96255879884908     -0.04352312035692     -0.37214855218505
  O   2.56263631224103     -1.04357145912273     -0.75222194796251
  O   2.24565654237334      1.12336167167855     -0.60767994193271
