15
Coordinates from ORCA-job run
  C   -0.79729128733294     -0.09928051122768      0.02091664219732
  C   0.62284344973279     -0.13162804231265      0.67185822250247
  Cl  -1.90687915442382     -0.01413880305346      1.49619971678528
  H   0.70624420636461     -1.02691455848839      1.28946224254403
  N   -0.86904509289302      0.99701544337547     -0.85228892831980
  H   -0.64674202782320      1.88431563352322     -0.42019448610438
  H   -1.77252028253372      1.02907390762946     -1.30616246596707
  N   -1.19653988590684     -1.26483059617082     -0.69340675186863
  H   -0.56770502756851     -1.43532413805749     -1.46869194628370
  H   -1.24163835724157     -2.07984647026007     -0.09707234884525
  C   0.91625267004941      1.06752679631001      1.44229673986082
  N   1.12946283555056      2.04184107078886      2.06283822398382
  N   1.64074905853362     -0.27787542914022     -0.43623233095058
  O   2.23436100787931      0.72243444811496     -0.81472135943693
  O   1.74744788761327     -1.41336875103124     -0.89380117009737
