15
Coordinates from ORCA-job run
  C   -0.70318718311906     -0.08714000747929     -0.09086030198021
  C   0.61457620592752     -0.13213331581123      0.70625049001543
  Cl  -1.99589010677464     -0.13109517988316      1.33801825028623
  H   0.59913152141440     -0.97491766215921      1.39765265687947
  N   -0.81201363342806      1.09412008028538     -0.83451328726340
  H   -0.86873346831579      1.91981805561380     -0.25355411182969
  H   -1.58256162926979      1.07579197351080     -1.48883442300429
  N   -0.81258298715027     -1.22385728985487     -0.90772047562669
  H   -1.69135167438538     -1.24570632018769     -1.40924778590913
  H   -0.70196790459409     -2.08444002751833     -0.38854098068839
  C   0.85754282106860      1.11452602441823      1.41502481331578
  N   1.03675010422970      2.12897423606044      1.97830740814435
  N   1.75404287077321     -0.40794122855641     -0.25465761702773
  O   2.24023346533220      0.54369953040486     -0.84775921044008
  O   2.06601159829137     -1.58969886884331     -0.35856542487160
