15
Coordinates from ORCA-job run
  C   -0.57874472044074     -0.38909729822749     -0.45154905253600
  C   0.69801719584060     -0.29497556020539      0.43981318436537
  Cl  -0.30043964999549     -1.85460300279810     -1.50734025424946
  H   0.91314813698309     -1.28078409500205      0.85272623446869
  N   -1.76500556998622     -0.68532209706871      0.29804149168447
  H   -1.74349574076561     -1.59477336585346      0.74032751331724
  H   -1.96142670250466      0.04583590536898      0.97172611951574
  N   -0.72523806120149      0.77886579278692     -1.21859040065767
  H   -0.21063003760368      1.59041086639136     -0.91463672332222
  H   -1.68977597875993      0.96455958967920     -1.44740392646449
  C   0.48225229425661      0.68133009163264      1.50085273122394
  N   0.23243114948351      1.43779506324587      2.36420049282938
  N   1.92164177288041      0.10288967834653     -0.35135901236433
  O   2.05106316786039      1.29966851403667     -0.59517679617023
  O   2.67620274395334     -0.80180008233302     -0.68163160164039
