15
Coordinates from ORCA-job run
  C   -0.64899899166415     -0.05442600081184     -0.19707954612611
  C   0.79715111232956     -0.21396945828171      0.32755821345342
  Cl  -0.99322483735947      1.79881793861906     -0.09279606968356
  H   1.10171731786615     -1.23477715441231      0.07824331450881
  N   -0.76619578431960     -0.54718114078748     -1.51227341887367
  H   -1.67026196625458     -0.31248422347646     -1.90390247942467
  H   -0.03584239033685     -0.18533663684592     -2.11127491244345
  N   -1.49851214544398     -0.77667857104342      0.67691364170478
  H   -2.34331641599321     -1.08057338561317      0.21264133757189
  H   -1.72122878462271     -0.26075540101668      1.51752623158915
  C   0.86350771689311      0.00438179811302      1.76436437712092
  N   0.87677402932548      0.13021206672158      2.93146110601470
  N   1.77410760492424      0.69794929803363     -0.38070580841786
  O   2.38777027212006      1.52289778227198      0.27934487396692
  O   1.87555326253595      0.51192308852973     -1.59102086096125
