15
Coordinates from ORCA-job run
  C   -0.65157003371982     -0.28402741890421     -0.32794438653342
  C   0.69571225332130     -0.29337543918379      0.46061963443060
  Cl  -0.41387909729110     -1.51760421797694     -1.66213920880993
  H   0.84819279945514     -1.26563293974723      0.93285385337431
  N   -1.65652561783903     -0.63174490346827      0.60583116209067
  H   -1.54203201225485     -1.56833743488267      0.97099425325593
  H   -2.56512033032007     -0.54342696909548      0.16606331114453
  N   -1.03558264852411      0.93833926983303     -0.94599634680888
  H   -1.19817685170419      1.64235909490623     -0.23446489845241
  H   -0.33561431930644      1.26419645458812     -1.59854032686256
  C   0.69212786804147      0.77946311336590      1.44532439159254
  N   0.67256804934317      1.65920141640544      2.22321723119594
  N   1.87733814352620     -0.10527517845275     -0.45461254040924
  O   1.91398672135334      0.94065367809060     -1.09534858420836
  O   2.69657507591899     -1.01478852547800     -0.48685754499977
