15
Coordinates from ORCA-job run
  C   -0.64165275841686     -0.13553436300712     -0.39120748149990
  C   0.68362774775234      0.25143071076762      0.32444165207594
  Cl  -0.29893789228438     -0.27520400088682     -2.15065742677377
  H   0.45469271701904      0.39268505623344      1.38491489115882
  N   -1.06402662698145     -1.39630286930650      0.10967294105306
  H   -2.02915871222305     -1.56123320525004     -0.14429082026264
  H   -0.91691163089277     -1.50989662266359      1.10362494016517
  N   -1.64331077920390      0.89158265625242     -0.26598231762108
  H   -1.86542401977073      1.06243926773602      0.70793607941279
  H   -1.38436091108476      1.75461086698468     -0.72890896755405
  C   1.25477388109877      1.47341860115819     -0.21857760634234
  N   1.67033964025524      2.49597997645532     -0.61906104243387
  N   1.69276664763545     -0.87058732967996      0.29697247438088
  O   1.60893955702923     -1.66357955699659      1.23047364586315
  O   2.47864314006785     -0.91080918779707     -0.63935096162211
