15
Coordinates from ORCA-job run
  C   -0.70292780232685     -0.10340302664004     -0.07446269676023
  C   0.64050161389584     -0.14620134616148      0.67843838063220
  Cl  -1.94767614071268     -0.24211221375667      1.39168068699676
  H   0.66875004702214     -1.01869303521074      1.33150622294853
  N   -0.86700311193533      1.10384156827853     -0.76394475886356
  H   -0.90284659906319      1.90455292537396     -0.14724549559355
  H   -1.67551755518693      1.09961374201840     -1.37131649483516
  N   -0.80894225373036     -1.20875930719609     -0.93354335567243
  H   -1.69215288213423     -1.22236333392397     -1.42738389027681
  H   -0.68269943919981     -2.08705883686845     -0.44871703861827
  C   0.87447498453082      1.07359839771572      1.43545226673491
  N   1.04640317969919      2.06279499595066      2.04410652553821
  N   1.75557898153265     -0.34744422315008     -0.32852257228097
  O   2.10208211396020     -1.51294278857316     -0.48911689650673
  O   2.19097486364859      0.64257648214348     -0.89793088344293
