15
Coordinates from ORCA-job run
  C   -0.62193017971517     -0.27697257066670     -0.23740710087550
  C   0.73278204654507     -0.21744626484487      0.50125094792278
  Cl  -0.37422755140505     -1.65541501181818     -1.49690143432012
  H   0.88629885871108     -1.17037924952597      1.00727525818021
  N   -1.60144662618591     -0.67267564187258      0.71569074089887
  H   -2.45309619541317     -0.13855362867412      0.62459166095356
  H   -1.78243365176275     -1.66526085380169      0.71770559497042
  N   -0.95863216515067      0.95434984382919     -0.81699312580312
  H   -1.76685808859282      0.87259701554552     -1.42044211525155
  H   -0.18476012584284      1.37205925406625     -1.31691964130165
  C   0.74695266365754      0.88464973642781      1.45659847966714
  N   0.79000305715460      1.76200195403059      2.23558762343307
  N   1.90879762022490     -0.05801884821342     -0.43136503344486
  O   2.77837487180097     -0.91687902334412     -0.37154718874487
  O   1.90017546597416      0.92494328886231     -1.16812466628435
