15
Coordinates from ORCA-job run
  C   -0.77345255770518     -0.07969737120172      0.15903830070227
  C   0.66916270586249     -0.23142317258197      0.68195376948745
  Cl  -1.80799710567591     -0.33785067348234      1.60276004728704
  H   0.73207081879429     -1.16087524399595      1.24705796375567
  N   -1.00597083716075      1.25790617721034     -0.29604886883898
  H   -1.97145383817756      1.37631579277110     -0.57697125240290
  H   -0.38942894435406      1.46862057240628     -1.07150879993464
  N   -1.00781075687170     -1.20266644268847     -0.73416690898647
  H   -0.75941672660815     -0.93232884163184     -1.67928097498312
  H   -1.98306107097376     -1.47212468282653     -0.71866230225903
  C   1.12668729689249      0.89805821712784      1.48212624535695
  N   1.53191179629623      1.78346486500766      2.13822751441159
  N   1.63951148184623     -0.41506492294684     -0.46732591413503
  O   1.43290633075144      0.23619115975120     -1.48974853155492
  O   2.56634140708389     -1.18852543291874     -0.27645028790586
