15
Coordinates from ORCA-job run
  C   -0.65062246852231     -0.25067168889759     -0.36582109157671
  C   0.67918055107567     -0.29392425529526      0.43560136589146
  Cl  -0.40663884878298     -1.54009341055328     -1.66924136250256
  H   0.81194591200601     -1.30029467956270      0.83422163149613
  N   -1.77740553681117     -0.67725872227767      0.39990629919735
  H   -1.68854198706186     -1.62265095364424      0.74547650713557
  H   -1.96783022039428     -0.01925923226324      1.14605658247451
  N   -0.91692519395600      1.04011422819504     -0.83869527894654
  H   -1.78719142185324      1.05542064047074     -1.35356800350061
  H   -0.15610809030889      1.44520265205958     -1.36572486470778
  C   0.65489378396003      0.68975652899580      1.51183375589391
  N   0.61248319466733      1.44952169386400      2.40636794294423
  N   1.90036781339804     -0.05031466218595     -0.42102957458655
  O   2.74753631639152     -0.93374545279249     -0.42658178860645
  O   1.94285619619213      1.01019731388726     -1.03780212060595
