15
Coordinates from ORCA-job run
  C   -0.61621780552078     -0.38689265882015     -0.28948380113890
  C   0.69655815692999     -0.15541996919020      0.52383635145759
  Cl  -0.23804026975530     -1.80703903058126     -1.38329820315190
  H   0.90011656247603     -1.01748114687498      1.16172278279970
  N   -1.62858166161296     -0.64742152510049      0.66449234987843
  H   -2.52377811650405     -0.70514474194097      0.19335409838175
  H   -1.46128957730508     -1.49678559494414      1.18818049669162
  N   -1.06371679637047      0.67829131113987     -1.11962763865390
  H   -0.36607775823483      0.93820543409043     -1.80359539570134
  H   -1.29913884705415      1.48070456994828     -0.54579836292593
  C   0.57584958963931      1.06728392859804      1.30548471568313
  N   0.46680566113298      2.07135087351233      1.90493255104148
  N   1.89624975165586     -0.03491914094819     -0.37914518957352
  O   2.77812101825965     -0.87203376739080     -0.23449177998704
  O   1.88314009226377      0.88730145850224     -1.18856297480115
