13
Coordinates from ORCA-job run
  C   -0.82557548693980     -0.45774292643324      0.23004645310944
  C   0.65847847369343     -0.14806667832436      0.05500421495118
  Cl  -1.11556520993898     -2.17008467820415      0.49759740412867
  H   0.99891564616777     -0.73521357227019     -0.80221848716411
  H   -1.28042642680446      0.11519699608944      1.03663260528382
  N   -1.52105653917580     -0.01827191573143     -1.03327206928980
  O   -2.47094009916978      0.74204813348335     -0.89112932194338
  O   -1.07494256090610     -0.45501621963418     -2.08553856594936
  C   1.40519625653598     -0.57338943515694      1.25070713565493
  N   2.02042288302438     -0.83468215770707      2.21673227872698
  N   0.78149305133199      1.26263333217012     -0.26150700685291
  H   0.79829192620984      1.82963172085876      0.57697898346276
  H   1.62470808597151      1.44295740085990     -0.78903362411821
