13
Coordinates from ORCA-job run
  C   -0.88728449670102     -0.29037140195495      0.27054052429510
  C   0.63214484660360     -0.24669237650905      0.13748084955252
  Cl  -1.48118143911998     -1.90367133818710      0.64892522631724
  H   0.92208591029987     -1.01349956725620     -0.58885870534169
  H   -1.24482943293154      0.41876719520695      1.01418029807937
  N   -1.48418062077991      0.14675148064826     -1.04302787763328
  O   -0.89252108747656     -0.19331954856320     -2.06328515913483
  O   -2.52824705612984      0.78252976906115     -0.97925588032230
  C   1.23715689760571     -0.58131681686049      1.42825781464148
  N   1.74391372480341     -0.81350407936849      2.46125357187634
  N   0.98892464910618      1.10435381408527     -0.28314957214669
  H   1.75379517128820      1.48043949769224      0.25902997165816
  H   1.24022293343187      1.10853337200561     -1.26209106184143
