14
Coordinates from ORCA-job run
  C   0.75168547426094     -0.18691782290923      0.61816430630592
  C   -0.36327625942689      0.47588649229564     -0.18310347375781
  Br  0.03592984314084     -1.46406557742067      1.91185780252723
  H   0.16680024013643      1.19491535113208     -0.83580294633438
  H   1.22261256095215      0.58269610458105      1.23673920023734
  N   1.63950930936358     -0.90741699046702     -0.27611912539831
  H   2.32661569825481     -1.42865702079705      0.25468562071169
  H   2.13582275905817     -0.23198001378177     -0.85003993474903
  N   -1.18845033628683      1.27410205318606      0.69890377634687
  H   -1.81894293738940      0.64229992773247      1.18206684793052
  H   -1.75851906601356      1.90779194376247      0.15162431076497
  N   -1.10047100372047     -0.53294488572958     -0.92250258911272
  H   -1.59983053445218     -0.10809529552422     -1.69402209322823
  H   -0.44948574787758     -1.21761426606023     -1.29245170224407
