14
Coordinates from ORCA-job run
  C   0.88759908075330      0.01757866143670      0.55707192907007
  C   -0.63001500382755     -0.01286793496396      0.25514755040005
  Br  1.18781909236188     -0.82376738148967      2.38755184355389
  H   -1.13759746653082     -0.60893490778004      1.01331410230074
  H   1.20566313482329      1.03988150723723      0.74893150370971
  N   1.66194842712716     -0.55276679476466     -0.46912620610878
  H   1.34865055858754     -1.48753857676227     -0.69576948015889
  H   2.65038771034887     -0.54130747143976     -0.25908150095861
  N   -0.85456150470079     -0.70362502798727     -1.01034993504161
  H   -0.42091250249362     -0.19510730577157     -1.77207320307907
  H   -1.84905659390991     -0.77483892924020     -1.18797345022851
  N   -1.12047446128390      1.35248253465280      0.40476530712567
  H   -2.13360008153936      1.36461272690601      0.39281116497240
  H   -0.79485038971611      1.92519889996665     -0.36721962555705
