14
Coordinates from ORCA-job run
  C   0.69352227286343     -0.34989849476496      0.60141309867152
  C   -0.43951552674870     -0.03780420014146     -0.38237695498034
  Br  0.91716460684262     -2.40872175579671      0.53897248082369
  H   -0.25755928611377     -0.61722667193102     -1.29845639421509
  H   0.35593474376889     -0.22606652818106      1.62964723303075
  N   1.86341659291982      0.36014112062089      0.35452016170061
  H   2.64462017422861      0.07632980919709      0.92689409281723
  H   2.10795676260232      0.41664239283297     -0.62310951417207
  N   -0.38143408139562      1.35680993576497     -0.76868940466165
  H   -0.58976735182721      1.93366500310193      0.03912682311795
  H   -1.08905686206228      1.54002649094558     -1.47107618200545
  N   -1.69622246549018     -0.38952648774917      0.27959198190596
  H   -2.45767824351683     -0.28712912933255     -0.38234316172777
  H   -1.67338133607111     -1.36624148456650      0.55588573969467
