14
Coordinates from ORCA-job run
  C   0.77277376331884     -0.07585681031803      0.71959774693422
  C   -0.65435606849542      0.01391131230794      0.15227663851179
  Br  0.80744987286524     -1.66151366859805      2.00695208502442
  H   -1.34507795267930     -0.38797765153774      0.90123669884402
  H   0.99177962098681      0.75503065524112      1.39019017230273
  N   1.72611920815356     -0.16246898142787     -0.30045050962858
  H   2.67441157832078     -0.17489798330866      0.04701317490613
  H   1.54508452280598     -0.97502264411945     -0.87729760553188
  N   -0.74659173969055     -0.81647062803557     -1.03020134449422
  H   -0.51838991836715     -0.24590096493530     -1.83625930660568
  H   -1.67418973540975     -1.19888067521596     -1.14419244558201
  N   -0.91217133981888      1.41549824855065     -0.18164632545019
  H   -1.87792528903100      1.50736732375985     -0.47800756374345
  H   -0.78891652295915      2.00718246763710      0.63278858451271
