13
Coordinates from ORCA-job run
  C   0.72195632803013     -0.67748418323376      0.47850584188416
  C   -0.31257424879100     -0.01013770602445     -0.03873984553591
  H   0.61997158351365     -1.65359740922821      0.93396090662010
  N   2.09879901925265     -0.20841120902151      0.43811547603298
  O   2.31000912435440      0.97679494487568      0.19640779416563
  O   2.95047922366262     -1.06842822772212      0.66177753450636
  C   -1.72854918846160     -0.47055206774609     -0.01957829265936
  H   -2.10894565148886     -0.53687197626638     -1.04254535307277
  H   -2.34079037523147      0.25280991147051      0.52424377737792
  H   -1.81725733388587     -1.44670792511935      0.45706509579260
  N   -0.14516516012625      1.29506065033051     -0.69526477037395
  O   0.24411921071377      1.28027816101985     -1.85692387499384
  O   -0.49405253154216      2.26824703666533     -0.03702428974390
