13
Coordinates from ORCA-job run
  C   0.75810896566158     -0.45569913987958      0.65303969294129
  C   -0.31367432300469      0.01967676546142      0.01400838052269
  H   0.69398836964776     -0.96054310917123      1.60786640720666
  N   2.12554735114766     -0.30991060213878      0.17711223928429
  O   2.30925937747483      0.02144770119361     -0.99091381195485
  O   2.99812617779402     -0.54565325819704      1.01249122768005
  C   -1.72115955212137     -0.11311030223480      0.48174808616701
  H   -1.76943480205748     -0.63096134297875      1.43957082520188
  H   -2.16992614629552      0.87816966321040      0.58894745591734
  H   -2.30093815555335     -0.67004615870563     -0.25831276018321
  N   -0.20227530820177      0.74026835153647     -1.26286159022400
  O   -0.49918644985752      0.09737022384706     -2.26308046540886
  O   0.09156449536587      1.92799120805685     -1.19861568715029
