13
Coordinates from ORCA-job run
  C   1.07333188324213      0.23435214367983      0.22695266105607
  C   -0.18114312876020      0.25631427152370     -0.24176253868467
  H   1.81940767248890      0.96735888082258     -0.04650350095300
  N   1.58649727356411     -0.83212789407378      1.07126670301556
  O   0.82572294176694     -1.39477046650011      1.85739372358235
  O   2.78523346730218     -1.07243420290490      0.92889179102516
  C   -1.31485479469344     -0.68127851217458     -0.02955875473818
  H   -1.83836158619783     -0.84408296213049     -0.97217398573913
  H   -2.03016122085976     -0.24786853925214      0.67264487340530
  H   -0.96309481688803     -1.62608700860602      0.37546446583800
  N   -0.49788992279468      1.44608999111130     -1.07656760165446
  O   0.42785846030715      2.08670961994055     -1.56584178994773
  O   -1.69354622847746      1.70582467856406     -1.19920604620527
