13
Coordinates from ORCA-job run
  C   1.04993745508989      0.12363783672471      0.37560181647494
  C   -0.19484875900696      0.33738371798048     -0.07013706346326
  H   1.72388496259488      0.92311745583858      0.65007210035983
  N   1.58507010252276     -1.20403188615310      0.62925231902116
  O   2.40425576557057     -1.26431814164880      1.54599647551568
  O   1.21451793769349     -2.14516152372018     -0.07096328164143
  C   -1.27403978642800     -0.61654827461895     -0.43691092037798
  H   -1.36635785838835     -0.67536954731874     -1.52339596067557
  H   -1.05663437957570     -1.60999079703050     -0.05450334369448
  H   -2.22758594589434     -0.26011882409259     -0.04575216358545
  N   -0.53039707392666      1.77223257799654     -0.27202170622773
  O   -1.47804851419192      1.99542453768856     -1.02331034389655
  O   0.14924609394033      2.62274286835399      0.29507207219083
