13
Coordinates from ORCA-job run
  C   0.73528380691054     -0.56401180843664      0.59148046521084
  C   -0.31405094537394     -0.00533795420577     -0.01676753796831
  H   0.63717640342820     -1.37992744264072      1.29527548407362
  N   2.11901249384801     -0.18564858296590      0.34759111110463
  O   2.34549312653515      0.87200146498490     -0.23383550035471
  O   2.96031066042112     -0.98140398298997      0.76466798556008
  C   -1.73757281503986     -0.37773000885266      0.21212566817579
  H   -2.19557421154576     -0.68371505459187     -0.73239091885326
  H   -2.28555003358629      0.48865616971827      0.59040800690007
  H   -1.81933514157170     -1.19524340176215      0.92830016272440
  N   -0.15800608988318      1.07450142333901     -1.00249445584091
  O   0.12596466039030      0.73647867350080     -2.14551285490113
  O   -0.41215191453257      2.20338050490270     -0.59884761583113
