13
Coordinates from ORCA-job run
  C   0.75180556370646     -0.55163526539445      0.58261072894122
  C   -0.31399899584437     -0.01310703799157     -0.01498943081550
  H   0.67709586748054     -1.37296684110546      1.28297690652177
  N   2.12505858725449     -0.14075112359633      0.33201723207472
  O   2.32405165539953      0.92333475103116     -0.24760031860561
  O   2.98664791767835     -0.91823480604869      0.74205232132571
  C   -1.72752248316906     -0.41729319104298      0.22180805863113
  H   -2.29089985003448      0.43531904173211      0.60867616519703
  H   -2.18556737093918     -0.72792177702289     -0.72115626402325
  H   -1.78679312111462     -1.24002824771972      0.93420876318898
  N   -0.18891233245050      1.07586186196222     -0.99533470690115
  O   0.09259179039487      0.75083555465781     -2.14266882638763
  O   -0.46355722836203      2.19658708053879     -0.58260062914741
