13
Coordinates from ORCA-job run
  C   1.11721882763552      0.10046094463142     -0.02626440420679
  C   -0.19896597034642      0.27987266746791     -0.19759643241191
  H   1.86261362380890      0.77659176426414     -0.42104603716845
  N   1.67265583140294     -0.96732759215205      0.78922889022606
  O   2.73409722901660     -0.69172455698838      1.34824569612190
  O   1.08071125030830     -2.04372606322733      0.85445161438883
  C   -1.36075800164335     -0.49676799874529      0.30915414015516
  H   -1.06059941045962     -1.15335121213887      1.12105420993392
  H   -2.14163810258369      0.18702393497406      0.64334233797140
  H   -1.77901207949266     -1.10734494622850     -0.49379980039195
  N   -0.54680845086698      1.42516522292878     -1.08159147501974
  O   0.29444983141297      2.29798761353440     -1.27415567777359
  O   -1.67396457819251      1.39414022167970     -1.57202306182484
