13
Coordinates from ORCA-job run
  C   1.06206150876680      0.17770788454950      0.31486147397383
  C   -0.20475326184035      0.32590816501949     -0.09399324818084
  H   1.73163351349705      1.01060985273489      0.47805351088775
  N   1.63427204515940     -1.10934667861407      0.67503640034611
  O   1.25095655181181     -2.12200888858340      0.09118404085681
  O   2.49519578764877     -1.06421235460448      1.55361302560084
  C   -1.27868644803324     -0.67735900410493     -0.31658385796836
  H   -1.40902643311684     -0.85181947895609     -1.38671035494135
  H   -2.22379117833518     -0.29601999255148      0.07124967456411
  H   -1.02851388525498     -1.62165076552842      0.15894327377779
  N   -0.57735280783581      1.72802888675411     -0.42301297664637
  O   0.10883052268845      2.64156065109061      0.02573341409006
  O   -1.56082591515590      1.85960172279428     -1.14937437636038
