13
Coordinates from ORCA-job run
  C   0.74835671895662     -0.51692778137964      0.61796886987741
  C   -0.31470004531402      0.00113703811082     -0.00225025000401
  H   0.66455740697167     -1.25290624560996      1.40662374959343
  N   2.12744777806703     -0.20228068358697      0.27634621940399
  O   2.96865122231145     -0.97800004043845      0.72975833722051
  O   2.35077377067502      0.78807641918060     -0.41445756131811
  C   -1.73438133743651     -0.30826956657033      0.32391313437904
  H   -2.24719428549123      0.60752908444163      0.62780120010936
  H   -2.23931930694676     -0.70243194834427     -0.56220290373628
  H   -1.80196823159131     -1.04132213702071      1.12763000297905
  N   -0.17884398891623      0.96595168851431     -1.10324771584939
  O   -0.39504358216715      2.13696769301815     -0.81341833441840
  O   0.05366388088141      0.50247647968481     -2.21346474823660
