13
Coordinates from ORCA-job run
  C   0.71328832320742     -0.48691726196588      0.68114123015388
  C   -0.31450787691129     -0.00154341894967     -0.01982266998917
  H   0.58791844420606     -1.19050992551150      1.49346139331682
  N   2.10791738661799     -0.17254531802577      0.40836800332398
  O   2.92597907983754     -0.93989581029817      0.91482639480314
  O   2.36436493263302      0.81130900490003     -0.28023792267762
  C   -1.74926797743740     -0.30865255325864      0.23392182508504
  H   -2.19978945752371     -0.73715177748275     -0.66553296596181
  H   -2.28373234911994      0.61340921152685      0.47463740968149
  H   -1.86005893755944     -1.01389627046088      1.05749387132255
  N   -0.11767353935858      0.91812970821006     -1.15003464090562
  O   0.21139644761114      0.41449606016614     -2.21755819325961
  O   -0.38583447620280      2.09376835115017     -0.93066373489307
