13
Coordinates from ORCA-job run
  C   0.70608647803837     -0.66489355290511      0.51847435458778
  C   -0.29222111754909     -0.03846160396191     -0.10930079877497
  H   0.62171037187409     -1.68010478176758      0.88301921539892
  N   1.98799922965047     -0.05157773236165      0.83095924129220
  O   2.29293723817794      0.99419288932135      0.26406567971656
  O   2.67211836386114     -0.65926152511918      1.65418006565336
  C   -1.61382493591152     -0.64178945985466     -0.43642702807075
  H   -1.67976224347831     -1.66610666303885     -0.06993389634569
  H   -2.41240811791911     -0.04840495784740      0.01719444846902
  H   -1.76010309494683     -0.63621664851864     -1.51925011610104
  N   -0.17518857402482      1.35644704162462     -0.55905884083537
  O   -0.36750994028805      2.22352086741782      0.28498875156634
  O   0.02016634251573      1.51265612701119     -1.75891107655635
