13
Coordinates from ORCA-job run
  C   1.03103949557917      0.25136709381799      0.36192976974344
  C   -0.18652913388027      0.28955668192298     -0.19441482181514
  H   1.70676603085675      1.09524169980264      0.36372293773073
  N   1.53196887376691     -0.89490936129603      1.10236428785362
  O   2.32109956784492     -0.62129337307398      2.00658484697869
  O   1.16462703311980     -2.02454110191157      0.78249739385420
  C   -1.26405817117357     -0.73278723438912     -0.25185516053614
  H   -1.09362451097573     -1.51398469668095      0.48370522871240
  H   -2.23072865514275     -0.25714782007900     -0.08282944052039
  H   -1.29119543550970     -1.18947627654642     -1.24342788744621
  N   -0.48329962282253      1.55467524830732     -0.91789899637505
  O   -1.37098913512479      1.48517570251708     -1.76584100090297
  O   0.16792366346181      2.55812343760907     -0.64253715727719
