13
Coordinates from ORCA-job run
  C   1.09996936002931      0.13933062101915      0.17272964436291
  C   -0.17808318275066      0.29420118664265     -0.19666146556629
  H   1.86413814641380      0.88049906668361     -0.01534929165234
  N   1.56879942625817     -0.99609068366774      0.95035092229011
  O   1.03037212040662     -2.09175842387716      0.79856761726374
  O   2.50854628954659     -0.75166546261919      1.70682412752477
  C   -1.36517731983879     -0.57373473579914      0.02012613979880
  H   -1.16908505294909     -1.30844502395628      0.79613043408580
  H   -2.22529180880448      0.04050789372624      0.28832321128714
  H   -1.61342906382635     -1.10216880011870     -0.90275748265349
  N   -0.43504197392094      1.52124971236269     -0.99766341812391
  O   0.38119375628707      2.43693880919952     -0.95208700358222
  O   -1.46491069685125      1.51113584040433     -1.66953343503504
