13
Coordinates from ORCA-job run
  C   1.06679116827410      0.20932322574895      0.27726884851391
  C   -0.19368712794745      0.30292566807357     -0.16563812107494
  H   1.78078492206875      1.01765323773724      0.20318482866931
  N   1.63068269149001     -1.01827696839478      0.81492043254169
  O   0.90361699828903     -1.79237339603547      1.43576703209386
  O   2.83447604941478     -1.16825240325563      0.60654552308862
  C   -1.28878537614440     -0.70148135775379     -0.20186481179005
  H   -0.89935393410056     -1.70314347597292     -0.04275072744809
  H   -2.01832967050018     -0.48398776837711      0.58102585127051
  H   -1.80793103726619     -0.64433247033812     -1.15919131004766
  N   -0.56566033005458      1.65501281779084     -0.66277649647453
  O   0.32936678838468      2.43978544201305     -0.96253021937247
  O   -1.77197114190799      1.88614744876416     -0.72196082997017
