18

C	0.0	0.0	0.0
C	-0.400661	0.292192	-1.45202
F	1.401635	0.0	0.0
H	0.079149	-0.504749	-2.042453
C	-0.542459	0.973308	1.015745
H	-0.333292	1.986296	0.672794
H	-1.622334	0.837005	1.120092
H	-0.062827	0.798213	1.982652
C	-0.366826	-1.389592	0.349871
N	-0.577186	-2.508994	0.63502
N	0.128202	1.614372	-1.791209
H	1.123312	1.554158	-1.953763
H	-0.313746	1.932983	-2.641426
C	-1.89729	0.246874	-1.671011
H	-2.110812	0.360515	-2.736046
H	-2.352266	-0.684816	-1.339655
H	-2.416714	1.035901	-1.134658
Cl	-4.827401	0.0	0.0
