18

C	0.0	0.0	0.0
C	-0.409581	0.306994	-1.4461
F	1.401707	0.0	0.0
H	0.048917	-0.496379	-2.046128
C	-0.529615	0.970194	1.02838
H	-1.608813	0.843664	1.136552
H	-0.04658	0.779878	1.989261
H	-0.311711	1.983079	0.691696
C	-0.368482	-1.391343	0.338561
N	-0.591044	-2.511088	0.6114
N	0.138808	1.621267	-1.78212
H	-0.314472	1.961414	-2.620453
H	1.131037	1.543647	-1.964636
C	-1.911315	0.287942	-1.645896
H	-2.137981	0.398766	-2.711162
H	-2.408641	1.091731	-1.10524
H	-2.38014	-0.632755	-1.299353
Cl	-4.872281	0.0	0.0
