18

C	0.0	0.0	0.0
C	-0.352059	-0.223852	-1.50586
F	1.395622	0.0	0.0
H	0.302524	0.511134	-1.996566
C	-0.554459	1.286606	0.556436
H	-0.162724	1.465638	1.560296
H	-0.266402	2.116956	-0.094184
H	-1.645055	1.210557	0.5988
C	-0.389275	-1.152858	0.833828
N	-0.617951	-2.099914	1.48959
N	-1.701273	0.032134	-1.93968
H	-2.398148	-0.484466	-1.403452
H	-1.956071	1.001401	-1.795877
C	0.071855	-1.619892	-1.946376
H	-0.620698	-2.364557	-1.547059
H	0.032238	-1.672918	-3.035857
H	1.081333	-1.862947	-1.608342
Cl	-4.267432	0.0	0.0
