18

C	0.0	0.0	0.0
C	-0.493209	-0.127325	-1.448716
F	1.399356	0.0	0.0
H	-1.58513	-0.182663	-1.381407
C	-0.491663	1.226425	0.734731
H	-0.098329	2.120582	0.248514
H	-0.139947	1.205823	1.76852
H	-1.585134	1.227691	0.712478
C	-0.355222	-1.229241	0.745653
N	-0.549292	-2.206777	1.36619
N	-0.002818	-1.345674	-2.095203
H	-0.494563	-2.145169	-1.711091
H	0.981798	-1.461928	-1.877831
C	-0.092068	1.084864	-2.280773
H	-0.364248	0.885405	-3.317631
H	-0.610039	1.98772	-1.9544
H	0.988049	1.256062	-2.232791
Cl	-3.758445	0.0	0.0
