18

C	0.0	0.0	0.0
C	-0.365422	0.033601	-1.522493
F	1.395756	0.0	0.0
H	0.405929	0.715207	-1.908196
C	-0.515634	1.197527	0.763212
H	-1.604723	1.13663	0.840191
H	-0.233466	2.11223	0.23519
H	-0.076901	1.21553	1.763918
C	-0.398421	-1.252367	0.66526
N	-0.611796	-2.270619	1.209612
N	-1.649911	0.556643	-1.911952
H	-1.778093	1.492997	-1.548211
H	-2.419802	0.02133	-1.503775
C	-0.163116	-1.339593	-2.148244
H	-0.982422	-2.002778	-1.857927
H	0.778125	-1.793541	-1.830878
H	-0.170526	-1.245681	-3.234601
Cl	-4.167611	0.0	0.0
