18

C	0.0	0.0	0.0
C	-0.489964	-0.056126	-1.455195
F	1.39978	0.0	0.0
H	-1.581037	-0.126482	-1.389231
C	-0.49352	1.187445	0.794734
H	-0.147492	1.111929	1.828216
H	-0.09764	2.10628	0.359268
H	-1.586806	1.188364	0.766839
C	-0.360675	-1.265304	0.679019
N	-0.538808	-2.287363	1.228659
N	0.013726	-1.234679	-2.162328
H	0.99627	-1.358222	-1.941386
H	-0.477607	-2.056052	-1.827731
C	-0.10254	1.200415	-2.224105
H	-0.616144	2.083265	-1.840398
H	-0.389871	1.058827	-3.266482
H	0.978113	1.369356	-2.18258
Cl	-3.752974	0.0	0.0
