18

C	0.0	0.0	0.0
C	-0.369088	-0.25177	-1.497881
F	1.397984	0.0	0.0
H	0.365768	0.383618	-2.012292
C	-0.526711	1.31292	0.524117
H	-1.617112	1.258147	0.581105
H	-0.231737	2.116797	-0.155508
H	-0.1166	1.51391	1.516434
C	-0.397487	-1.114282	0.878585
N	-0.619472	-2.026043	1.584832
N	-1.679199	0.1386	-1.952478
H	-1.798543	1.141834	-1.88857
H	-2.435548	-0.250742	-1.385366
C	-0.107018	-1.704413	-1.874578
H	-0.15018	-1.800134	-2.960917
H	0.8669	-2.046806	-1.516234
H	-0.883623	-2.342723	-1.447014
Cl	-4.223545	0.0	0.0
