18

C	0.0	0.0	0.0
C	-0.675524	-0.217586	-1.338355
Br	1.959178	0.0	0.0
H	-1.808866	-0.108478	-1.017938
C	-0.387564	1.363685	0.574683
H	0.056661	2.196717	0.034391
H	-1.480906	1.421282	0.543619
H	-0.050638	1.393955	1.614673
N	-0.505114	-1.097549	0.792084
H	-0.212454	-0.956781	1.754018
H	-1.535881	-0.95928	0.758897
N	-0.495108	-1.579011	-1.914158
O	-1.465783	-2.004327	-2.542712
O	0.569606	-2.168262	-1.767073
N	-0.341051	0.743593	-2.401104
O	0.223597	0.329827	-3.417516
O	-0.684212	1.911922	-2.214182
H	-2.937529	0.0	0.0
