18

C	0.0	0.0	0.0
C	-0.692978	8.2e-05	-1.343743
Br	1.953354	0.0	0.0
H	-1.837982	0.054838	-0.972385
C	-0.381099	1.25227	0.793216
H	-1.473761	1.320936	0.781601
H	-0.036478	1.111566	1.821738
H	0.062796	2.161529	0.394255
N	-0.495211	-1.210881	0.618644
H	-0.210785	-1.204589	1.593874
H	-1.524054	-1.080982	0.603913
N	-0.533115	-1.250482	-2.132488
O	-1.504844	-1.542923	-2.832162
O	0.51493	-1.884686	-2.070313
N	-0.372709	1.116039	-2.243561
O	0.156842	0.867827	-3.332044
O	-0.691252	2.243643	-1.859977
H	-2.913764	0.0	0.0
