12

C -0.196079 -0.341922 0.01685
H -1.001733 1.507456 0.65754
Br 2.22191 -0.91456 -0.132687
Br -2.677996 -0.375954 -0.110355
C -0.007003 1.079271 0.519922
H -0.281895 -1.126018 0.746588
H -0.222507 -0.563441 -1.032374
C 0.657221 1.927858 -0.500044
N 1.132343 2.705911 -1.243424
N 0.645184 1.093462 1.823744
H 0.723052 2.052248 2.1431
H 1.578564 0.710886 1.709002
