10

C -0.921316 -0.390614 -0.132971
H 0.232116 -0.199873 1.64751
F -2.053463 0.987613 -0.260636
F 0.111437 -1.84718 -0.065399
C 0.068813 0.365907 0.72822
H -0.825146 -0.385938 -1.202302
H -1.706405 -0.951639 0.337747
H -0.319558 1.356706 0.962734
C 1.374897 0.510592 0.079992
N 2.423266 0.714504 -0.408974
