15

C 0.151552 -0.788626 -0.168979
H 1.637106 0.477124 -0.725781
Cl -1.955027 -0.536934 0.191779
F 2.077142 -1.480488 -0.302575
C 0.693625 0.623641 -0.196972
H 0.024021 -1.302473 -1.10611
H 0.281515 -1.391346 0.706769
C 1.023886 1.082439 1.217909
H 0.121108 1.107751 1.837272
H 1.73989 0.375251 1.641772
H 1.472879 2.082859 1.218932
C -0.148033 1.645888 -0.958468
H -0.483826 1.244636 -1.919402
H -1.036246 1.939528 -0.397755
H 0.458554 2.538881 -1.153697
