12

C 0.650048 -0.532904 -0.144796
H 1.600912 1.197571 -0.862051
Br -1.853184 -0.770832 0.092951
Cl 2.88241 -0.995916 -0.289574
C 0.862402 0.972237 -0.079724
H 0.491015 -1.014723 -1.090847
H 0.611322 -1.088975 0.771481
N 1.340782 1.327916 1.260208
H 1.539225 2.322616 1.27953
H 2.221653 0.836162 1.376867
C -0.296157 1.822843 -0.401579
N -1.040986 2.68408 -0.695766
