15

C 0.156077 0.133878 -0.302465
H -1.002259 0.622391 1.379434
Cl 0.78015 -2.034827 -0.922773
Cl -0.279113 2.364387 -0.303549
C -0.984822 -0.192213 0.652914
H 0.091022 0.222734 -1.367705
N 1.49103 0.362905 0.287754
O 1.579313 0.264749 1.512566
O 2.403032 0.647898 -0.475963
C -0.954641 -1.505021 1.451578
H -1.151982 -2.364719 0.818519
H 0.020222 -1.625803 1.918732
H -1.723048 -1.434097 2.228666
C -2.238994 -0.109831 -0.103441
N -3.273326 -0.117918 -0.661254
