12

C -0.413911 0.018948 -0.651225
H 0.307675 -1.952733 -0.717998
Cl 0.676267 1.817979 -0.371532
F -1.616317 -1.421136 -1.070134
C 0.732014 -0.955397 -0.811024
H -0.959392 0.43617 -1.471849
H 1.108455 -0.831567 -1.830253
N -1.129436 0.03132 0.639152
O -0.656692 -0.65192 1.544507
O -2.135184 0.725917 0.71395
C 1.863234 -0.826667 0.111048
N 2.820945 -0.857115 0.790403
