15

C 0.630074 -0.046859 -0.452778
H 1.356456 1.754234 0.280857
Br -1.458463 -0.938693 -0.323166
F 2.470303 0.476037 -0.883183
C 0.394971 1.409827 -0.101143
H 0.741463 -0.398185 -1.458819
N 1.275736 -0.897392 0.566287
O 1.389043 -0.422031 1.694771
O 1.640934 -2.013402 0.218425
C -0.606904 1.687116 0.935628
N -1.351969 2.080859 1.755818
C 0.077411 2.174664 -1.388298
H 0.922739 2.026769 -2.060409
H -0.841946 1.797012 -1.842037
H -0.044738 3.240794 -1.180916
