14

C -0.604808 0.435695 0.359123
H 0.492851 0.847218 -1.407479
F 0.07547 -0.662202 1.59858
F -1.34212 1.638614 -0.692813
C 0.716275 0.488843 -0.400711
H -0.798305 1.105739 1.177164
C -1.60131 -0.555266 -0.001561
N -2.410049 -1.350275 -0.309924
C 1.367588 -0.82118 -0.536565
N 1.9716 -1.800476 -0.776591
C 1.651749 1.478803 0.295149
H 1.162974 2.455572 0.311673
H 1.829488 1.132581 1.313562
H 2.605026 1.565068 -0.233829
