12

C 0.674899 -0.335843 -0.292918
H 1.560606 1.092853 1.027233
Br -1.78371 -0.48513 -0.668034
Cl 2.948057 -0.184294 -0.544257
C 0.570015 0.912127 0.595454
H 0.641364 -0.258521 -1.361896
C 0.718899 -1.614176 0.353435
N 0.782946 -2.64395 0.923801
C -0.35341 0.781883 1.733005
N -0.960087 0.747757 2.739471
C 0.238635 2.093412 -0.209252
N 0.036671 3.075305 -0.821861
