15

C -0.782625 0.784817 0.236408
H 0.167904 0.416163 -1.631696
F -0.51156 0.314497 1.553132
H -1.583728 1.6233 -1.798869
C 0.48075 0.519842 -0.593896
H -0.948678 1.856183 0.310252
C -2.004846 0.160895 -0.297787
N -2.939138 -0.570479 -0.246648
N 1.036728 -0.813082 -0.172801
O 2.091488 -0.846478 0.465009
O 0.388621 -1.805587 -0.502114
C 1.506706 1.617118 -0.422167
H 1.087751 2.515807 -0.87998
H 1.709213 1.797624 0.63521
H 2.447662 1.365869 -0.915474
