16

C -0.294462 0.303876 0.440004
H 0.751064 0.894315 -1.27874
F -0.035223 -1.243855 1.304034
F -0.679489 1.970427 -0.144172
C 0.915319 0.169248 -0.479882
H -0.220059 0.759429 1.408732
C -1.589603 -0.149877 -0.032415
N -2.620263 -0.537225 -0.444754
C 1.075215 -1.217737 -1.098938
H 1.318468 -1.951002 -0.333218
H 0.148501 -1.537988 -1.584189
H 1.866233 -1.189781 -1.858927
C 2.153233 0.588436 0.306499
H 2.028113 1.621902 0.640405
H 2.264249 -0.063811 1.17609
H 3.059463 0.524678 -0.307241
