13

C 0.188459 -0.233627 -0.109393
H 0.940711 1.745941 0.101869
Br -2.226513 -0.784841 -0.467843
Br 2.687659 -0.166368 -0.245963
C -0.022644 1.280863 -0.117013
H 0.308194 -0.750959 -1.042938
C 0.227688 -0.9398 1.137378
N 0.247638 -1.484706 2.183452
C -0.933766 1.724987 0.966561
N -1.589969 2.234193 1.800088
N -0.421786 1.710649 -1.446931
H -0.440839 2.723343 -1.476325
H -1.35778 1.358505 -1.620863
