15

C -0.599874 0.130886 -0.346402
H -0.115907 -1.54447 0.867544
Cl 0.948763 1.830715 -0.847244
Cl -2.267298 -1.465955 -0.322121
C 0.314325 -0.565221 0.653091
H -0.519804 -0.085294 -1.39517
C -1.512329 1.130651 0.131868
N -2.25654 1.927995 0.577786
C 0.54433 0.185321 1.946568
H 1.015361 1.147998 1.756928
H -0.422265 0.343193 2.431062
H 1.177317 -0.405149 2.608777
N 1.609248 -0.931665 -0.036938
O 2.654217 -0.826984 0.600423
O 1.512373 -1.413183 -1.161251
