12

C -0.799566 0.053932 0.582934
H -0.009897 1.317183 -0.868386
F -0.474907 -0.538144 1.813852
F -1.71103 2.171454 -0.540004
C 0.374611 0.812038 0.026484
H -1.550481 0.860259 0.658917
H 0.670242 1.58992 0.726729
C -1.343894 -0.989195 -0.297291
N -1.862198 -1.814388 -0.952651
N 1.590724 -0.008379 -0.231511
O 2.677677 0.569128 -0.146302
O 1.456946 -1.190181 -0.549387
