13

C -0.897381 0.540232 0.507318
H -0.014546 0.422843 -1.481391
F -0.887338 -0.793186 1.310561
H -0.874278 2.137155 -0.46567
C 0.295986 0.420299 -0.440595
H -0.782264 1.242441 1.320376
C -2.203044 0.520158 -0.123156
N -3.289265 0.341291 -0.548553
N 0.956579 -0.99909 -0.279776
O 1.835876 -1.152325 0.56023
O 0.522749 -1.864559 -1.036584
C 1.343316 1.404999 -0.193739
N 2.269095 2.108823 -0.008315
