12

C -0.001622 -0.001037 0.246009
H 0.882682 1.329119 1.65979
Br -2.527652 0.000709 -0.28838
Br 2.528566 0.000893 -0.287972
C -0.00179 1.286936 1.022233
H 0.001189 0.001113 -0.82489
H -0.896374 1.334952 1.644969
H 0.006586 2.143909 0.349739
C -0.000538 -1.292327 1.016608
H 0.884091 -1.336547 1.653795
H -0.894938 -1.343585 1.639343
H 0.008461 -2.146437 0.340471
