16

C -0.062781 0.686431 0.438001
H 0.902445 -0.941522 1.40143
Cl -1.964126 -0.322992 0.158408
H 1.340055 1.897329 1.596085
C 0.954762 -0.471725 0.40727
H -0.381608 1.045081 1.394313
C -0.099507 1.624636 -0.743007
H 0.847903 2.148547 -0.83576
H -0.279179 1.056262 -1.659617
H -0.910715 2.345769 -0.624499
N 2.27768 0.058558 0.074741
H 2.947942 -0.686361 0.244289
H 2.414405 0.834805 0.7281
N 0.73549 -1.532932 -0.578069
H 0.90014 -1.114649 -1.488053
H -0.238271 -1.809833 -0.539516
