17

C -0.565972 0.139375 -0.380901
H 0.190882 -1.642373 0.417551
F 0.463522 1.574385 -0.794075
F -1.774846 -1.341786 -0.265237
C 0.596207 -0.657394 0.190236
H -0.762909 0.028657 -1.430006
C -1.496864 0.921019 0.510169
H -1.873225 0.269813 1.297375
H -0.98942 1.792104 0.925926
H -2.354823 1.255321 -0.075955
C 1.155032 -0.017733 1.46519
H 1.514309 0.984779 1.22935
H 0.398728 0.049296 2.254031
H 1.986273 -0.621585 1.851396
N 1.616694 -0.793736 -0.862999
H 2.475487 -1.129917 -0.436706
H 1.769332 0.165063 -1.166335
