16

C 0.050114 1.243091 0.564328
H 2.100679 0.980749 0.845369
Br -1.676545 -0.410194 -0.120262
H 1.023115 2.359772 2.533641
C 1.243607 0.317235 0.703959
H -0.457727 1.467599 1.48735
N 0.043911 2.172011 -0.394969
H 0.495483 1.928483 -1.262593
H -0.778356 2.749161 -0.450233
N 1.546448 -0.403015 -0.588492
O 1.745128 -1.612918 -0.566579
O 1.669132 0.29394 -1.604141
C 1.12796 -0.633658 1.871571
H 1.009617 0.002627 2.751342
H 0.27189 -1.294225 1.746369
H 2.037709 -1.228545 1.968774
