14

C -0.390017 0.423511 -0.358466
H -0.043393 -0.742545 1.406337
F 1.143053 1.410593 -1.12262
Cl -2.165336 -0.862412 0.018167
C 0.561893 -0.22226 0.662266
H -0.415744 0.082068 -1.378626
N -0.971296 1.659966 0.068176
H -1.927388 1.698499 -0.258545
H -0.406218 2.347982 -0.419679
N 1.428518 0.718248 1.366088
H 0.798103 1.33074 1.875218
H 1.814058 1.28014 0.606725
C 1.380302 -1.236499 -0.019509
N 2.027172 -2.066746 -0.540326
