13

C 0.886682 0.318763 -0.249233
H -0.236107 1.425281 1.105822
Cl 0.318821 -1.591609 -1.17434
F 1.375758 2.127205 0.210405
C -0.442734 0.557383 0.470781
H 1.011419 0.725868 -1.237378
N 1.940047 -0.169569 0.578986
H 2.544786 0.632737 0.704749
H 2.416227 -0.930982 0.117698
C -0.867385 -0.54808 1.338169
N -1.25745 -1.335771 2.117469
C -1.517094 0.934813 -0.45151
N -2.381873 1.28853 -1.163597
