15

C 0.839076 0.204244 0.257835
H 0.071979 -1.002876 -1.279675
F -0.281593 1.032831 1.417348
F 2.084138 -0.737249 -0.628641
C -0.284491 -0.64633 -0.311009
H 1.350955 -0.122501 1.148194
N 1.151066 1.420425 -0.432945
H 2.131744 1.369705 -0.668771
H 0.961358 2.169269 0.218027
C -1.51275 0.121169 -0.557361
N -2.541489 0.605184 -0.855643
C -0.565735 -1.832415 0.610223
H 0.357907 -2.407153 0.708193
H -0.867533 -1.445379 1.584155
H -1.35295 -2.480569 0.21349
