13

C -1.086602 -0.081876 0.291653
H 0.019345 1.637782 -0.333513
F -1.240525 -1.433131 -0.08086
H -1.429761 3.163814 0.240859
C 0.057138 0.551105 -0.479526
H -0.833347 -0.13332 1.362572
H -0.041788 0.28835 -1.534018
N -2.257902 0.643241 -0.041701
H -2.044103 1.678666 0.03186
H -2.985162 0.436573 0.634432
N 1.395598 0.064067 -0.036903
O 2.261769 0.909835 0.198585
O 1.574787 -1.152362 0.051791
