14

C 0.97102 0.230393 0.536392
H -0.492173 -0.960985 1.522563
F 0.330237 1.683958 -0.023512
H 1.719388 -1.220668 1.313162
C -0.300072 -0.641809 0.494846
H 1.250839 0.67441 1.480009
N 1.886604 0.112208 -0.583245
H 2.714405 -0.367654 -0.267113
H 2.095807 1.056956 -0.878379
N -0.185708 -1.85162 -0.327885
H 0.611264 -2.317197 0.110501
H 0.180941 -1.52467 -1.219675
C -1.515311 0.075238 0.036964
N -2.5561 0.528163 -0.26868
