13

C -0.178591 0.256918 -0.366325
H -1.12588 -0.931895 1.105169
F 0.215804 1.700834 0.277337
H -0.385487 -1.381674 -1.142051
C -1.395892 -0.090151 0.46131
H -0.26437 0.584778 -1.387247
H -1.624646 0.775586 1.087459
N 1.12067 -0.360217 -0.059654
O 1.271527 -0.889604 1.046784
O 2.035376 -0.18661 -0.868135
N -2.552821 -0.344198 -0.41136
H -3.301206 -0.721907 0.161802
H -2.223907 -1.092384 -1.023161
