13

C -0.091717 0.093881 -0.380976
H -0.719648 1.837652 0.622328
Cl 2.13189 -0.502746 -0.817894
Cl -2.380921 0.38655 -0.659482
C 0.148426 1.527733 0.044383
H -0.173918 -0.267232 -1.383677
H 0.132325 2.089062 -0.90241
N -0.290679 -0.946853 0.650255
O -0.360932 -0.574127 1.819148
O -0.39545 -2.104999 0.256511
N 1.321175 1.765969 0.880973
H 1.334882 2.75208 1.112677
H 2.157215 1.533287 0.362162
