14

C 0.638158 0.001126 -0.498827
H -0.321834 0.025067 1.377636
F 0.960133 1.707683 -0.561262
F 0.498267 -1.695522 -0.357334
C -0.606228 0.212338 0.342066
H 0.630787 -0.049837 -1.572059
N 1.95603 -0.118833 0.186345
O 1.980314 -0.052344 1.411792
O 2.931496 -0.283068 -0.534686
N -1.674878 -0.808433 0.007254
O -2.111969 -1.487731 0.930078
O -2.068972 -0.824428 -1.153083
C -1.276955 1.511643 0.221034
N -1.968489 2.462302 0.212592
