11

C 0.000314 -0.428053 -0.141752
H 0.88155 -1.303135 1.599062
Cl -2.303529 -0.439147 -0.440014
Cl 2.302867 -0.432663 -0.443258
C 0.008373 -1.438022 0.965071
H 0.000407 -0.60857 -1.195709
H 0.048227 -2.428917 0.510852
H -0.891667 -1.356528 1.569883
N -0.002897 1.002799 0.228993
O 0.000243 1.265154 1.431371
O -0.007634 1.821692 -0.682789
