19

C 0.058512 0.34278 0.146225
H -1.023457 -0.33838 -1.524211
F 0.082699 -0.610163 1.651249
F 0.357129 1.257059 -1.398105
C -1.221445 -0.288193 -0.455865
N 1.345316 -0.348719 -0.196999
O 1.266242 -1.377618 -0.867214
O 2.399713 0.127423 0.205088
C 0.115394 1.619542 0.94944
H -0.139441 2.471979 0.325865
H -0.55074 1.541151 1.807066
H 1.134273 1.735075 1.315758
C -2.400323 0.64928 -0.226821
H -2.635189 0.723417 0.84007
H -2.184309 1.644167 -0.618893
H -3.274769 0.236495 -0.736031
N -1.582222 -1.635691 -0.012432
H -1.402092 -1.63775 0.986695
H -0.86485 -2.246229 -0.389467
