17

C 0.210794 0.005733 -0.012649
H 1.233504 0.788796 -1.672467
Br -2.343621 0.186587 0.355397
Cl 3.773735 0.146188 0.360604
C 0.292531 0.992351 -1.140962
H -0.521969 0.79712 -1.835391
N 0.110163 -1.417013 -0.466658
O 0.039747 -1.61447 -1.681344
O 0.137459 -2.304141 0.383742
C 0.905533 0.168869 1.167756
H 2.329095 0.083635 0.672736
H 0.969237 1.174555 1.568631
H 0.872628 -0.642208 1.886164
C 0.26447 2.439535 -0.661746
H -0.623638 2.60603 -0.049128
H 1.158441 2.690457 -0.085126
H 0.227188 3.114914 -1.521558
