16

C -0.441749 0.013775 0.481394
H 0.054 2.102577 0.498829
F -2.423113 -0.318645 0.603986
Br 1.845896 0.206237 -0.091969
C -0.843936 1.486104 0.430239
H -1.41657 1.596969 1.360556
N -0.661398 -0.988387 -0.618789
O -0.905596 -0.580183 -1.744481
O -0.546789 -2.170064 -0.307453
C -0.213485 -0.558876 1.85543
H 0.345491 -1.488385 1.795453
H 0.357029 0.159003 2.448428
H -1.194159 -0.734977 2.293628
N -1.61578 1.892463 -0.740633
H -2.00112 2.807581 -0.52744
H -2.388659 1.234169 -0.757356
