13

C 0.528993 -0.000583 0.052776
H 1.998011 -0.906834 -1.171548
F 0.359676 1.771309 0.04274
F 0.350755 -1.770672 0.054832
C 1.387308 -0.007164 -1.182153
H 2.005283 0.8879 -1.179187
H 0.74803 -0.008515 -2.063567
N -0.988064 0.001186 -0.090601
O -1.473092 -0.002543 -1.215817
O -1.640234 0.007077 0.948709
N 1.095062 0.002069 1.351795
H 0.755302 -0.828878 1.81344
H 0.759305 0.838016 1.807478
