14

C 0.404094 0.483276 0.225272
H 0.215008 2.232973 -0.942569
Br -0.948989 -1.424435 0.0271
F 1.760063 1.900739 0.296362
C -0.355266 1.316333 -0.797816
H -0.414556 0.776523 -1.742213
N 1.610425 -0.267338 -0.315573
O 1.789823 -0.253381 -1.526898
O 2.309275 -0.839987 0.508858
N 0.234353 0.65288 1.609366
H 1.020492 1.224387 1.897523
H 0.226593 -0.24104 2.077641
C -1.701918 1.652427 -0.3422
N -2.780166 2.013096 -0.04713
