13

C 0.089067 -0.526063 0.060744
H -0.89126 -1.987167 -1.132305
F 2.043432 -0.71664 0.079198
Cl -2.03435 0.119387 0.011046
C 0.026558 -1.402625 -1.15705
H 0.901063 -2.047218 -1.138723
H 0.043632 -0.783294 -2.051277
N 0.52627 0.925442 -0.100188
O 0.682039 1.360853 -1.232423
O 0.672777 1.565442 0.934106
N 0.04646 -1.072799 1.357778
H -0.428889 -0.426693 1.972477
H 1.02714 -1.142179 1.610506
