18

C 0.574924 -0.311044 -0.312044
H -0.484296 -1.056278 1.361427
Cl -0.064617 1.697501 -1.032299
F 1.361783 -1.851923 0.422755
C -0.723838 -0.835347 0.326678
N 1.563901 0.372687 0.625532
O 1.18715 0.629481 1.760073
O 2.672584 0.605941 0.163229
N 1.002323 -0.730976 -1.58769
H 1.759638 -1.381975 -1.431789
H 1.300446 0.059783 -2.137223
C -1.241385 -2.054353 -0.413841
H -1.470012 -1.798171 -1.446213
H -0.46774 -2.815375 -0.380159
H -2.149171 -2.421347 0.073303
N -1.867606 0.153259 0.447002
O -2.713483 0.184764 -0.444355
O -1.920622 0.812667 1.484338
