15

C 0.598896 0.131819 -0.346172
H 0.115917 -1.543616 0.868919
Cl -0.948005 1.830691 -0.847985
Cl 2.267457 -1.466376 -0.321631
C -0.314742 -0.564795 0.653454
H 0.519538 -0.085634 -1.39463
C 1.512471 1.130507 0.131972
N 2.257291 1.927161 0.578038
N -1.609343 -0.931828 -0.036907
O -2.654458 -0.826717 0.599986
O -1.511903 -1.414291 -1.160763
C -0.545817 0.186678 1.946285
H 0.420351 0.345812 2.431094
H -1.017068 1.14871 1.754357
H -1.179039 -0.403137 2.608795
