12

C -0.299218 -0.58835 -0.109282
H -1.612287 0.231407 1.394719
Br 2.071353 0.09188 -0.221365
Cl -2.526462 -1.22158 -0.531309
C -0.688535 0.483039 0.877665
H -0.284955 -0.409392 -1.166881
H 0.102221 0.682386 1.597148
C 0.018183 -1.876785 0.435216
N 0.268073 -2.915852 0.932172
N -0.957679 1.795477 0.20993
O -1.210948 2.722458 0.979317
O -0.927528 1.875273 -1.011976
