15

C 0.824582 0.785722 0.261315
H -0.181387 0.474627 -1.628635
F 0.428552 -0.053395 1.565012
H 1.351689 1.919559 -1.182606
C -0.437672 0.586401 -0.58024
H 0.941285 1.738918 0.750392
C 2.051593 0.159772 -0.180214
N 3.027229 -0.478287 -0.370964
C -1.434382 1.699263 -0.343854
H -1.671347 1.762143 0.719102
H -0.968897 2.625173 -0.683467
H -2.362406 1.528445 -0.893541
N -1.064817 -0.756799 -0.225773
O -2.124036 -0.79066 0.399169
O -0.466902 -1.748047 -0.640574
