14

C -0.541537 -0.212774 -0.122607
H -1.701681 0.982479 1.152118
Br 1.990708 -0.181955 -0.438472
Cl -2.801456 -0.466861 -0.686283
C -0.759574 1.110974 0.606484
H -0.408483 -0.256954 -1.185289
C -0.477319 -1.412824 0.661135
N -0.469453 -2.37971 1.33506
N -0.85347 2.158357 -0.415446
H -1.098213 3.024192 0.05489
H -1.635817 1.919274 -1.019411
N 0.234302 1.365711 1.623845
H -0.046254 2.182011 2.155631
H 1.131336 1.531321 1.181113
