15

C 0.544529 0.366175 -0.297829
H 2.006663 -0.239291 1.038217
Br -1.750878 -0.149063 -0.276519
F 2.353448 1.058889 -0.813416
C 1.276161 -0.773027 0.415413
H 0.485716 0.370336 -1.369695
C 0.407438 1.614231 0.41132
N 0.284015 2.594605 1.051872
N 1.936854 -1.54723 -0.637901
H 2.530429 -2.241352 -0.193937
H 2.536277 -0.853924 -1.083693
C 0.465969 -1.692001 1.317708
H -0.115983 -1.126157 2.047253
H -0.215083 -2.299568 0.724383
H 1.161021 -2.346732 1.858927
