14

C 0.463054 -0.094415 -0.559632
H -0.402608 -1.894375 -0.00846
Cl -0.241882 1.923214 -0.22982
F 1.248519 -1.802257 -1.077254
C -0.579376 -0.852311 0.264795
H 0.337462 -0.003687 -1.622752
C 1.774148 0.119882 0.004279
N 2.811101 0.337267 0.516621
C -1.95293 -0.527842 -0.132105
N -3.084822 -0.385591 -0.416098
C -0.391163 -0.689474 1.773791
H 0.595694 -1.063247 2.053703
H -0.472261 0.358968 2.062022
H -1.149315 -1.268754 2.30728
