13

C 0.09897 -0.005931 -0.009071
H -0.367173 -1.191457 -1.747763
Cl -0.843719 2.118888 0.130615
Cl 1.169071 -2.063331 0.006347
C -0.805066 -0.372669 -1.17897
H -0.910137 0.491927 -1.83228
C -0.211118 -0.19419 1.376869
N -0.496766 -0.365665 2.50707
N 1.405182 0.637059 -0.354125
O 1.628151 0.774466 -1.551048
O 2.133323 0.961137 0.570576
C -2.129459 -0.776378 -0.715696
N -3.203479 -1.133503 -0.401993
