13

C -0.631475 -0.102873 -0.116856
H 0.533554 0.815698 -1.664654
F -1.402632 -1.552114 -1.145299
Cl 0.083367 1.586904 1.065309
C 0.540785 -0.106045 -1.088493
H 0.45109 -0.988308 -1.717087
C -0.743634 -1.025201 0.989666
N -0.863378 -1.728557 1.925518
C -1.828484 0.583811 -0.552705
N -2.766285 1.197618 -0.910884
N 1.88295 -0.184443 -0.444842
O 2.764444 0.539614 -0.905421
O 2.038761 -1.030389 0.430541
