16

C 0.151348 -0.154187 0.036403
H 0.68486 1.327827 -1.372339
Cl -2.096175 -0.689946 0.616301
Cl 2.498812 0.171066 -0.210501
C -0.231441 1.048303 -0.855103
C 0.292025 -1.458835 -0.555636
N 0.404125 -2.522977 -1.049584
C 0.378013 0.002862 1.450905
N 0.543558 0.185962 2.603618
C -0.671882 2.240186 -0.006015
H -1.570295 1.998667 0.563911
H 0.118419 2.545732 0.684958
H -0.887722 3.081346 -0.672897
N -1.151662 0.62001 -1.898869
H -1.196582 1.346501 -2.603334
H -2.074028 0.469971 -1.50837
