14

C -0.447586 0.1306 -0.094578
H 0.361074 -0.562236 -1.949145
Cl -2.840625 0.271564 0.083821
Br 2.061676 0.054107 0.025532
C -0.526407 -0.751464 -1.345109
H -1.400288 -0.443105 -1.920423
C -0.471338 -0.425894 1.235351
N -0.498097 -0.927788 2.301797
C -0.404537 1.561304 -0.253689
N -0.371033 2.723432 -0.449011
C -0.619622 -2.228366 -0.99055
H 0.265966 -2.547733 -0.436892
H -1.507008 -2.419511 -0.384563
H -0.68692 -2.824333 -1.905608
