15

C 0.286382 0.026758 -0.040742
H -0.978803 -0.879318 -1.449062
F 0.284614 -0.515728 1.68073
F 0.468296 0.747995 -1.663031
C -1.112905 -0.496504 -0.43223
C 1.430099 -0.837216 -0.27346
N 2.34247 -1.545805 -0.490004
C 0.492594 1.35741 0.513455
N 0.668557 2.443402 0.927229
N -2.010842 0.669315 -0.409876
H -2.890714 0.382999 -0.829836
H -1.594029 1.348806 -1.041686
N -1.562855 -1.593808 0.395831
H -2.555542 -1.729483 0.238144
H -1.395426 -1.327829 1.358749
