18

C 0.549751 -0.329483 0.185983
H 1.693823 0.410806 -1.403962
Br -1.857311 0.141256 0.141511
F 2.442097 -1.134638 0.152915
C 1.207847 0.87302 -0.535397
C 0.323471 -1.51365 -0.61176
N 0.104894 -2.455035 -1.286581
C 0.550756 -0.430599 1.699611
H 1.561947 -0.666841 2.017907
H 0.228352 0.514942 2.132121
H -0.133746 -1.218467 2.012989
N 2.194568 1.434858 0.392876
H 2.673151 2.191085 -0.085392
H 2.849609 0.667344 0.530548
C 0.319662 2.004989 -1.035727
H -0.425831 1.651722 -1.746005
H -0.190696 2.495833 -0.207481
H 0.965228 2.736913 -1.540166
