14

C -0.712167 -0.220294 0.241196
H 0.42587 -1.977715 0.078547
Cl 0.246391 1.796795 0.36691
F -1.703067 -1.832186 -0.018453
C 0.408065 -1.015409 -0.421813
H 0.210948 -1.125161 -1.484444
C -1.749077 0.345485 -0.613831
N -2.604456 0.808403 -1.276874
N -0.892717 -0.350343 1.654564
H -1.678247 -0.978579 1.76727
H -1.072898 0.554344 2.064231
N 1.799732 -0.479423 -0.302252
O 2.335066 -0.049761 -1.325182
O 2.346739 -0.579973 0.792885
