15

C -0.578029 0.263138 -0.017959
H 0.733194 0.631233 1.623837
F 0.066672 0.181761 -1.674661
F -1.295162 0.196276 1.637502
C 0.845334 0.489755 0.549304
C -1.12433 -1.080313 -0.207327
N -1.60578 -2.138293 -0.386457
N -1.34502 1.440044 -0.318358
H -2.168328 1.400228 0.265325
H -1.57365 1.409285 -1.302229
N 1.51461 1.660111 -0.00847
H 0.880102 2.432207 0.175512
H 1.469854 1.517734 -1.014072
C 1.690034 -0.695052 0.340815
N 2.395787 -1.627316 0.227151
