15

C 0.025647 0.218523 0.117598
H 0.577835 -0.760534 -1.712906
F 0.841953 2.041628 0.234936
Cl -1.065029 -1.727786 0.058044
C 1.047548 -0.125004 -0.960619
H 1.330573 0.820253 -1.418548
C -1.146999 0.970281 -0.308835
N -2.115948 1.547696 -0.647566
N 0.345918 0.09956 1.51307
H -0.465591 -0.234874 2.014072
H 0.581419 1.050454 1.77839
C 2.269417 -0.810486 -0.371827
H 2.755539 -0.144091 0.340986
H 1.985612 -1.725891 0.149518
H 2.979077 -1.058292 -1.169108
