15

C 0.515238 0.400906 -0.214441
H -0.648429 -0.635378 -1.704044
F 0.183369 0.321354 1.390046
H 1.137918 0.411512 -2.00382
C -0.620735 -0.551775 -0.620636
C 1.862858 -0.121337 -0.215751
N 2.951938 -0.500877 0.054167
N 0.269641 1.8179 -0.341598
H 0.813151 2.158606 -1.119648
H 0.56065 2.242112 0.532491
C -1.912748 0.033564 -0.183245
N -3.004916 0.351383 0.115786
N -0.375967 -1.8708 -0.046395
H -1.164186 -2.477211 -0.241121
H -0.301975 -1.743225 0.956445
