16

C 0.438905 0.398062 -0.10322
H -0.743521 -0.357723 -1.671899
F -0.20919 0.407509 1.572466
F 1.257812 0.259065 -1.677565
C -0.727504 -0.468465 -0.585926
C 1.635163 -0.224582 0.474052
N 2.610868 -0.694525 0.932892
N 0.310042 1.81899 -0.226549
H 1.086889 2.143651 -0.784509
H 0.324946 2.200811 0.708531
C -2.017623 0.024256 -0.086099
N -3.119966 0.327458 0.186495
C -0.537742 -1.940852 -0.223241
H 0.388741 -2.301551 -0.674485
H -0.475833 -2.037566 0.861043
H -1.37263 -2.540767 -0.596052
