14

C -0.577652 0.111252 0.127727
H -1.450271 -0.318008 -1.771671
Br 1.803127 -0.266095 -0.012585
F -2.508102 0.693936 0.259268
C -1.043943 -0.899797 -0.942595
H -0.191956 -1.47492 -1.300497
C -0.405014 1.506581 -0.242754
N -0.241187 2.634083 -0.544513
N -0.666024 -0.277951 1.507027
H -1.551215 0.124199 1.802078
H 0.102846 0.135127 2.017796
N -2.067502 -1.814475 -0.46659
H -2.785322 -1.195243 -0.099532
H -1.677969 -2.303082 0.333156
