17

C 0.26314 -0.129509 0.400186
H -0.950202 1.373525 1.101404
Cl 0.413024 -1.251371 -1.040658
H 0.901599 1.376581 2.253844
C -1.027854 0.681623 0.253132
C 1.465214 0.77557 0.38415
N 2.473557 1.131183 -0.138792
N 0.189497 -0.964039 1.582241
H 0.388924 -0.239819 2.305469
H 1.014474 -1.56204 1.566236
C -2.283801 -0.176472 0.395431
H -2.358895 -0.888958 -0.432431
H -2.272492 -0.737503 1.330031
H -3.167843 0.471839 0.370537
N -0.978888 1.482169 -0.969753
H -1.73968 2.151602 -0.947366
H -1.126644 0.875613 -1.769802
