14

C -0.073388 0.035836 0.147683
H -0.955799 1.798168 -0.596941
Br 2.433583 -0.586356 -0.165941
Br -2.640475 -0.321774 -0.164455
C 0.042462 1.358637 -0.572669
H -0.127854 -0.872177 -0.418787
H 0.352189 1.153334 -1.605057
C -0.107837 0.021753 1.645873
H 0.834989 0.396821 2.040705
H -0.905147 0.681385 1.990866
H -0.291988 -0.987636 2.01204
N 0.916497 2.287412 0.150403
H 0.890084 3.182531 -0.323985
H 1.861826 1.922886 0.086892
