17

C -0.535826 -0.312794 0.13341
H -1.718106 1.140669 1.001117
Br 2.050048 -0.376383 -0.301363
Cl -2.840674 -0.926546 -0.329238
C -0.859773 1.152236 0.310488
H -0.415944 -0.706076 -0.857082
C -0.430813 -1.180326 1.355937
H 0.413569 -0.868348 1.970851
H -1.351065 -1.106512 1.937925
H -0.279149 -2.218895 1.065965
N -1.208019 1.739757 -0.982004
H -1.4974 2.700106 -0.825411
H -2.018335 1.230005 -1.322365
C 0.22696 1.99752 0.973449
H 0.610842 1.52587 1.879533
H 1.054523 2.140884 0.282703
H -0.20629 2.968862 1.245866
