13

C -0.350206 0.480548 -0.1664
H 1.074123 0.843685 1.340538
Cl -1.693997 -1.222417 -0.208114
F 1.050701 1.90443 -0.542114
C 0.653049 -0.031925 0.847083
H -0.141535 0.371645 -1.211732
H 0.182968 -0.696131 1.576681
C -1.330946 1.519888 0.306472
H -2.118376 1.659954 -0.435236
H -1.803597 1.206601 1.24082
H -0.772774 2.444414 0.435074
C 1.75751 -0.748455 0.212747
N 2.649198 -1.358469 -0.246942
