15

C -0.454639 0.715927 0.392695
H -2.38843 0.377337 1.106287
Br 1.19859 -0.286726 -0.049879
H 0.209895 2.249444 2.780972
C -1.566884 -0.258537 0.748628
H -0.199229 1.307717 1.313404
H -1.239187 -0.841825 1.615186
C -0.777307 1.637977 -0.767761
H -0.812052 1.1161 -1.728883
H -1.75387 2.105801 -0.59155
H -0.030572 2.433514 -0.825263
C -2.061983 -1.174681 -0.367611
H -2.525077 -0.604928 -1.178716
H -1.236452 -1.752193 -0.790569
H -2.810777 -1.879687 0.009176
