15

C 0.000616 -0.315788 0.027647
H -0.882108 0.902 1.508386
Cl 2.379389 -0.302489 -0.413838
Cl -2.378805 -0.303512 -0.41392
C 0.000229 0.934537 0.863317
H 0.001348 -0.254958 -1.042886
H 0.884093 0.903584 1.506413
C 4.7e-05 -1.645015 0.728448
H 0.890926 -1.729947 1.351798
H -0.889911 -1.72852 1.353211
H -0.001172 -2.460038 0.005383
C -0.001826 2.209127 0.031952
H 0.889087 2.240638 -0.598213
H -0.893787 2.23766 -0.596826
H -0.002793 3.094427 0.676439
