16

C -0.122541 -0.430979 0.016996
H -0.937823 1.187555 1.051616
Cl 2.218655 -0.773237 -0.651944
Cl -2.497766 -0.462657 -0.281046
C -0.082353 1.042821 0.378968
H -0.167665 -0.720694 -1.013274
C -0.064976 -1.427752 1.13322
H 0.870814 -1.302489 1.675279
H -0.897053 -1.256755 1.818195
H -0.127478 -2.441821 0.740458
N -0.214912 1.83902 -0.844932
H -0.369003 2.80445 -0.568445
H -1.069505 1.531262 -1.302469
N 1.090019 1.376946 1.168983
H 1.027877 2.354812 1.43155
H 1.908195 1.237584 0.584478
