14

C 0.879447 0.597311 0.368754
H -0.606222 1.914833 -0.41696
Cl 1.144141 -1.42394 -0.062302
H 0.538082 2.470966 1.345393
C -0.345199 0.86004 -0.470142
H 0.732135 0.499847 1.426589
H -0.201188 0.532584 -1.499465
C 2.179044 1.151389 -0.187522
H 2.376405 0.706025 -1.167769
H 2.143461 2.232879 -0.265027
H 2.999916 0.874685 0.477338
N -1.560421 0.136391 0.004327
O -2.431572 -0.085957 -0.842359
O -1.667151 -0.118045 1.200135
