16

C 0.140029 1.208792 0.39402
H -1.989704 1.311324 0.271974
Br 1.516198 -0.529648 0.052376
H -0.8572 2.754511 1.53687
C -1.244899 0.560115 0.515991
H 0.583591 1.447127 1.33991
C 0.445212 2.098637 -0.791759
H 0.42275 1.519555 -1.715078
H -0.28575 2.903158 -0.851163
H 1.440581 2.532632 -0.673503
N -1.539473 -0.004965 1.802837
H -1.502271 0.810179 2.414312
H -0.774979 -0.624231 2.055259
N -1.467111 -0.491153 -0.558277
O -1.587687 -1.669546 -0.241787
O -1.549803 -0.061579 -1.71236
