13

C 0.610421 0.496211 -0.115161
H 1.178651 -1.292644 -1.01976
Cl -1.378079 1.451184 -0.1958
F 2.544482 0.007665 -0.359197
C 0.233662 -0.772688 -0.855423
H 1.007039 1.301431 -0.699325
H -0.222761 -0.527549 -1.816104
C 0.782757 0.461454 1.378843
H -0.137524 0.154524 1.877207
H 1.594146 -0.229338 1.598626
H 1.057791 1.454185 1.737892
C -0.682838 -1.645932 -0.120898
N -1.373481 -2.404855 0.45124
