15

C -0.220183 1.156942 0.039325
H -2.216303 0.879688 -0.575511
Br 1.433235 -0.359157 0.263599
H -1.594301 2.679512 0.526449
C -1.507392 0.329883 0.056286
H 0.043149 1.638345 0.959888
C 0.164575 1.7815 -1.287049
H 1.124205 2.293223 -1.191618
H 0.281682 0.999461 -2.042846
H -0.591534 2.496103 -1.606935
N -1.977433 0.193578 1.435328
H -2.872058 -0.288645 1.421238
H -2.152612 1.171598 1.688011
C -1.402647 -1.004492 -0.567759
N -1.507076 -2.033835 -1.128108
