15

C -0.430089 0.0284 -0.483204
H 0.645192 -1.44222 -1.53302
Cl 0.385925 1.933249 0.213671
F -1.21192 -1.730915 -0.795538
C 0.86244 -0.460151 -1.115105
H 1.098664 0.240956 -1.921148
C -1.499223 0.621032 -1.364072
H -1.117275 1.493077 -1.894555
H -1.835305 -0.149965 -2.051875
H -2.330843 0.929577 -0.733165
N -0.775448 -0.393267 0.911984
O 0.072071 -1.029809 1.523705
O -1.865779 -0.052022 1.350957
C 2.059345 -0.554185 -0.280013
N 3.101298 -0.680211 0.247768
