16

C 0.612937 -0.087665 -0.316486
H 1.388782 1.624677 0.678468
Br -1.877993 -0.677947 -0.161907
Cl 3.004804 0.080515 -0.237902
C 0.434844 1.094078 0.67561
C 0.605553 0.174059 -1.809747
H -0.407535 0.354152 -2.163198
H 1.223142 1.048283 -2.017987
H 1.037435 -0.67811 -2.334092
C 0.809422 -1.403982 0.232029
N 0.993042 -2.471191 0.701622
N 0.142249 0.739844 2.048074
H 0.93386 0.217495 2.408696
H -0.669568 0.128927 2.049532
C -0.53652 2.072916 0.157238
N -1.194638 2.955278 -0.255727
