19

C -0.365553 0.183335 0.375247
H -0.238094 -1.736203 -0.533325
F -2.263353 1.032809 0.586127
Br 1.90294 -0.32154 -0.056491
C -1.006265 -0.965675 -0.429585
C -0.270366 0.071551 1.883657
H -1.272489 0.22567 2.277358
H 0.123609 -0.906505 2.165708
H 0.402413 0.83724 2.27131
C -0.256639 1.505422 -0.208433
N -0.046079 2.555322 -0.702247
C -1.406147 -0.489664 -1.821839
H -2.154619 0.296602 -1.714559
H -0.543582 -0.093904 -2.36487
H -1.824529 -1.321783 -2.399089
C -2.191726 -1.617272 0.289358
H -1.911389 -1.967555 1.287117
H -2.998404 -0.896159 0.387102
H -2.512906 -2.492222 -0.289412
