16

C -0.17746 -0.445409 -0.231642
H 0.295814 1.582763 -0.670523
Cl -2.51862 -1.104002 -0.056433
Br 2.293931 0.163481 -0.021813
C -0.61673 1.002814 -0.5272
C 0.128368 -1.369045 -1.396843
H -0.793377 -1.742095 -1.836626
H 0.686789 -0.818467 -2.150877
H 0.736523 -2.201703 -1.044163
C -0.084388 -0.907707 1.126811
N -0.001499 -1.309694 2.233619
C -1.306114 1.61808 0.62755
N -1.83049 2.246111 1.472896
N -1.355817 1.081059 -1.779163
H -1.479199 2.057848 -2.018958
H -2.265017 0.653103 -1.639557
