15

C -0.355797 0.28938 -0.188694
H 1.154674 0.970132 -1.59568
F -0.142431 0.427976 1.471505
H -0.650879 -0.23523 -1.985235
C 1.055509 0.786579 -0.528711
H 1.167304 1.733814 0.009636
C -1.51296 1.26322 -0.35351
H -1.538078 1.898543 0.536771
H -1.392514 1.877174 -1.24497
H -2.456361 0.722657 -0.44139
C -0.603904 -1.126429 -0.258777
N -0.745112 -2.281347 -0.025883
N 2.117127 -0.114928 -0.089654
H 2.00843 -0.981488 -0.609424
H 1.888112 -0.33997 0.873663
