15

C 0.633672 -0.19846 0.150952
H -0.390195 -1.628693 -0.884139
Cl 0.850953 1.610496 0.260854
H 0.720319 -2.671516 -0.722231
C -0.541433 -0.496988 -0.760885
H -0.428208 0.01881 -1.713032
C 0.553234 -0.751434 1.565643
H -0.2697 -0.29888 2.113097
H 0.405658 -1.829888 1.478674
H 1.498169 -0.547939 2.074555
C 1.851126 -0.748002 -0.518646
N 2.964292 -0.680141 -0.921195
N -1.864857 -0.174433 -0.252949
O -2.62117 0.47508 -0.99302
O -2.213565 -0.633705 0.844917
