18

C -0.697876 -0.623408 0.163429
H -1.787266 0.941946 0.98867
Br 1.803423 -0.324511 -0.160777
F -2.726032 -0.852919 0.349505
C -1.1204 0.860184 0.121547
C -0.488919 -1.228511 1.529731
H 0.193792 -2.075136 1.47257
H -0.057739 -0.495135 2.213965
H -1.468295 -1.546213 1.886917
C -0.749137 -1.499764 -1.068642
H -1.739742 -1.948233 -1.115341
H -0.569539 -0.899156 -1.958156
H 0.01476 -2.272463 -1.003229
N -1.837206 1.133196 -1.128603
H -2.148921 2.09894 -1.110848
H -2.650636 0.526645 -1.034885
C -0.096842 1.901273 0.315885
N 0.486794 2.901704 0.52436
