19

C -0.360805 -0.420258 -0.151319
H -0.741337 1.521553 0.553277
Cl 2.032189 -1.283974 -0.175821
Cl -2.7303 0.311771 -0.118676
C 0.127771 0.857243 0.543082
C -0.796774 -1.61766 0.671313
H 0.064716 -2.165052 1.043627
H -1.419763 -1.304319 1.505881
H -1.399612 -2.272751 0.042685
C -0.422533 -0.408267 -1.662352
H -0.773903 0.562995 -2.009806
H 0.561495 -0.601109 -2.083395
H -1.129282 -1.163166 -2.005081
C 1.131794 1.57447 -0.251614
N 1.860685 2.278907 -0.847195
C 0.587478 0.686081 1.993142
H -0.238321 0.310362 2.600556
H 1.430035 -0.001594 2.042531
H 0.887477 1.65852 2.393015
