16

C 0.272243 0.483241 0.030135
H -0.098148 -0.933972 -1.583379
F -1.302007 1.839058 0.023631
Cl 1.880389 -1.131559 -0.021136
C -0.649973 -0.228212 -0.961136
H -1.100461 0.55037 -1.573878
C 0.104608 0.388426 1.529666
H -0.576846 1.180622 1.828353
H -0.304162 -0.582605 1.810418
H 1.074624 0.498425 2.015642
C 1.168827 1.555181 -0.542772
H 2.091245 1.627984 0.033869
H 1.437432 1.314547 -1.573974
H 0.607057 2.485989 -0.50648
C -1.741987 -0.946533 -0.309256
N -2.614515 -1.567 0.17375
