18

C -0.380921 0.521624 0.035381
H 0.15555 -1.203087 -1.06561
F 1.438571 1.480535 0.548737
Cl -2.224133 -0.64183 -0.425092
C 0.508442 -0.723541 -0.141544
C -0.486565 1.453517 -1.14681
H 0.329524 2.166075 -1.051898
H -0.40313 0.899717 -2.08499
H -1.452749 1.961329 -1.139026
C -0.841874 1.003887 1.392871
H -1.89888 1.272327 1.367783
H -0.682025 0.220382 2.132473
H -0.225779 1.86054 1.649761
N 0.388851 -1.630246 1.006345
H 1.034402 -2.399561 0.864126
H -0.555427 -2.003049 0.975047
C 1.942132 -0.463 -0.375467
N 3.056058 -0.647367 -0.712963
