17

C -0.798319 -0.262787 -0.237715
H 0.494608 0.642491 -1.691712
F -0.474667 -0.108517 1.418363
H -1.162636 -0.513655 -2.138057
C 0.474465 0.522234 -0.612224
C -2.121858 0.49375 -0.242729
H -2.329874 0.872011 0.765511
H -2.084322 1.324039 -0.944332
H -2.91918 -0.176652 -0.560591
N -0.698594 -1.705051 -0.181049
H -1.246325 -2.076503 -0.939989
H -1.043877 -1.99186 0.728351
C 1.675359 -0.258443 -0.22747
N 2.716868 -0.730694 0.047747
N 0.469307 1.852226 0.010278
H 1.340835 2.320253 -0.212587
H 0.431824 1.692639 1.01014
