16

C -0.616802 0.627234 -0.103943
H 0.791528 0.678446 1.501746
F -0.680713 -0.607983 -1.305899
H -0.602137 2.272577 0.895884
C 0.709599 0.190229 0.533879
H -0.632354 1.379405 -0.873522
N -1.827052 0.193396 0.567393
H -2.423707 -0.185838 -0.158088
H -2.239359 1.019546 0.973146
C 1.861139 0.629759 -0.353663
H 1.750202 0.173188 -1.340972
H 1.847525 1.718841 -0.459969
H 2.816214 0.318213 0.079437
N 0.772347 -1.259524 0.775773
H 0.494609 -1.669529 -0.112479
H -0.016784 -1.453447 1.388108
