16

C -0.96807 0.186588 -0.725094
H 0.554408 1.606976 -1.056657
Cl -0.9428 -1.439793 0.602533
H -1.081507 1.466072 -2.330152
C 0.298227 0.909047 -0.260862
H -0.863682 -0.388838 -1.63071
N -2.233608 0.751025 -0.298263
H -2.866305 -0.014734 -0.097546
H -2.55695 1.279501 -1.096748
N 1.466306 -0.047063 -0.262074
O 2.250974 -0.038546 0.688058
O 1.61599 -0.724629 -1.278185
C 0.159086 1.62223 1.063757
H -0.664687 2.329925 0.973721
H -0.074719 0.916977 1.860782
H 1.080992 2.151067 1.310828
