13

C 0.965977 0.071153 -0.208025
H -0.042238 -1.294809 1.112104
F 0.162926 1.63887 -0.555711
F 1.762941 -1.540829 -0.028952
C -0.154294 -0.278934 0.737552
H 0.868606 -0.162362 -1.253987
H -0.191908 0.454855 1.536071
N 2.104301 0.730239 0.372903
H 2.163384 1.633514 -0.074735
H 2.900271 0.148684 0.157046
N -1.487608 -0.230615 0.077118
O -2.415845 0.292268 0.697028
O -1.611387 -0.781385 -1.014758
