14

C 1.143423 -0.089265 0.349051
H 0.182606 0.374394 -1.473575
F 0.208004 -1.228136 1.410973
F 2.024644 1.133485 -0.496781
C -0.104738 0.347817 -0.423667
H 1.374827 0.410032 1.276493
N 1.899722 -1.163713 -0.210954
H 1.849061 -1.921988 0.452939
H 2.844409 -0.830683 -0.338144
C -0.556201 1.671642 0.002124
N -0.918933 2.743215 0.318074
N -1.267565 -0.6154 -0.360708
O -2.234796 -0.336116 0.339445
O -1.169229 -1.602604 -1.081367
