14

C -0.110891 0.306102 0.121565
H 1.058034 1.089958 -1.479739
F 0.400025 -1.173916 0.923044
F -0.862408 1.614793 -0.759288
C 0.999685 0.166538 -0.906107
H 0.730393 -0.650494 -1.57631
N 0.045084 1.08351 1.28596
H -0.01424 0.463302 2.07923
H -0.686234 1.778563 1.291116
N -1.413153 -0.446677 -0.138473
O -1.511041 -1.112679 -1.162359
O -2.292325 -0.324401 0.706066
C 2.307712 -0.106222 -0.308516
N 3.413981 -0.258416 0.055457
