15

C -0.517568 0.482007 -0.229751
H 0.508788 -0.960965 -1.455673
F -0.032907 0.367238 1.253982
H -1.179917 0.375252 -1.956931
C 0.693685 0.006659 -1.005059
H 0.979975 0.766082 -1.722571
N -0.860768 1.861734 -0.209376
H -1.197318 2.070814 0.722379
H -1.584624 2.021859 -0.890243
N -1.623069 -0.531133 -0.072723
O -2.71668 -0.099049 0.30077
O -1.344309 -1.725149 -0.182964
N 1.916601 -0.179002 -0.11499
O 2.609738 0.814491 0.107408
O 2.161652 -1.311715 0.300496
