15

C -0.751018 0.501541 -0.09412
H 0.417549 0.091137 -1.810656
Cl -0.026041 0.114819 1.958489
F -1.421125 0.730055 -1.873553
C 0.590478 0.100744 -0.732416
N -0.949401 1.901831 0.114009
H -1.277655 2.076518 1.052819
H -1.61677 2.190823 -0.58908
C -1.846177 -0.44325 0.039482
N -2.806166 -1.104416 0.207659
N 1.037316 -1.304962 -0.406971
O 2.208665 -1.491402 -0.094985
O 0.18969 -2.175328 -0.572952
C 1.647202 1.054214 -0.413235
N 2.529673 1.81804 -0.277582
