17

C 0.342518 -0.027356 -0.399966
H 0.652037 1.847246 0.234917
Cl -1.667681 -1.323085 -0.200999
F 2.3612 0.851048 -0.219591
C -0.210443 1.181576 0.333883
N 0.47151 0.047489 -1.737565
H 1.442622 -0.079073 -1.987855
H 0.048112 0.900286 -2.081674
C 1.122166 -1.017727 0.305525
N 1.641464 -1.902158 0.885544
C -0.48449 0.94879 1.811601
H -1.281251 0.217697 1.952022
H 0.422219 0.595594 2.309569
H -0.777178 1.898263 2.27453
N -1.308297 1.738062 -0.45741
H -1.554127 2.64518 -0.079346
H -2.103896 1.112359 -0.36911
