14

C -0.545345 -0.495096 0.165763
H 0.478175 0.179713 1.869777
Cl 0.210254 -0.240035 -1.9058
F -1.301802 -0.593158 1.910153
C 0.650866 0.254464 0.791628
N -0.475629 -1.919717 0.152939
H -0.653187 -2.275864 -0.774776
H -1.155353 -2.240212 0.829518
C -1.756185 0.249478 -0.140971
N -2.756378 0.807028 -0.414721
C 0.695885 1.677659 0.445806
N 0.74292 2.836853 0.258735
C 1.934792 -0.390704 0.497933
N 3.002257 -0.869798 0.391869
