13

C -0.753595 0.117276 0.147167
H -1.328656 1.736493 -1.076798
Br 1.357419 -0.968275 0.043268
F -2.603831 0.838396 0.186407
C -0.40629 1.187795 -0.887636
H -0.059898 0.718219 -1.810679
N -0.672019 0.439862 1.538105
H -0.278988 -0.334948 2.053403
H -1.632348 0.625583 1.805738
C -1.450826 -1.062871 -0.338781
N -1.98792 -2.04207 -0.714033
C 0.617623 2.121629 -0.422994
N 1.400402 2.947311 -0.131248
