18

C -0.844146 -0.123368 -0.199401
H 0.575351 0.477325 -1.683121
F -0.330127 -0.567777 1.332311
H -1.452556 0.507689 -1.869381
C 0.516204 0.496412 -0.594703
N -1.887078 0.720383 0.362303
H -2.200345 0.269981 1.215783
H -2.620479 0.793508 -0.324224
C -1.112415 -1.527223 -0.733775
H -0.621076 -1.672931 -1.696371
H -0.747275 -2.267596 -0.012572
H -2.18306 -1.665722 -0.890637
C 1.660488 -0.292324 -0.096451
N 2.640421 -0.885589 0.172932
C 0.621593 1.941433 -0.119137
H -0.185583 2.506032 -0.587297
H 0.49124 1.977141 0.962659
H 1.591187 2.371424 -0.391482
