15

C	0.0	0.0	0.0
C	-0.635368	0.096236	-1.384315
Br	1.950293	0.0	0.0
H	-1.679476	0.356209	-1.106047
H	-0.331549	-0.917726	0.484834
C	-0.370903	1.150643	0.832179
N	-0.528141	2.115627	1.484109
N	-0.608703	-1.240444	-1.986738
H	-0.734706	-1.137786	-2.988603
H	-1.455901	-1.695728	-1.642337
C	-0.016385	1.14436	-2.282938
H	-0.65753	1.29018	-3.158597
H	0.979913	0.847208	-2.624441
H	0.063413	2.104567	-1.766216
H	-3.099013	0.0	0.0
