15

C	0.0	0.0	0.0
C	-0.49264	-0.013476	-1.448813
Br	1.960638	0.0	0.0
H	-1.581469	-0.107704	-1.271244
H	-0.333252	-0.914697	0.488715
C	-0.420757	1.172256	0.765155
N	-0.538378	2.161733	1.391662
N	0.002833	-1.226545	-2.096593
H	0.908274	-1.049815	-2.519854
H	-0.64209	-1.475597	-2.83684
C	-0.203024	1.278269	-2.198484
H	-0.620758	1.206342	-3.207692
H	0.872573	1.468603	-2.287555
H	-0.670409	2.131531	-1.700187
H	-2.884632	0.0	0.0
