15

C	0.0	0.0	0.0
C	-0.427195	0.173721	-1.525447
Br	1.956927	0.0	0.0
H	0.472164	0.529541	-2.033515
H	-0.353786	-0.929927	0.43789
C	-0.390731	1.13439	0.826774
N	-0.553119	2.090889	1.491065
N	-1.491303	1.107998	-1.805007
H	-2.275363	0.80544	-1.182285
H	-1.209054	2.035693	-1.498508
C	-0.79951	-1.200462	-2.0669
H	-0.956759	-1.130242	-3.145687
H	-0.015145	-1.937823	-1.865512
H	-1.732612	-1.504779	-1.589947
H	-2.948646	0.0	0.0
