15

C	0.0	0.0	0.0
C	-0.299557	0.099359	-1.520036
Br	1.946756	0.0	0.0
H	-1.29596	0.511577	-1.6469
H	0.417095	0.806205	-1.943745
N	-0.410726	1.248716	0.726816
O	-0.430248	2.289405	0.061901
O	-0.456664	1.194528	1.956549
C	-0.54624	-1.161993	0.667413
N	-0.592892	-2.22316	1.193946
C	-0.198441	-1.258953	-2.199182
H	-0.943686	-1.945537	-1.790019
H	0.789754	-1.705266	-2.066453
H	-0.38105	-1.149791	-3.272657
H	-2.042131	0.0	0.0
