15

C	0.0	0.0	0.0
C	-0.225807	0.003428	-1.547148
Br	1.940801	0.0	0.0
H	0.275049	-0.905492	-1.894688
H	0.371835	0.841451	-1.905331
N	-0.468767	1.243677	0.661259
O	-0.477324	2.268985	-0.039063
O	-0.533538	1.238323	1.897262
C	-0.495451	-1.173115	0.686239
N	-0.593031	-2.234229	1.203199
C	-1.599979	0.097082	-2.195184
H	-2.230156	-0.764653	-1.97693
H	-1.442679	0.149729	-3.287095
H	-2.120599	0.998053	-1.874813
H	-1.914567	0.0	0.0
