13

C	-0.532582	-0.005863	-1.398483
C	0.0	0.0	0.0
F	-1.939629	-0.070303	-1.356021
H	1.091358	0.0	0.0
H	-0.312658	0.938949	-1.905961
H	-0.399128	-0.847297	0.55701
N	-0.090885	-1.201897	-2.074948
H	-0.497159	-1.202839	-3.004863
H	0.923703	-1.163902	-2.148918
N	-0.407607	1.21815	0.711659
O	-0.963323	1.115113	1.808149
O	-0.122382	2.301135	0.199567
Cl	3.05326	0.0	0.0
