13

C	-0.432417	0.051765	-1.451954
C	0.0	0.0	0.0
F	-0.262493	-1.246232	-1.989658
H	1.0891	0.0	0.0
H	-1.497123	0.261278	-1.57512
H	-0.381042	0.872898	0.530074
N	0.360497	1.026366	-2.095543
H	1.346831	0.86223	-1.906198
H	0.194274	1.03583	-3.092264
N	-0.595182	-1.187199	0.655207
O	-1.830038	-1.206891	0.70864
O	0.141132	-2.063412	1.096359
Cl	3.417619	0.0	0.0
