13

C	-0.564563	0.055454	-1.41291
C	0.0	0.0	0.0
F	-0.314349	1.349963	-1.855471
H	1.08793	0.0	0.0
H	-0.022026	-0.624784	-2.068617
H	-0.393527	0.826293	0.590309
N	-1.971874	-0.208903	-1.516719
H	-2.135549	-1.183136	-1.726761
H	-2.454915	0.03722	-0.659856
N	-0.470708	-1.248714	0.636122
O	-0.256574	-2.299155	0.03454
O	-1.072581	-1.171791	1.707706
Cl	3.354583	0.0	0.0
