13

C	-0.552798	0.06172	-1.419019
C	0.0	0.0	0.0
F	-0.337493	1.367795	-1.835173
H	1.087932	0.0	0.0
H	0.013136	-0.597994	-2.075807
H	-0.392859	0.820648	0.598973
N	-1.952204	-0.2276	-1.56841
H	-2.091084	-1.228155	-1.584426
H	-2.480119	0.159858	-0.79546
N	-0.44652	-1.255731	0.64023
O	-0.907044	-1.202701	1.781574
O	-0.335317	-2.292193	-0.01833
Cl	3.352677	0.0	0.0
