13

C	-0.461407	-0.055976	-1.454011
C	0.0	0.0	0.0
F	-0.43709	-1.389651	-1.849959
H	1.087023	0.0	0.0
H	-1.497439	0.278728	-1.562796
H	-0.361418	0.927667	0.447092
N	0.392248	0.698609	-2.312264
H	1.359063	0.630325	-2.001308
H	0.11474	1.668544	-2.349483
N	-0.614022	-1.098405	0.776758
O	-1.818854	-0.971066	1.024688
O	0.06781	-2.067546	1.087541
Cl	3.402163	0.0	0.0
