15

C	0.0	0.0	0.0
C	-0.54494	-0.467602	-1.342841
Cl	1.776989	0.0	0.0
H	-0.192411	0.18974	-2.138473
H	-1.644426	-0.395376	-1.273329
N	-0.384665	1.475441	0.171679
O	-0.487635	2.146127	-0.848587
O	-0.485194	1.892461	1.317038
C	-0.50718	-0.809506	1.165163
H	-1.600045	-0.773136	1.157977
H	-0.167184	-1.84019	1.050134
H	-0.123649	-0.404691	2.099515
C	-0.143673	-1.84013	-1.620406
N	0.181018	-2.943454	-1.856343
Br	-3.806282	0.0	0.0
