15

C	0.0	0.0	0.0
C	-0.289483	0.298833	-1.48277
Cl	1.779225	0.0	0.0
H	0.093079	1.301463	-1.680896
H	0.35543	-0.392603	-2.030678
N	-0.400772	1.167737	0.899114
O	-0.493107	0.924524	2.095166
O	-0.516859	2.268689	0.374391
C	-0.535974	-1.300289	0.522876
H	-0.168137	-1.484647	1.531424
H	-0.206732	-2.105529	-0.138291
H	-1.629245	-1.233902	0.521654
C	-1.586864	0.183617	-2.161129
N	-2.252765	0.113194	-3.130565
Br	-3.739092	0.0	0.0
