13

C	-0.45822	0.019675	-1.446293
C	0.0	0.0	0.0
F	-1.844038	0.028917	-1.516685
H	1.092877	0.0	0.0
H	-0.106425	-0.913399	-1.896765
C	0.057629	1.131484	-2.256939
N	0.388048	1.941426	-3.039347
C	-0.501745	-1.196945	0.660393
N	-0.880186	-2.198801	1.142526
N	-0.444489	1.214477	0.760451
O	-0.550154	2.257613	0.124594
O	-0.61464	1.08638	1.96767
Cl	3.100703	0.0	0.0
