13

C	-0.458268	0.035065	-1.445844
C	0.0	0.0	0.0
F	-1.843952	0.043126	-1.518285
H	1.092871	0.0	0.0
H	-0.104784	-0.892504	-1.906518
C	0.057775	1.155961	-2.242997
N	0.394987	1.978429	-3.00868
C	-0.50177	-1.203095	0.648448
N	-0.890267	-2.203707	1.124581
N	-0.442401	1.205633	0.775565
O	-0.581161	2.250665	0.148696
O	-0.575792	1.068107	1.985982
Cl	3.100927	0.0	0.0
