13

C	-0.428916	-0.148114	-1.461571
C	0.0	0.0	0.0
F	-0.090052	-1.418189	-1.873599
H	1.091654	0.0	0.0
H	0.121291	0.572863	-2.064302
C	-1.87966	0.030828	-1.650412
N	-3.038137	0.135228	-1.817433
C	-0.55494	-1.04289	0.842503
N	-1.0164	-1.907775	1.489052
N	-0.395635	1.349543	0.510854
O	-0.498639	2.238611	-0.33407
O	-0.516672	1.489716	1.720006
Cl	3.111058	0.0	0.0
