13

C	-0.420763	0.023033	-1.47206
C	0.0	0.0	0.0
F	-0.126275	-1.209762	-2.012779
H	1.093199	0.0	0.0
H	0.163578	0.781518	-1.992785
C	-1.860821	0.279003	-1.64882
N	-3.009878	0.464449	-1.802072
C	-0.559742	-1.130055	0.71702
N	-1.004912	-2.061384	1.277178
N	-0.392367	1.286109	0.655442
O	-0.450242	2.269252	-0.082665
O	-0.559426	1.286508	1.868081
Cl	3.110283	0.0	0.0
