15
Coordinates from ORCA-job run
  C   -0.55560515438911     -0.42084208493773     -0.31363026638876
  C   0.85419568957414      0.17002977472285     -0.21058155833440
  F   -0.63956516286553     -0.98381729808867     -1.58488322901645
  H   1.54930665329680     -0.60302791961583     -0.55751510270959
  N   -1.56355590419012      0.47968140868222     -0.06059927185742
  H   -2.29707481078483      0.14653565338182      0.54368699861544
  H   -1.25205119603748      1.42586159585771      0.09100004639660
  N   -0.64275793772949     -1.65369923311658      0.60106063784932
  O   -1.63114949037684     -1.76760734453686      1.31711463389001
  O   0.28788462856904     -2.44546448262777      0.50966290892565
  C   1.15396357234696      0.46989126234047      1.19329563099051
  N   1.40258039198951      0.72535086111495      2.31155453437509
  N   0.86196575076348      1.40968500368756     -0.98105885665437
  H   0.70594186702723      1.18625254655691     -1.95799662221207
  H   1.76492110280622      1.86117025657895     -0.90011048386956
