15
Coordinates from ORCA-job run
  C   -0.42456550097818     -0.53233364095686     -0.26300171667287
  C   0.85039798987324      0.32256533683841     -0.35196225654078
  F   -0.16028220238144     -1.71782557732523     -0.89700838899221
  H   1.04878913629476      0.39286105202844     -1.43112106200306
  N   -1.54918626434347      0.14709869642978     -0.75353848986788
  H   -2.39769022061291     -0.39379561185275     -0.64096930265176
  H   -1.42522496914906      0.39406250335429     -1.72715184608945
  N   -0.70137782995451     -0.89379060433908      1.20189807141071
  O   -1.08634521437956      0.03232969198265      1.90779985065681
  O   -0.50221909070421     -2.05001920279113      1.54447721461409
  C   1.97330757048691     -0.43752579935448      0.23052040413672
  N   2.88994848030503     -1.02096384189801      0.67421938861799
  N   0.72630971679866      1.62545609081614      0.27278182097201
  H   -0.21549002268849      1.77340207114004      0.60915469395098
  H   0.97362842143322      2.35747883592779     -0.37609838154130
