15
Coordinates from ORCA-job run
  C   -0.41226046469312     -0.59456905043587     -0.12287145302609
  C   0.48696497238675      0.64577563170400      0.00195770783998
  F   0.39239856346821     -1.66333009219431     -0.33446074530187
  H   -0.16797799951458      1.48399843606353      0.25444557027829
  N   -1.44541255315642     -0.59476936270697     -1.08702310458482
  H   -1.07137867595494     -0.50616097965926     -2.02350131915632
  H   -2.12491496600300      0.12940582839280     -0.89745088008101
  N   -1.08178929485634     -0.75985457360117      1.23606418954841
  O   -0.81629980552050     -1.74660275541627      1.89743427471798
  O   -1.85346620412905      0.15091293592582      1.52410721047399
  C   1.08514633938695      0.90030762931447     -1.32382207165010
  N   1.58341382799159      1.08370048652477     -2.37195737008351
  N   1.41976793717381      0.44379331940787      1.08853782343632
  H   2.09460166701812     -0.27247908802490      0.85097666444821
  H   1.91320665640251      1.29887163470549      1.30856350314052
