15
Coordinates from ORCA-job run
  C   -0.41924416597722     -0.40113291935352     -0.10316503871597
  C   0.64000068019384      0.71212669509417     -0.01074243147273
  F   0.24802733283179     -1.61515460888439     -0.19722048535995
  H   0.11910125914834      1.62547433693455      0.28538855622888
  N   -1.37805505998532     -0.18989800340774     -1.09283223099372
  H   -0.96479945469810     -0.06554146977547     -2.00802997471029
  H   -2.06450912421480     -0.93455500730608     -1.10394989711732
  N   -1.19225075613947     -0.51293725254543      1.20929283498500
  O   -0.97330232193215      0.31252165487988      2.09076764295136
  O   -1.99572663182642     -1.43573587054223      1.26014815522587
  C   1.16940819262509      0.90926547017750     -1.36906118475558
  N   1.55419743826619      1.03003252556300     -2.47139559590056
  N   1.72936520889626      0.47626610659169      0.90804405469248
  H   1.38684341830488      0.52442904589421      1.85800692414107
  H   2.13994398450710     -0.43416070332012      0.74474867080147
