19

C	-0.410346	-0.0002	-1.472387
C	0.0	0.0	0.0
Br	0.133261	-1.757228	-2.246012
H	1.092081	0.0	0.0
C	-1.889403	0.154558	-1.769014
H	-2.448093	-0.659595	-1.312368
H	-2.051621	0.155843	-2.848126
H	-2.259741	1.09725	-1.350001
N	0.38268	0.997159	-2.159582
H	-0.021449	1.906178	-1.952729
H	1.318301	0.952671	-1.740995
N	-0.496967	-1.208004	0.722629
O	0.321012	-2.038353	1.113288
O	-1.719353	-1.30636	0.915976
C	-0.512386	1.206632	0.772131
H	-1.59949	1.219633	0.88141
H	-0.174807	2.126404	0.29198
H	-0.058914	1.18368	1.766696
F	2.611552	0.0	0.0
