19

C	-0.062317	-0.042881	-1.527553
C	0.0	0.0	0.0
Br	-1.934193	-0.311164	-2.235584
H	1.094752	0.0	0.0
C	0.432027	1.295701	-2.067417
H	1.426357	1.421322	-1.62408
H	-0.21806	2.135588	-1.815626
H	0.51721	1.237764	-3.155013
N	0.751165	-1.146088	-1.959664
H	1.620783	-1.054735	-1.411252
H	0.966181	-1.029521	-2.944482
N	-0.512641	-1.25553	0.59673
O	-1.645276	-1.2329	1.096287
O	0.207643	-2.251295	0.577244
C	-0.624469	1.202582	0.664684
H	-0.026215	2.085732	0.442227
H	-0.615921	1.065736	1.74667
H	-1.657848	1.363312	0.350611
F	2.646027	0.0	0.0
