19

C	-0.265795	0.088863	-1.472141
C	0.0	0.0	0.0
Br	-2.53969	0.454957	-1.683572
H	1.095345	0.0	0.0
C	0.307178	1.35683	-2.060534
H	-0.197432	2.24919	-1.701632
H	1.358539	1.349187	-1.748759
H	0.233599	1.332244	-3.149555
N	0.034961	-0.997886	-2.233634
H	-0.174125	-0.893967	-3.213478
H	-0.209965	-1.886043	-1.823714
N	-0.491718	-1.22836	0.646091
O	-0.466059	-2.298183	0.023196
O	-0.858391	-1.165635	1.820023
C	-0.372912	1.217283	0.81747
H	-1.44756	1.408692	0.822875
H	-0.022157	1.06963	1.837503
H	0.15912	2.079679	0.420613
F	2.512728	0.0	0.0
