16

C	-0.47882	0.067053	-1.451172
C	0.0	0.0	0.0
F	-0.181753	-1.164503	-2.05491
H	1.093749	0.0	0.0
H	-0.301439	0.918085	0.518936
C	-1.977645	0.242246	-1.589348
H	-2.495406	-0.577944	-1.093247
H	-2.298601	1.182831	-1.141733
H	-2.256388	0.242075	-2.647307
C	0.318785	1.121912	-2.185306
H	0.090781	1.083893	-3.254878
H	0.074411	2.116358	-1.807568
H	1.380881	0.941139	-2.014723
C	-0.557421	-1.138714	0.711338
N	-1.032637	-2.048361	1.283527
H	2.879437	0.0	0.0
