16

C	-0.482672	0.07951	-1.448616
C	0.0	0.0	0.0
F	-0.205423	-1.157256	-2.057849
H	1.093776	0.0	0.0
H	-0.300248	0.913988	0.526661
C	-1.982374	0.277765	-1.578162
H	-2.511778	-0.535328	-1.076158
H	-2.267504	0.280652	-2.634257
H	-2.285514	1.227051	-1.129255
C	0.328531	1.129711	-2.182066
H	0.090093	1.104143	-3.249624
H	0.103519	2.127098	-1.793663
H	1.391226	0.928262	-2.021211
C	-0.555606	-1.144347	0.703739
N	-1.025378	-2.059516	1.271903
H	2.879733	0.0	0.0
