18

C	-0.342636	0.014683	-1.499819
C	0.0	0.0	0.0
F	0.069703	1.287066	-1.939365
H	1.090318	0.0	0.0
C	0.536069	-0.972789	-2.244505
H	0.216735	-1.999749	-2.053807
H	1.55492	-0.833119	-1.865601
H	0.481781	-0.769716	-3.318938
N	-1.762211	-0.047233	-1.737579
H	-1.955173	-0.406952	-2.663602
H	-2.216881	-0.630629	-1.047134
N	-0.513012	-1.305626	0.54383
O	0.236076	-2.281535	0.530735
O	-1.688226	-1.351894	0.937135
N	-0.552031	1.084708	0.75119
H	-1.330842	1.507223	0.262798
H	0.187146	1.767681	0.851273
F	2.630508	0.0	0.0
