18

C	-0.156769	0.016629	-1.53104
C	0.0	0.0	0.0
F	-1.470845	-0.331865	-1.898193
H	1.09151	0.0	0.0
C	0.145431	1.415458	-2.021914
H	1.14325	1.674726	-1.660315
H	-0.572686	2.136394	-1.635481
H	0.138628	1.394547	-3.112726
N	0.752892	-0.897214	-2.185319
H	1.657183	-0.706039	-1.732236
H	0.506704	-1.830833	-1.8755
N	-0.499039	-1.301324	0.578344
O	-0.133949	-2.36511	0.078738
O	-1.2538	-1.246576	1.555017
N	-0.549764	1.127551	0.677663
H	-0.08906	1.22038	1.57437
H	-1.538614	0.990097	0.851177
F	2.618782	0.0	0.0
