18

C	-0.153272	-0.020754	-1.533062
C	0.0	0.0	0.0
F	-1.465428	-0.386331	-1.893025
H	1.091518	0.0	0.0
C	0.1404	1.367675	-2.056337
H	1.12768	1.650942	-1.685374
H	0.150687	1.319769	-3.146509
H	-0.594362	2.08639	-1.70076
N	0.763346	-0.946607	-2.160218
H	0.530579	-1.869828	-1.8095
H	1.663758	-0.729269	-1.711401
N	-0.503696	-1.289082	0.599192
O	-1.316893	-1.217469	1.528383
O	-0.089213	-2.361989	0.157232
N	-0.555663	1.141453	0.64815
H	-0.094831	1.262294	1.541017
H	-1.542523	1.000269	0.827182
F	2.618533	0.0	0.0
