18

C	-0.152391	-0.039482	-1.533255
C	0.0	0.0	0.0
F	-1.511926	-0.098246	-1.890857
H	1.090752	0.0	0.0
C	0.468915	1.229079	-2.082925
H	1.48413	1.275263	-1.676999
H	0.495747	1.159542	-3.170911
H	-0.097102	2.11174	-1.78461
N	0.525856	-1.157989	-2.140103
H	1.478368	-1.081055	-1.77411
H	0.160276	-2.006817	-1.721576
N	-0.611637	-1.2277	0.589872
O	-0.04665	-2.310164	0.397791
O	-1.680188	-1.118548	1.190581
N	-0.511217	1.151425	0.680019
H	-1.355987	1.511491	0.255435
H	0.209616	1.858484	0.694705
F	2.632845	0.0	0.0
