18

C	-0.475944	0.039734	-1.445853
C	0.0	0.0	0.0
F	-1.91368	0.24449	-1.405869
H	1.090197	0.0	0.0
C	0.14704	1.257043	-2.096508
H	-0.015235	1.228076	-3.178774
H	-0.274318	2.167152	-1.676562
H	1.215158	1.208817	-1.872512
N	-0.178045	-1.110835	-2.212261
H	-0.649392	-1.0485	-3.104599
H	-0.418288	-1.962162	-1.727176
N	-0.488007	-1.235143	0.721258
O	-1.063736	-1.093359	1.803859
O	-0.254413	-2.344994	0.233544
N	-0.415291	1.189164	0.676694
H	-1.371918	1.113286	0.995836
H	0.188827	1.319293	1.476839
F	2.569914	0.0	0.0
