18

C	-0.329105	0.034035	-1.504365
C	0.0	0.0	0.0
F	-0.123414	-1.244504	-2.02172
H	1.094442	0.0	0.0
C	-1.759886	0.407951	-1.827134
H	-2.005559	1.389441	-1.418693
H	-2.438338	-0.335528	-1.40013
H	-1.880471	0.42244	-2.911797
N	0.624475	0.904939	-2.144461
H	0.398979	1.849509	-1.850365
H	1.53156	0.688037	-1.707432
N	-0.579685	-1.218618	0.651016
O	-0.025181	-2.298316	0.473334
O	-1.620894	-1.082552	1.313444
N	-0.443052	1.220476	0.620608
H	0.216183	1.448209	1.354636
H	-1.360353	1.091157	1.031441
F	2.619942	0.0	0.0
