18

C	-0.488963	0.037502	-1.44035
C	0.0	0.0	0.0
F	-1.927274	0.241602	-1.385316
H	1.094257	0.0	0.0
C	0.122848	1.255914	-2.099584
H	-0.293694	2.165506	-1.67392
H	-0.055809	1.226255	-3.179489
H	1.1947	1.211235	-1.892396
N	-0.201127	-1.112224	-2.213289
H	-0.435768	-1.961221	-1.722116
H	-0.694012	-1.048978	-3.092701
N	-0.470258	-1.230959	0.738707
O	-0.956574	-1.08476	1.863405
O	-0.300318	-2.342474	0.228323
N	-0.40755	1.191748	0.676634
H	0.201831	1.32407	1.472826
H	-1.364084	1.12667	0.998554
F	2.566613	0.0	0.0
