18

C	-0.2362	0.029228	-1.524343
C	0.0	0.0	0.0
F	-0.063432	-1.318403	-1.975641
H	1.092287	0.0	0.0
C	-1.615324	0.411249	-2.014756
H	-2.357167	-0.274387	-1.605528
H	-1.861014	1.432261	-1.723218
H	-1.640878	0.348635	-3.106212
N	0.792126	0.869844	-2.016874
H	1.672752	0.626742	-1.530285
H	0.888506	0.764244	-3.017858
N	-0.621792	-1.232285	0.555242
O	0.079218	-2.21717	0.763787
O	-1.841688	-1.189403	0.755781
N	-0.466556	1.130485	0.753487
H	-1.357236	1.478065	0.426961
H	0.236001	1.851146	0.672318
F	2.661494	0.0	0.0
