18

C	-0.166781	0.028886	-1.514182
C	0.0	0.0	0.0
F	-1.508337	0.168074	-1.901232
H	1.092102	0.0	0.0
C	0.615543	1.221645	-2.031779
H	0.158491	2.160611	-1.71539
H	0.631142	1.175353	-3.120127
H	1.623547	1.144448	-1.616125
N	0.372452	-1.15938	-2.141029
H	-0.107537	-1.9642	-1.754185
H	1.342856	-1.197371	-1.826616
N	-0.505401	-1.265005	0.632441
O	-1.416689	-1.901643	0.084295
O	-0.001678	-1.581006	1.706304
N	-0.561832	1.099626	0.735275
H	-1.24457	1.59751	0.181008
H	0.179975	1.719859	1.026209
F	2.655985	0.0	0.0
