18

C	-0.41525	-0.107894	-1.477054
C	0.0	0.0	0.0
F	-0.199666	1.203802	-1.952638
H	1.09886	0.0	0.0
C	0.528922	-0.995142	-2.256539
H	1.537544	-0.781704	-1.890207
H	0.306578	-2.048053	-2.090772
H	0.42937	-0.758945	-3.318355
N	-1.809654	-0.379368	-1.723424
H	-2.336038	0.165057	-1.043965
H	-1.97045	-1.359116	-1.523432
N	-0.419006	-1.186829	0.770601
O	-0.539025	-2.27332	0.192871
O	-0.562123	-1.053441	1.989418
N	-0.631913	1.167627	0.610248
H	-0.335564	1.179971	1.579564
H	-0.187183	1.959952	0.162271
F	2.609567	0.0	0.0
