15
Coordinates from ORCA-job run
  C   -0.36236104562088     -0.01686619420515      0.38653546893988
  C   0.90599252933753     -0.40231727450586     -0.36961288106919
  Br  0.00012435953363     -0.33456867378057      2.34445324728011
  H   0.69076557278392     -0.43922422420977     -1.43987965190528
  H   1.29841479765390     -1.35130010746998     -0.01285232618305
  N   -0.69175474894031      1.34371242098561      0.18692283595430
  H   -1.67899819394555      1.53660169419663      0.25115286561003
  H   -0.25142827732909      1.78352567113547     -0.60681969553891
  C   -1.46942005601410     -0.99589199563140      0.01378493312112
  H   -2.35785043363536     -0.79551245970098      0.61572500041948
  H   -1.72015965970456     -0.85772818710121     -1.04285654484343
  H   -1.17296120969013     -2.03198640972387      0.18661885176644
  N   1.99896496229538      0.59943017641565     -0.20652356082458
  O   1.92200354249457      1.61174249833381     -0.90595726382528
  O   2.88866786078106      0.35038306526162      0.59930872109837
