15
Coordinates from ORCA-job run
  C   -0.47284890347235      0.21771618260081      0.32498725430853
  C   1.04109332747208      0.33125226786167      0.47555233624534
  Br  -1.12771171876647      0.96794323494540      2.12610562121913
  H   1.40389296586417     -0.33106414985052      1.25943500369631
  H   1.34100777818130      1.35999616301193      0.66694587923733
  N   -0.90434132441641      0.97046010732959     -0.77666384707643
  H   -0.58589237268047      1.93052634361134     -0.77009968239659
  H   -1.90457237712537      0.92979675582158     -0.91705186467858
  C   -0.99698959819228     -1.20273787291859      0.25901961170769
  H   -0.64007604581404     -1.67313917225989     -0.65839290217903
  H   -2.08886432673937     -1.19631814823854      0.25909710620145
  H   -0.65881625362656     -1.78355253538255      1.11644588028001
  N   1.70483122276969     -0.07275675907248     -0.80121153122924
  O   2.07807108298081      0.82940032357856     -1.54677896431503
  O   1.81021654356526     -1.27852274103829     -1.01738990102089
