15
Coordinates from ORCA-job run
  C   -0.49856842195858      0.22755026645217      0.47682600312934
  C   1.03985444773644      0.31245565274449      0.46706030364731
  Br  -0.95896681333254      0.65461756447084      2.35115423652853
  H   1.36781043115831      1.34055995844155      0.62031702971895
  H   1.48522722164804     -0.35716366390076      1.19963964757128
  N   -1.18571516274774      1.17674210094846     -0.35141666867536
  H   -0.84866196911487      2.11853035317129     -0.18933100283127
  H   -1.03721390845384      0.95071891219554     -1.32879521850091
  C   -0.98554931357836     -1.17432335776636      0.16179965864392
  H   -0.50798683380755     -1.91469065861281      0.80400733413819
  H   -0.75466745714869     -1.42317849265588     -0.87900024500197
  H   -2.06572193566479     -1.21645366222940      0.29660216688778
  N   1.54080785538259     -0.11841000097966     -0.86867573975026
  O   1.39809659327224      0.67516522773347     -1.80015701236394
  O   2.01125526660933     -1.25112020001295     -0.96103049314158
