15
Coordinates from ORCA-job run
  C   -0.43388521229448      0.33924569040448      0.46422119966788
  C   1.09432549506208      0.34652824881527      0.42890293980772
  Br  -0.87406882748860      0.85544975399829      2.33539160990207
  H   1.45992727006395      1.37369864464291      0.43799385750510
  H   1.51395907731058     -0.23621127336372      1.24409029030072
  N   -0.94500856224390      1.36146087122295     -0.39934223308231
  H   -1.94203318986036      1.25628068378683     -0.53950881303649
  H   -0.46646142425885      1.33613902087671     -1.29267331374761
  C   -1.00267847456020     -1.05648469869411      0.24476869881307
  H   -0.56822884856768     -1.78755331951097      0.92908564018331
  H   -0.80338334068583     -1.36908849259484     -0.78493365763431
  H   -2.08377194963664     -1.04292486783643      0.39475437363086
  N   1.57448022301376     -0.29390747595985     -0.83319548728704
  O   2.11103778787395     -1.39504714003827     -0.74329235509336
  O   1.36578997627222      0.31341435425078     -1.88526274992963
