15
Coordinates from ORCA-job run
  C   -0.48343301581659      0.26540766922030      0.28777067767815
  C   0.83066841109322      0.48113422743275     -0.47656544846071
  Br  -0.17959394396668      0.85324076965129      2.14331556330448
  H   1.11786175381149      1.53110757459285     -0.44653426604955
  H   0.68813749828722      0.14585619542724     -1.50713863613781
  N   -1.52910574421648      1.10075752922645     -0.25122396786307
  H   -1.23753869059611      2.06724584093684     -0.33659376481609
  H   -1.82663797237052      0.75202462312620     -1.15580093973745
  C   -0.96195409997639     -1.17322312015168      0.30296773628387
  H   -1.08018950505659     -1.52911112616066     -0.72640453636937
  H   -0.25827524532766     -1.83112085260684      0.80659521551309
  H   -1.92730022876796     -1.21062974464849      0.80768655377888
  N   1.99250966272120     -0.28864069428422      0.05303656153371
  O   2.87789062432999      0.34197365419752      0.62473576842449
  O   1.97696049585186     -1.50602254595953     -0.12684651708262
