15
Coordinates from ORCA-job run
  C   -0.40540212897301      0.36454222702245      0.23829949845143
  C   0.91697592449382      0.49780797708343     -0.51844739148236
  Br  -0.16538186145866      1.07785157982904      2.05055082742628
  H   0.75487658907748      0.20603120367793     -1.55873924859509
  H   1.27779570055107      1.52081093672266     -0.45191288251438
  N   -1.31295125837711      1.27246967195479     -0.44944845746062
  H   -1.61977390511014      0.83035183663904     -1.31198859449350
  H   -2.13426195177366      1.43440677608458      0.12226678968068
  C   -0.91231497679779     -1.06473716592156      0.35808029424314
  H   -1.01126348671759     -1.49554405061044     -0.64356861834914
  H   -0.24361738519961     -1.70169576752532      0.93531761489705
  H   -1.89225730417123     -1.05760630720573      0.83891608009073
  N   1.98402940360776     -0.39937893143565      0.00008321914078
  O   2.83125203245850      0.09460204877800      0.73983323677150
  O   1.93229460839016     -1.57991203509321     -0.34724236780650
