15
Coordinates from ORCA-job run
  C   -0.41084429849563      0.36284067881677      0.23131889218056
  C   0.93476186768707      0.50213203565377     -0.48239501118593
  Br  -0.22453048513521      1.04669288797760      2.06099648653808
  H   0.80330929941082      0.22799333755603     -1.53173579291058
  H   1.29753526277572      1.52229835635667     -0.38830741792698
  N   -1.29362896153831      1.28500572013614     -0.46988085436524
  H   -2.12978457709277      1.44448459244266      0.08059552371308
  H   -1.57849677625943      0.85584525850761     -1.34638261762560
  C   -0.92636448501213     -1.06608102371022      0.31250906520807
  H   -0.27769195348197     -1.71496063843487      0.89929058907078
  H   -1.92044525386619     -1.06263602609315      0.76341445701560
  H   -0.99650488934684     -1.48030344271613     -0.69854612339210
  N   1.98112656248014     -0.40825366651643      0.05422910400752
  O   2.80483757361772      0.06885998438750      0.83079399597251
  O   1.93772111425701     -1.58191805436394     -0.31690029629979
