15
Coordinates from ORCA-job run
  C   -0.36364645422523      0.05099907151262      0.38045612263497
  C   0.97337606248833     -0.37176014338159     -0.22403938698047
  Br  -0.06535506079920      0.40867072780360      2.32993096860625
  H   1.47016684563230     -1.09837120243878      0.41456473182515
  H   0.80362745792009     -0.78015692036368     -1.22265965585109
  N   -0.83810570379912      1.24191913580171     -0.22975080622745
  H   -1.83212086316390      1.37488399034866     -0.11937276513700
  H   -0.53207938852936      1.37486755933961     -1.18271631549009
  C   -1.32184806346760     -1.13407742343224      0.31818427287658
  H   -0.91898547264212     -2.01274763980300      0.82548227259513
  H   -2.26653316774349     -0.87015297388162      0.79760748217269
  H   -1.51776742783744     -1.37553200776398     -0.73156647627797
  N   1.90706149583341      0.77521384292077     -0.40199817280726
  O   1.74705587122142      1.45506745015739     -1.41715187942513
  O   2.75615386911190      0.96117653318053      0.46302960748570
