15
Coordinates from ORCA-job run
  C   -0.48035685682418      0.27514698919483      0.28439796584417
  C   0.83663437377273      0.46432483049383     -0.48267323794641
  Br  -0.17125009616373      0.88397033015555      2.13180575877389
  H   0.68944367762720      0.11625027636645     -1.50829928972182
  H   1.13588453266434      1.51125966236065     -0.46768194417469
  N   -1.51595144643470      1.11536193105745     -0.26654159068983
  H   -1.81657599212125      0.75835226078367     -1.16686133474963
  H   -1.21312030841695      2.07723375635153     -0.36416623499221
  C   -0.97548686513903     -1.15762628238613      0.31799094027160
  H   -0.27808386002334     -1.81729253129918      0.82805256595110
  H   -1.94026327328355     -1.17842482994573      0.82473063290145
  H   -1.10004637633212     -1.52434641942486     -0.70685678574522
  N   1.98856108587721     -0.31163209754831      0.05837003188852
  O   2.87842410335482      0.31609512418253      0.62647938350586
  O   1.96118730144255     -1.53067300034228     -0.10874686111679
