15
Coordinates from ORCA-job run
  C   -0.48462931057452      0.26643402555591      0.28566413200519
  C   0.83216147378308      0.47902641693407     -0.47520966507800
  Br  -0.18909971511283      0.86119410904967      2.13962711999242
  H   1.11894022546083      1.52924456510727     -0.44918268733845
  H   0.69265800073413      0.13912767604967     -1.50465539283468
  N   -1.52889760244172      1.09963512088259     -0.26060916935985
  H   -1.81717838702060      0.75040685422370     -1.16813433236316
  H   -1.23722215921251      2.06631989178059     -0.34463221187842
  C   -0.96250589592282     -1.17242728815832      0.30374174736251
  H   -1.92856628699285     -1.20947612252027      0.80707783186789
  H   -1.07958654125984     -1.53050349711456     -0.72502538485336
  H   -0.25890137956539     -1.82879587288215      0.80953247441454
  N   1.99182525354421     -0.28835651692118      0.06179548770763
  O   1.97973533552874     -1.50584100290724     -0.11822330325236
  O   2.87226698905211      0.34401164092025      0.63923335360811
