12

C	-0.469968	-0.111334	-1.432686
C	0.0	0.0	0.0
F	0.015473	0.95179	-2.173886
H	1.091074	0.0	0.0
H	-1.558047	-0.108827	-1.528357
H	-0.047131	-1.030338	-1.842937
C	-0.474605	-1.13663	0.765549
N	-0.849404	-2.091457	1.341569
N	-0.530891	1.231874	0.655203
O	-1.450156	1.843976	0.106358
O	-0.012018	1.562317	1.717833
F	2.474082	0.0	0.0
