12

C	-0.315501	0.086603	-1.4952
C	0.0	0.0	0.0
F	-0.169708	-1.173027	-2.054638
H	1.090544	0.0	0.0
H	-1.338686	0.424224	-1.693219
H	0.41064	0.755075	-1.954215
C	-0.5978	-1.14743	0.641325
N	-1.070784	-2.108182	1.125591
N	-0.435384	1.24984	0.635538
O	-0.919221	1.22805	1.766441
O	-0.235839	2.279185	-0.014576
F	2.464742	0.0	0.0
