12

C	-0.47202	-0.081654	-1.435389
C	0.0	0.0	0.0
F	-0.054023	1.051331	-2.117751
H	1.091057	0.0	0.0
H	-1.559784	-0.136072	-1.525186
H	0.00492	-0.953128	-1.892761
C	-0.503912	-1.141323	0.740328
N	-0.910361	-2.088559	1.306919
N	-0.569523	1.234079	0.645443
O	0.110038	1.787045	1.500911
O	-1.692948	1.603562	0.289549
F	2.49189	0.0	0.0
