12

C	-0.256762	-0.011057	-1.47573
C	0.0	0.0	0.0
F	-1.615473	-0.04138	-1.807357
H	1.094338	0.0	0.0
H	0.182814	0.88299	-1.912594
H	0.2164	-0.901999	-1.890245
C	-0.549393	-1.144691	0.691983
N	-0.952256	-2.124275	1.201585
N	-0.435671	1.260811	0.636112
O	-0.817038	1.223606	1.806543
O	-0.32462	2.293295	-0.024925
F	2.457252	0.0	0.0
