12

C	-0.384452	-0.037999	-1.475286
C	0.0	0.0	0.0
F	-0.257397	-1.343853	-1.927237
H	1.090992	0.0	0.0
H	-1.416856	0.28015	-1.651361
H	0.311395	0.587567	-2.031852
C	-0.572523	-1.084476	0.763971
N	-1.038303	-1.974679	1.374018
N	-0.386836	1.295818	0.578371
O	-0.450364	2.249955	-0.205149
O	-0.552452	1.384109	1.793871
F	2.458869	0.0	0.0
