12

C	-0.493318	-0.108562	-1.425295
C	0.0	0.0	0.0
F	0.202888	0.728925	-2.274442
H	1.091064	0.0	0.0
H	-1.555086	0.141739	-1.513625
H	-0.321688	-1.136215	-1.755401
C	-0.462512	-1.135832	0.772116
N	-0.819663	-2.104677	1.334916
N	-0.448564	1.244922	0.66156
O	-0.357085	1.301787	1.887245
O	-0.835822	2.170928	-0.054426
F	2.450634	0.0	0.0
