12

C	-0.499317	-0.113922	-1.423128
C	0.0	0.0	0.0
F	0.237681	0.664785	-2.290223
H	1.090502	0.0	0.0
H	-1.545681	0.191466	-1.516043
H	-0.385132	-1.154872	-1.731506
C	-0.464195	-1.125743	0.78646
N	-0.828203	-2.087399	1.356595
N	-0.435972	1.255051	0.646794
O	-0.751127	2.197607	-0.084149
O	-0.402556	1.306138	1.875537
F	2.447976	0.0	0.0
