12

C	-0.493144	-0.109692	-1.425782
C	0.0	0.0	0.0
F	0.220556	0.705291	-2.282285
H	1.091056	0.0	0.0
H	-1.549322	0.16263	-1.516443
H	-0.344304	-1.143416	-1.747925
C	-0.471217	-1.129837	0.775138
N	-0.838886	-2.097067	1.333781
N	-0.439167	1.251505	0.654792
O	-0.785227	2.187591	-0.069125
O	-0.377487	1.304666	1.88279
F	2.449517	0.0	0.0
