15
Coordinates from ORCA-job run
  C   -0.50060629177337     -0.41099196475797      0.06085117353128
  C   0.97431742312919     -0.31008104028078     -0.35200852294002
  H   -0.55093149850546     -1.07660806097992      0.92792224665754
  H   1.10225168576582      0.34482567285472     -1.21435606065349
  H   1.38948941892600     -1.29956995592664     -0.55151152466337
  N   -1.32128326041141     -0.99732239644312     -0.99081774163157
  H   -1.29767171916911     -0.41678843474234     -1.82180565368159
  H   -0.98751797620104     -1.92013212352836     -1.24297968324728
  C   -1.06123664951070      0.94956093238741      0.44233318896901
  H   -2.11787778004900      0.84497646042610      0.69074978342309
  H   -0.96991488502826      1.65313361539119     -0.39162219389151
  H   -0.54113758874974      1.37853370587052      1.30054836795580
  N   1.77530087840167      0.27134290916286      0.75778250996720
  O   1.89135970050170     -0.42259005843795      1.76702108373135
  O   2.21445854267370      1.41171073900428      0.61789302647356
