15
Coordinates from ORCA-job run
  C   -0.55660453171274     -0.34605181806018      0.22995963656734
  C   0.90548801873097     -0.44266897101227      0.66125349465787
  H   -1.09958981566287     -0.98727628663662      0.94639147583847
  H   1.23826709769224     -1.48047309822078      0.69326434637571
  H   1.06341864608857      0.03668126347056      1.62791387788312
  N   -0.65705965896144     -0.80274532472051     -1.15081790895339
  H   -0.35276318085888     -1.76529100263619     -1.24145014154655
  H   -1.61821506711480     -0.74863925296830     -1.46459183223659
  C   -1.12649604599839      1.06110664620479      0.33195851776420
  H   -2.19508590134325      1.04460509235357      0.09928005671442
  H   -1.00893851332996      1.46270073173284      1.34084390490810
  H   -0.62722820247950      1.72605367840262     -0.37171852615176
  N   1.79458769000837      0.24034902592940     -0.31813366239621
  O   2.40603944913095     -0.46683473168173     -1.11435811197888
  O   1.83618001581075      1.46848404784278     -0.26979512744585
