15
Coordinates from ORCA-job run
  C   -0.46645645489859     -0.19509028794918      0.08138976029713
  C   0.91982623217902      0.32194894518026      0.40489512832437
  H   -0.65097135655965     -1.08965466101024      0.69217464511485
  H   1.04321417577814      0.54479768908266      1.46815519139885
  H   1.15238043765852      1.20796442194474     -0.18566790262237
  N   -0.53476423852920     -0.46068715451112     -1.35383177532573
  H   -1.50222917008295     -0.56932082316138     -1.63375284268009
  H   -0.06350178645563     -1.33444993274831     -1.55568398733762
  C   -1.48363991297852      0.87804086635868      0.44511528890473
  H   -1.32503772031678      1.76827639350865     -0.16814525305422
  H   -1.41529757069808      1.15534399602381      1.49948963756925
  H   -2.49882211689737      0.51599392566543      0.26246656907660
  N   1.99960171776030     -0.66741361812139      0.08367116067614
  O   3.13741455466155     -0.22105545981321     -0.01611044733446
  O   1.68928320937925     -1.85369430044941     -0.02116517300745
