15
Coordinates from ORCA-job run
  C   -0.56427873309775     -0.34092655965702      0.21901801368900
  C   0.88344969065165     -0.42969245591652      0.69803983144751
  H   -1.12991520298241     -0.96806385071556      0.93040960493842
  H   1.21379690367411     -1.46679826184583      0.76172828201552
  H   1.01134181725690      0.06952233616649      1.65904256669800
  N   -0.62201330467066     -0.82391074697285     -1.15516964480852
  H   -1.57338879639863     -0.77880618350853     -1.49868744713770
  H   -0.31233380353529     -1.78690481963174     -1.21862575635545
  C   -1.13564966769898      1.06811138616902      0.27628564579042
  H   -1.05286748695882      1.48729742345296      1.28149678600768
  H   -2.19550799173061      1.04829143995512      0.00686681016583
  H   -0.61148264846811      1.72040688326443     -0.42109891837984
  N   1.80393607288981      0.23223982894167     -0.26682352123424
  O   1.84778252309752      1.46101125336954     -0.24112942971212
  O   2.43713062797126     -0.49177767307119     -1.03035282312451
