16

C	0.0	0.0	0.0
C	-0.405175	-0.228109	-1.44917
F	1.4376	0.0	0.0
H	-0.05381	0.616818	-2.064495
H	-1.499842	-0.23479	-1.402302
C	-0.450059	1.358684	0.483321
H	-1.543574	1.338837	0.425621
H	-0.024317	2.149495	-0.141716
H	-0.114555	1.492247	1.514745
N	-0.505243	-1.01216	0.875689
H	-1.525969	-0.814141	0.810318
H	-0.368953	-1.893534	0.385512
N	0.111625	-1.524099	-1.910125
H	-0.308495	-1.753704	-2.801772
H	1.111203	-1.437564	-2.048451
F	-2.927773	0.0	0.0
