16

C	0.0	0.0	0.0
C	-0.421607	0.004471	-1.462199
F	1.412435	0.0	0.0
H	-1.512457	0.089031	-1.408406
H	-0.154271	-0.986116	-1.877506
C	-0.442618	1.263968	0.707017
H	-1.53569	1.248992	0.676118
H	-0.076195	1.230832	1.736688
H	-0.043347	2.138517	0.191698
N	-0.530716	-1.131171	0.703846
H	-0.379508	-1.957727	0.128279
H	-1.554811	-0.921686	0.646778
N	0.181314	1.114671	-2.206951
H	1.182474	0.960112	-2.2443
H	-0.167777	1.103977	-3.157883
F	-2.933794	0.0	0.0
