16

C	0.0	0.0	0.0
C	-0.431003	0.106749	-1.45838
F	1.404035	0.0	0.0
H	-1.525211	0.099625	-1.394212
H	-0.078926	1.065048	-1.876129
C	-0.463585	1.211194	0.77963
H	-0.046823	2.127194	0.348764
H	-1.556931	1.196787	0.721628
H	-0.124035	1.112325	1.813909
N	-0.510301	-1.186047	0.626061
H	-0.367427	-1.934073	-0.049363
H	-1.530458	-0.983278	0.602327
N	0.056593	-1.05672	-2.212171
H	1.038825	-0.925653	-2.419628
H	-0.441926	-1.118061	-3.090308
F	-2.946468	0.0	0.0
