16

C	0.0	0.0	0.0
C	-0.459301	0.185766	-1.442678
F	1.398875	0.0	0.0
H	-0.01551	-0.629683	-2.029173
H	-1.545848	0.059875	-1.3773
C	-0.454157	1.154384	0.867961
H	-0.098548	0.984583	1.887644
H	-0.036584	2.085738	0.48247
H	-1.546755	1.148726	0.828455
N	-0.526853	-1.2212	0.551201
H	-0.367907	-1.964056	-0.127432
H	-1.548423	-1.016465	0.521297
N	-0.061586	1.486308	-2.01919
H	0.239675	1.353832	-2.978043
H	-0.886996	2.075595	-2.050784
F	-2.957732	0.0	0.0
