16

C	0.0	0.0	0.0
C	-0.436633	0.062146	-1.453262
F	1.416368	0.0	0.0
H	-0.192744	-0.917752	-1.891648
H	-1.523697	0.179762	-1.405087
C	-0.417006	1.24635	0.761625
H	-1.51044	1.222802	0.760957
H	-0.023064	1.191611	1.783954
H	-0.037463	2.145917	0.273825
N	-0.532349	-1.211552	0.557593
H	-0.381847	-1.170756	1.563244
H	-1.555628	-1.033468	0.41876
N	0.202732	1.187521	-2.148218
H	-0.15246	1.2213	-3.096519
H	1.195256	0.9912	-2.203625
F	-2.927765	0.0	0.0
