16

C	0.0	0.0	0.0
C	-0.233059	-0.143814	-1.527513
F	1.402741	0.0	0.0
H	0.474876	-0.937396	-1.800257
H	0.17596	0.785925	-1.946403
C	-0.490419	1.309541	0.584386
H	-1.58301	1.268826	0.500514
H	-0.197232	1.380272	1.63808
H	-0.079065	2.1688	0.044554
N	-0.516586	-1.157087	0.675486
H	-1.53541	-1.072697	0.51896
H	-0.385224	-1.014197	1.673253
N	-1.563639	-0.444194	-2.037935
H	-2.270194	-0.318475	-1.284463
H	-1.790986	0.225893	-2.760916
F	-3.113008	0.0	0.0
