16

C	0.0	0.0	0.0
C	-0.395372	0.048688	-1.508897
F	1.396125	0.0	0.0
H	0.527626	-0.105642	-2.081111
H	-0.761366	1.06451	-1.727896
C	-0.450532	1.252376	0.723771
H	-0.133691	1.192788	1.768247
H	-1.540502	1.273652	0.647239
H	-0.000652	2.134359	0.258349
N	-0.498749	-1.145567	0.702701
H	-1.510084	-0.941121	0.743336
H	-0.43534	-1.929267	0.057713
N	-1.364554	-0.99301	-1.848809
H	-1.61019	-0.877005	-2.826869
H	-2.194567	-0.73895	-1.27585
F	-2.986215	0.0	0.0
