16

C	0.0	0.0	0.0
C	-0.414047	0.366421	-1.423214
F	1.431251	0.0	0.0
H	-1.505562	0.41278	-1.400342
H	-0.001193	1.353966	-1.660805
C	-0.421539	1.065907	0.993868
H	-0.059243	0.800624	1.994738
H	-0.013434	2.045773	0.723658
H	-1.515721	1.059735	0.960536
N	-0.528636	-1.299945	0.296718
H	-0.341869	-1.499614	1.275877
H	-1.554053	-1.087962	0.225048
N	0.047754	-0.591247	-2.434913
H	1.039996	-0.727825	-2.263794
H	-0.378318	-1.477382	-2.183345
F	-2.904265	0.0	0.0
