19
Coordinates from ORCA-job run
  C   -0.84525729007298      0.04901430721663     -0.42993583980534
  C   0.68869305283593     -0.12402448508704     -0.41408544670562
  Br  -1.57168818423139     -0.75534682322770     -2.05293119655066
  H   1.00734943226660      0.21020109590112     -1.40839244850630
  N   -1.40344351187818     -0.70951678109968      0.77489952201375
  O   -1.76736050367436     -1.87011200059291      0.64749353534991
  O   -1.35907047235177     -0.08663982144945      1.83598729060437
  C   -1.32422091315206      1.48674603609699     -0.37049368834985
  H   -1.02030624167797      1.95257825844945      0.56444074622820
  H   -2.41185351053612      1.52630942977842     -0.44547540947447
  H   -0.89798025499272      2.03825644332326     -1.21033623251464
  C   1.11443386678122     -1.58045379980059     -0.23303937426946
  H   2.18738555834084     -1.66749673939304     -0.41876576519722
  H   0.59388314873452     -2.25208361638083     -0.91578420107546
  H   0.92731852007820     -1.91947322489785      0.78933512026533
  C   1.37710953525539      0.76270904777290      0.62652759708524
  H   1.02851396933497      0.54037148526440      1.63665034383635
  H   2.45263599848543      0.57251735440064      0.59119707456635
  H   1.22585780045446      1.82544383372526      0.43270837249953
