16

C	0.0	0.0	0.0
C	-0.427088	0.004326	-1.467642
Br	1.992877	0.0	0.0
H	-0.022214	-0.895533	-1.945274
H	-1.521099	-0.099287	-1.399769
N	-0.501638	1.176707	0.635749
H	-1.528091	1.0928	0.479141
H	-0.359738	1.051659	1.63491
N	-0.428687	-1.180757	0.714243
H	-1.460119	-1.095652	0.676512
H	-0.165931	-2.007412	0.183717
C	-0.065295	1.25109	-2.261371
H	-0.463019	2.136438	-1.76488
H	1.016774	1.369653	-2.354517
H	-0.494221	1.19545	-3.26778
H	-3.055901	0.0	0.0
