16

C	0.0	0.0	0.0
C	-0.458803	-0.068431	-1.44314
Br	2.04258	0.0	0.0
H	-1.554454	0.029036	-1.33164
H	-0.065409	0.805125	-1.96713
N	-0.53412	1.175066	0.58527
H	-0.321047	1.191732	1.579795
H	-1.570873	1.015265	0.48564
N	-0.368397	-1.192486	0.692229
H	0.179209	-1.991851	0.400747
H	-0.291167	-1.072152	1.693615
C	-0.142012	-1.360746	-2.177993
H	-0.693844	-2.191824	-1.731338
H	-0.463658	-1.283755	-3.220772
H	0.927329	-1.592466	-2.172227
H	-3.177884	0.0	0.0
