16

C	0.0	0.0	0.0
C	-0.426873	-0.042493	-1.468121
Br	1.995092	0.0	0.0
H	-1.520937	-0.142624	-1.399912
H	-0.013937	-0.950511	-1.916643
N	-0.44301	1.158465	0.736169
H	-0.168236	2.00888	0.25407
H	-1.474662	1.070722	0.683397
N	-0.476916	-1.19643	0.623815
H	-0.331929	-1.078694	1.623634
H	-1.50268	-1.133059	0.476692
C	-0.083937	1.183666	-2.300392
H	-0.416869	1.038427	-3.332376
H	-0.599378	2.069871	-1.921584
H	0.990321	1.383403	-2.316369
H	-3.058255	0.0	0.0
