16

C	0.0	0.0	0.0
C	-0.429989	0.027336	-1.468249
Br	1.995191	0.0	0.0
H	-0.017015	0.930621	-1.92724
H	-1.52386	0.130467	-1.398158
N	-0.4742	1.205221	0.610105
H	-1.500734	1.140296	0.466071
H	-0.326638	1.102234	1.611003
N	-0.438778	-1.152172	0.75037
H	-1.470715	-1.072259	0.69766
H	-0.158162	-2.007707	0.280648
C	-0.090287	-1.208404	-2.287031
H	0.983509	-1.411638	-2.301262
H	-0.424006	-1.074289	-3.320407
H	-0.608287	-2.088541	-1.896679
H	-3.073113	0.0	0.0
