16

C	0.0	0.0	0.0
C	-0.387624	-0.042338	-1.471932
Br	2.079859	0.0	0.0
H	-1.484289	-0.128815	-1.42203
H	0.020112	-0.957939	-1.908948
N	-0.415851	1.161699	0.730003
H	-0.132356	2.004978	0.245887
H	-1.446994	1.084734	0.684707
N	-0.475046	-1.181124	0.629813
H	-0.350569	-1.048118	1.62878
H	-1.503767	-1.132281	0.463832
C	-0.020416	1.174348	-2.305486
H	1.059828	1.343617	-2.322496
H	-0.36418	1.037826	-3.338063
H	-0.512576	2.075744	-1.924599
H	-3.004903	0.0	0.0
