16
Coordinates from ORCA-job run
  C   -0.55953392615741     -0.52066219201376      0.24673898116275
  C   0.82513125498804      0.17719820188459      0.36007024439091
  Cl  -1.28514815197887     -0.60804331929118      1.88048282703142
  H   1.40956574742103     -0.41649909224497      1.06630429745703
  N   -0.36389554872056     -1.77779114685471     -0.37701325699802
  H   -1.24537624936855     -2.22315661302118     -0.60449066759602
  H   0.15975387322004     -2.39080897787800      0.23677975733918
  N   -1.50175257874513      0.29261428635259     -0.66312300363570
  O   -2.45852568998524      0.86575022758547     -0.17010890432246
  O   -1.17590363746935      0.29568605739121     -1.84621945420755
  N   0.65007384944592      1.51757355096167      1.01197570030917
  O   0.05394258037676      2.35303641457918      0.33602707738555
  O   1.12736321955232      1.68105988669937      2.12812248666814
  N   1.55987848266617      0.38453683999475     -0.84256407159858
  H   0.99248937055651      0.87909266792574     -1.52067857355191
  H   1.81193740419831     -0.51058679207079     -1.24130343983392
