16
Coordinates from ORCA-job run
  C   -0.72203480441207     -0.30019549028923      0.11759603577013
  C   0.71674153570398      0.27474045762937     -0.06248823079741
  Cl  -1.55220272816989      0.57147408270850      1.39381879750971
  H   1.21450204755053     -0.34995469889925     -0.80538960393996
  N   -0.88363418063959     -1.70059400428008      0.30713920959238
  H   -0.34232813151219     -2.20655920256329     -0.38419161630640
  H   -0.57378860914364     -1.97005645364545      1.23185084981231
  N   -1.37086438423797      0.00787057507636     -1.24650517761656
  O   -2.25253486519203      0.84396212927569     -1.33942542167040
  O   -0.87218875383853     -0.64056051991094     -2.16390797533960
  N   1.44798607141160      0.00921537973360      1.23452001233348
  O   1.61677180021437      0.94811101218340      2.00016491498688
  O   1.78225793021224     -1.16043008780214      1.42786300529435
  N   0.83144666676042      1.63874179806046     -0.41455263078955
  H   0.21911694911323      2.24569641018617      0.11135695114294
  H   0.74175345617954      1.78953861253681     -1.40784911998230
