16
Coordinates from ORCA-job run
  C   -0.59358274148139     -0.55769892507078      0.04595758279591
  C   0.57748487912375      0.30551185870088      0.52263091501478
  Cl  -0.64988497163199     -1.99237911377563      1.20453513235040
  H   0.36184544092400      0.68531979418000      1.52644335833517
  N   -0.44793641144435     -0.87142316751920     -1.29221359051573
  H   0.45651980280513     -1.29556582567725     -1.45679140391272
  H   -1.21651134861026     -1.40432661134470     -1.67319954563671
  N   -1.94084575421405      0.11283560141108      0.29662602055686
  O   -2.79786345287821     -0.05254787900854     -0.55969124470102
  O   -2.06145701042937      0.70788736515231      1.35620097069508
  N   0.63951623525763      1.54283059638730     -0.36019867348904
  O   1.74290497391439      1.91104267679775     -0.74896954755714
  O   -0.42411961805273      2.10582062735733     -0.57693724944965
  N   1.79868354513901     -0.43583495208628      0.35265133906657
  H   2.55762564605572      0.21092431766794      0.17662036565084
  H   1.99762078552272     -0.97339636317220      1.18533557079639
