16
Coordinates from ORCA-job run
  C   -0.69802661685475     -0.28692113888900      0.21892700378580
  C   0.65477357119520      0.30952278448528     -0.19190361074719
  Cl  -1.50961384089589      0.69079952492639      1.43351343491367
  H   1.05881335646162     -0.31137364065329     -0.99233180609390
  N   -0.56928256272907     -1.60825895191219      0.67836590202157
  H   -0.09065966601711     -2.19551652640464      0.00766959737232
  H   -1.45696152749663     -2.00965985963985      0.95026778675120
  N   -1.52936197275660     -0.19939314337146     -1.11699126584465
  O   -2.51044296879379      0.51673630616612     -1.19627835666208
  O   -1.07914843888618     -0.93416362843697     -1.99232752134754
  N   1.62780268665660      0.09652001990852      0.96753469044919
  O   1.71146273797363      0.99709626190205      1.79674840735368
  O   2.25882708740564     -0.95612956189507      0.96252574068354
  N   0.51254027102635      1.64669792095711     -0.61497334478891
  H   0.26860717478922      2.25595270150601      0.15532057519199
  H   1.34967070892177      1.98709093135099     -1.06706723303870
