19
Coordinates from ORCA-job run
  C   0.68587775904857      0.20539702839718      0.01562840321514
  C   -0.80376264971986     -0.18677514601894     -0.02445234884701
  Cl  0.86605846372160      1.94993440858352      0.42449821144378
  H   -0.84017263188473     -1.20014355331031     -0.43242152358056
  C   1.44860991244188     -0.59537755009422      1.06194239563093
  H   1.31467671602987     -1.66654755285538      0.88866252131042
  H   1.10679077589486     -0.36308224945730      2.07100143544615
  H   2.51119676596854     -0.35493929446063      1.00060583371743
  C   1.29503411835002     -0.00590319462244     -1.36545582358131
  H   2.34823255993116      0.27879872723908     -1.34642131429994
  H   0.79902751355621      0.59735562787957     -2.12601776256999
  H   1.22631284270132     -1.06135601316895     -1.64541601605366
  C   -1.73428204402503      0.73725910701063     -0.78429193427114
  H   -1.77962034285426      1.71366058996357     -0.30730092756410
  H   -1.39591345113329      0.85742106879361     -1.81387758733855
  H   -2.73908106371486      0.30952391335681     -0.80501696896181
  N   -1.31761618369244     -0.35932945289905      1.37581346565229
  O   -1.33354118415082     -1.50658437855749      1.82298324428133
  O   -1.65682787646871      0.64968791422075      1.98853669637061
