19
Coordinates from ORCA-job run
  C   0.67755941653663      0.22840071953360      0.04614129799713
  C   -0.79523626242432     -0.21527278484138     -0.05238399940546
  Cl  0.78114463546703      1.97978466867880      0.45121988201609
  H   -0.77860515275378     -1.23658879441012     -0.44154362812696
  C   1.42363546804466     -0.54055623380522      1.12770651018741
  H   1.03292455456986     -0.31639656847690      2.12063411656260
  H   1.33401341727089     -1.61647333628383      0.95534799374243
  H   2.47890955415861     -0.26359635419737      1.10834703266819
  C   1.34918787111070      0.03185805515353     -1.30791534667363
  H   0.86882299510251      0.62100487766536     -2.08921711043517
  H   2.39256440628868      0.34518868601642     -1.24581518368938
  H   1.32088826952360     -1.02530619556431     -1.58849298352219
  C   -1.72026935897783      0.66137168078404     -0.87251860607395
  H   -1.80305689937139      1.65246293234215     -0.43228794086712
  H   -2.71435245290975      0.21039449216129     -0.90971343771757
  H   -1.35193943805648      0.75219852869950     -1.89483123366846
  N   -1.36594436151249     -0.37916769439913      1.32648568244973
  O   -1.77733999403545      0.62746909685161      1.89766666407195
  O   -1.35390666803167     -1.51577577590803      1.80017029048435
