19
Coordinates from ORCA-job run
  C   0.66783595368514      0.13855409317008     -0.21836181512664
  C   -0.78592345108994     -0.14226857026479      0.20930923483009
  Cl  0.70843568577282      0.87749661478054     -1.85994421600472
  H   -0.72323945145456     -0.70284364165536      1.14570400436644
  C   1.35879140211991      1.10095738710268      0.73771781189213
  H   1.30276814447089      0.72092954882548      1.76129899938252
  H   0.90170109312086      2.09040002580727      0.71218981666664
  H   2.40716763735249      1.20450664744503      0.45325710264167
  C   1.42989642689666     -1.17954707045441     -0.29143712914847
  H   0.99503130262274     -1.86075650398723     -1.02284852086534
  H   1.43399962873103     -1.66315064310895      0.69005008828104
  H   2.46272655849470     -0.98691815734985     -0.58614287053335
  C   -1.66678913177771     -0.86135236806709     -0.79249971323746
  H   -1.78369108406404     -0.27101008090483     -1.69845870297213
  H   -1.23953036209652     -1.83162866007420     -1.04759640383897
  H   -2.65368347993819     -1.03107215939345     -0.35646865120962
  N   -1.44879291168324      1.14167956862992      0.61740096368906
  O   -1.93360222079851      1.84052119551842     -0.26875182322616
  O   -1.43310174036453      1.41650277398072      1.81758182441328
