19
Coordinates from ORCA-job run
  C   0.71326296220220     -0.35711382092204     -0.07355361809544
  C   -0.80726989303639     -0.46497620187264      0.17101771296478
  Cl  1.17405433909751     -1.94599063761085     -0.80715655606089
  H   -0.99131529498847     -1.38580367914830      0.72592052455343
  C   1.10877955161701      0.73466308091427     -1.05242949415301
  H   2.19448576459444      0.74268423853142     -1.16558385295063
  H   0.66875721083426      0.57067706269478     -2.03611864302946
  H   0.78366711267935      1.70698199455289     -0.67756990763362
  C   1.46938670776461     -0.22848272475496      1.24056529645623
  H   2.54092178583523     -0.32524781856301      1.05929467754132
  H   1.28505063751111      0.75184938085997      1.68775177685388
  H   1.16448011850925     -0.99882116557626      1.95111151704735
  C   -1.68463949576783     -0.37927719283704     -1.06163305983684
  H   -1.38559692066240     -1.14213717601076     -1.78105063118490
  H   -2.72684243148693     -0.55621147543894     -0.78708565207780
  H   -1.61344593577642      0.60394661397152     -1.52400828354713
  N   -1.20625241076876      0.61934825790238      1.13342479928032
  O   -1.27372387062265      1.76975693891520      0.70145440830040
  O   -1.41475993753513      0.28515432439237      2.29864898557200
