19
Coordinates from ORCA-job run
  C   0.72586365071078      0.09840068356534      0.37292506238533
  C   -0.78309057282666     -0.17309058727164      0.49483100378375
  Cl  1.27490834346855      0.69997559477595      1.98513683699118
  H   -0.93240671044160     -0.84151305367908      1.34473612843946
  C   1.44683266104082     -1.22020728534719      0.11774112575084
  H   2.52364475001508     -1.06953193530269      0.20849320553011
  H   1.23904565588873     -1.58158364769771     -0.89187030832828
  H   1.14692815394762     -1.98227093630368      0.84062622580895
  C   1.11955053839438      1.13641117161910     -0.66604354822665
  H   2.20720599087411      1.23016592779340     -0.67635090528295
  H   0.79277443029795      0.82381065628975     -1.66066199426676
  H   0.68771308189425      2.11114279861631     -0.44977183198465
  C   -1.43585197867715     -0.73212139951951     -0.75933277797983
  H   -2.50570677609682     -0.86367712118329     -0.58244655743516
  H   -1.01796146854336     -1.70782318691476     -1.00748501078825
  H   -1.31402369748479     -0.05696920742630     -1.60523412822835
  N   -1.53093478346622      1.06923983704809      0.88443980388646
  O   -1.99938722756321      1.11222408348657      2.01923106716961
  O   -1.64610404143247      1.94741760745135      0.03003660277518
