14

C	0.0	0.0	0.0
C	-0.316737	0.19673	-1.505722
Cl	1.771978	0.0	0.0
H	0.305167	1.009732	-1.882188
H	0.046133	-0.71958	-1.98545
N	-0.419485	1.271639	0.756036
O	-0.603748	1.1843	1.957708
O	-0.450183	2.30541	0.096327
N	-0.516026	-1.112799	0.678272
H	-0.246261	-1.945098	0.165655
H	-1.560368	-0.914912	0.560809
C	-1.673978	0.45021	-2.00443
N	-2.491158	0.717929	-2.809323
F	-2.616773	0.0	0.0
