14

C	0.0	0.0	0.0
C	-0.52903	-0.023463	-1.441703
Cl	1.754165	0.0	0.0
H	-0.393391	-1.051138	-1.79364
H	-1.617828	0.14341	-1.280586
N	-0.391214	1.363924	0.626557
O	-0.444364	1.42718	1.844161
O	-0.545959	2.299148	-0.149456
N	-0.555671	-0.997536	0.827657
H	-0.298946	-1.902552	0.448641
H	-1.592755	-0.817298	0.679599
C	0.08797	0.870704	-2.407956
N	0.578194	1.522883	-3.253107
F	-2.769694	0.0	0.0
