14

C	0.0	0.0	0.0
C	-0.539835	0.105463	-1.419563
Cl	1.774146	0.0	0.0
H	-1.642503	0.13254	-1.244509
H	-0.190591	1.024151	-1.888855
N	-0.324855	1.382135	0.701757
O	-0.347385	2.399236	0.019363
O	-0.479076	1.337903	1.915456
N	-0.567308	-1.069935	0.673744
H	-0.308247	-1.035727	1.652475
H	-1.607224	-0.867658	0.551104
C	-0.150234	-1.043531	-2.219981
N	0.13413	-1.946047	-2.915796
F	-2.799896	0.0	0.0
