14

C	0.0	0.0	0.0
C	-0.541292	-0.157508	-1.427214
Cl	1.755738	0.0	0.0
H	-1.643941	-0.081885	-1.231797
H	-0.178792	0.633802	-2.083511
N	-0.405455	1.434765	0.439138
O	-0.769191	1.608201	1.588567
O	-0.253894	2.310894	-0.40899
N	-0.525776	-0.894675	0.953439
H	-0.239959	-1.835371	0.702218
H	-1.559862	-0.762942	0.809228
C	-0.192362	-1.462873	-1.956564
N	0.086359	-2.522819	-2.380983
F	-2.766747	0.0	0.0
