14

C	0.0	0.0	0.0
C	-0.533592	-0.078348	-1.423377
Cl	1.78563	0.0	0.0
H	-1.636114	-0.024789	-1.257917
H	-0.17857	0.769237	-2.007612
N	-0.318347	1.461445	0.516413
O	-0.340476	2.380874	-0.292507
O	-0.472532	1.575346	1.7256
N	-0.567316	-0.972413	0.80498
H	-1.608074	-0.785178	0.654637
H	-0.308568	-0.814045	1.7716
C	-0.145929	-1.323899	-2.064221
N	0.150973	-2.30453	-2.638271
F	-2.7954	0.0	0.0
