14

C	0.0	0.0	0.0
C	-0.541591	0.168512	-1.411498
Cl	1.774145	0.0	0.0
H	-1.64379	0.189217	-1.233683
H	-0.192046	1.106266	-1.84127
N	-0.323923	1.349976	0.762624
O	-0.476151	1.252208	1.973383
O	-0.347385	2.395855	0.125718
N	-0.566625	-1.098337	0.627035
H	-1.606429	-0.891632	0.514533
H	-0.306162	-1.106772	1.60605
C	-0.156112	-0.945158	-2.262023
N	0.126204	-1.818758	-2.994627
F	-2.800535	0.0	0.0
