17
Coordinates from ORCA-job run
  C   0.76443355016907      0.00431599245650     -0.26321871246188
  C   -0.72842165708352     -0.00287315574800     -0.65743658565157
  Br  1.72649580753905      0.93696614124260     -1.79508001984250
  H   -0.80583478880957     -0.50519122303619     -1.62960091608498
  C   1.06258155424733      0.81532855901472      0.98273795720836
  H   2.13942083930433      0.84467166208413      1.16115932455068
  H   0.70834779425820      1.84068241527839      0.87798027760474
  H   0.58143908538823      0.34571866846884      1.84392229336043
  N   1.21057396095938     -1.33269850559392     -0.11078376545027
  H   1.12370255583221     -1.85941722326616     -0.97225199746863
  H   2.17650418115236     -1.36487859819172      0.19131758577098
  C   -1.23116688802743      1.35968769509763     -0.83724662249359
  N   -1.65977336185625      2.44190228202586     -0.99204107782823
  C   -1.60189548390999     -0.74606611238831      0.36394939463641
  H   -2.62796326767981     -0.80044800301222     -0.00516942550786
  H   -1.22009340768328     -1.75392185576754      0.51833198907472
  H   -1.61735047380029     -0.22377873866460      1.32143030058319
