17
Coordinates from ORCA-job run
  C   0.71589276981511     -0.07050176745087     -0.15084665548911
  C   -0.77549825901874      0.25478471152960     -0.40815450629572
  Br  1.50153807986855     -0.67067590371021     -1.85919957986708
  H   -0.81157034437988      1.05950033808968     -1.15103078036572
  C   1.49297008974238      1.17283023604704      0.26868227811329
  H   1.40126473291565      1.97355278523695     -0.46861086363688
  H   2.55125111802828      0.93011184408197      0.38251311989013
  H   1.11292297600565      1.53058037383015      1.23022405001310
  N   0.80288303467229     -1.18492764926084      0.76664335409957
  H   1.77258910909978     -1.44362328975906      0.90903753551843
  H   0.41573527207074     -0.90544605003662      1.66435290528586
  C   -1.33216634161622      0.77994805136368      0.84485429000712
  N   -1.75808434213952      1.16058973464105      1.87165297428045
  C   -1.61872641786255     -0.93072619469907     -0.88552182172902
  H   -2.66481818999584     -0.63064124880232     -0.97192701173464
  H   -1.26970343615798     -1.26677288511272     -1.86108920624845
  H   -1.53747985104770     -1.75758308598841     -0.18158008184132
