17
Coordinates from ORCA-job run
  C   0.79110929759961     -0.00762051438381     -0.10188017226598
  C   -0.70945601819636      0.24564238487263     -0.43809127777506
  Br  1.66025486789061     -0.51498751569473     -1.80490274054552
  H   -0.75246605507514      1.03488215097277     -1.19711568293894
  C   1.46476608204674      1.26309013969942      0.38855140595146
  H   1.03207369675855      1.56627147364853      1.34682051233432
  H   2.52889360960822      1.07443252905495      0.52821105499330
  H   1.33456204791403      2.07732551332223     -0.32597764221708
  N   1.04508184083153     -1.06606747887747      0.83584136468469
  H   0.72381379091911     -0.80046000140694      1.76065093778526
  H   0.61023616117017     -1.93706167754546      0.56033677378872
  C   -1.34783430725287      0.75245526822320      0.78152143910600
  N   -1.83789500176420      1.11608357982523      1.78553952728233
  C   -1.48444968887846     -0.97658346319050     -0.93750254558235
  H   -1.02773544841092     -1.37276025706813     -1.84380034016087
  H   -1.51511500543582     -1.75977536965257     -0.17767849444239
  H   -2.51483986972483     -0.69486676179937     -1.16152411999789
