17
Coordinates from ORCA-job run
  C   0.71319137787939      0.14280239207666     -0.18757659192182
  C   -0.74930528961382     -0.31697840433162     -0.34400981147878
  Br  0.89358781373833      1.98343249480426     -0.86130599812809
  H   -0.74993230338254     -1.37340158061939     -0.03396870927580
  C   1.15133156373328      0.14832767000972      1.27274831429177
  H   0.60050984896970      0.87039321810364      1.87571077352541
  H   2.21286110830310      0.39567159786948      1.33348728865795
  H   1.00509088664466     -0.85344862792469      1.69370468624643
  N   1.52104975941903     -0.68719243733440     -1.05655752208004
  H   1.49675746258141     -1.64652638046296     -0.72263445388939
  H   2.48482488739893     -0.37270395360948     -1.05223835342522
  C   -1.15327531824661     -0.29302607906848     -1.75210986903034
  N   -1.56174488918857     -0.27281836269626     -2.85264120525357
  C   -1.77095079542366      0.43244424057671      0.51457071711353
  H   -2.77397858323948      0.05761639925327      0.30416673045489
  H   -1.74971580720276      1.49976975493587      0.29121842518553
  H   -1.57030172237039      0.28463805841769      1.57643557900753
