17
Coordinates from ORCA-job run
  C   0.77342576457793     -0.00011770428691     -0.24349529461681
  C   -0.70639906596138      0.00586824752151     -0.68238626908937
  Br  1.78481778309420      0.94196794786442     -1.73936077833643
  H   -0.75685972912488     -0.49307870706139     -1.65805864717730
  C   1.04071121867027      0.79833780130609      1.01742117592882
  H   2.11229472477763      0.82177418478794      1.22565634632314
  H   0.53452943631338      0.32220248256197      1.86049088896173
  H   0.69298358809495      1.82586176889859      0.91252303406321
  N   1.20677186658076     -1.34093571629008     -0.09117125300173
  H   2.16492192448592     -1.38302300279126      0.23418602380034
  H   1.13715363544616     -1.85993739306464     -0.95894500745380
  C   -1.19381771356546      1.37342045130653     -0.86746755411251
  N   -1.63600052425758      2.45711809785840     -0.96262956685321
  C   -1.61715230022502     -0.73371579499834      0.30839702309435
  H   -1.25085761467184     -1.74688188859587      0.46665071010869
  H   -2.63273535727260     -0.77379562828312     -0.09023661178307
  H   -1.65378763696243     -0.21706514673383      1.26842578014397
