17
Coordinates from ORCA-job run
  C   0.78736686522315      0.00607775871872     -0.12715228199207
  C   -0.72841762377309      0.21567969518577     -0.42214300038328
  Br  1.61280523987011     -0.53878395756549     -1.84020354025651
  H   -0.81379850096537      0.97885876327630     -1.20395117360044
  C   1.44766248594742      1.30643212753383      0.29956507518236
  H   1.03858935647319      1.63219772690587      1.26079782407791
  H   1.27707016172183      2.09346817833507     -0.43662595669513
  H   2.51950444481183      1.14493959200092      0.41123819149311
  N   1.09501089365371     -1.01515593020885      0.83558739248732
  H   0.67281890081654     -1.90443204329007      0.60162605870228
  H   0.79555134131160     -0.72688484824632      1.76106947684217
  C   -1.33927642689403      0.74828330016280      0.80063712839061
  N   -1.80564721152964      1.13353825337910      1.80786065229956
  C   -1.49120872442126     -1.03853960575794     -0.85668955128708
  H   -1.47891019513295     -1.79738087549819     -0.07209232647584
  H   -2.53459681354654     -0.78676166653420     -1.05460331801155
  H   -1.05552419356649     -1.45353646839732     -1.76492065077342
