17
Coordinates from ORCA-job run
  C   0.72317009658528      0.04114837152270     -0.08757321664906
  C   -0.75627380083962     -0.35344301468776     -0.27392796898207
  Br  0.95625324718982      1.90930572728698     -0.86706299847922
  H   -0.81984930669075     -1.35995735960266      0.16118271843243
  C   1.11370614251714      0.14363037401262      1.37541067597981
  H   0.56646026774103      0.93274732571986      1.88719007742406
  H   2.17865895347869      0.36965826380512      1.45923073366899
  H   0.92184364904561     -0.81771878948232      1.86105560986178
  N   1.54064242216280     -0.90913239242270     -0.74380962870544
  H   2.52393867823503     -0.70420172802435     -0.61745003830956
  H   1.34257003588057     -0.97047134578252     -1.73610010812768
  C   -1.05795099703683     -0.49688566859283     -1.70059322639103
  N   -1.29222847837039     -0.62498117031614     -2.84423959997275
  C   -1.78770369886207      0.54865184210592      0.40518934513504
  H   -1.62326045188157      0.57737790408727      1.48287090727867
  H   -2.78909789215399      0.15178522482237      0.22847417903603
  H   -1.74087886700076      1.56248643554844      0.00915253880001
