17
Coordinates from ORCA-job run
  C   0.69858342527789      0.17229052285392     -0.21491538056852
  C   -0.73571036970984     -0.38478146587868     -0.30053137295985
  Br  0.74902641432758      1.96898399262776     -1.01641829469494
  H   -0.66442411162333     -1.41477877514495      0.08173486739539
  C   1.16901762294973      0.30495681612292      1.22933452908476
  H   2.21458708799474      0.61840664480157      1.24412130115355
  H   0.58956260147249      1.03329094142322      1.79681937438516
  H   1.09383918043403     -0.67206273755731      1.72115682164535
  N   1.53652402848356     -0.66607060897092     -1.04695380808523
  H   1.58113828743331     -1.59877334686324     -0.64617752466427
  H   2.47833465652605     -0.29330138446332     -1.09101699821554
  C   -1.17160507819474     -0.48433410755519     -1.69596209376909
  N   -1.60371887451084     -0.56606980197549     -2.78442279129240
  C   -1.78357488877876      0.36095322241375      0.52924829743397
  H   -1.54543090792679      0.31428601992384      1.59257233603959
  H   -1.84330419998052      1.40542282996050      0.22113364849692
  H   -2.76284487417453     -0.09741876171837      0.38127708861515
