17
Coordinates from ORCA-job run
  C   0.76040272175987      0.02607226157559     -0.36155385731063
  C   -0.74710757503174      0.04317795226940     -0.69855702679199
  Br  1.69638564201621      0.86382921375237     -1.87613602416941
  H   -0.84233862381988     -0.39694336648269     -1.69605084618356
  C   1.10821247931790      0.82291174024077      0.88855874447175
  H   2.18592163051242      0.78900804246362      1.05775345096919
  H   0.80031217866426      1.86635338949509      0.80768108398620
  H   0.61186273545672      0.37679571764843      1.75656346644967
  N   1.18825561113162     -1.36665831059633     -0.33031615168905
  H   2.19140777757706     -1.41671062017334     -0.46621871176307
  H   0.99129367458777     -1.74592059906611      0.59146002156370
  C   -1.25806936084488      1.41436995712316     -0.74977496888836
  N   -1.69339409857267      2.50508602705511     -0.74862161613187
  C   -1.58433096007881     -0.78867232864681      0.28229430451546
  H   -1.51146352725308     -0.40791270148737      1.30274794499047
  H   -1.26356589118628     -1.83015853483819      0.25137051472749
  H   -2.63478441423650     -0.75062784033269     -0.01120032874598
