17
Coordinates from ORCA-job run
  C   0.78853203991379      0.00424260717659     -0.12798353722906
  C   -0.72573128131068      0.23275553397758     -0.41543012768098
  Br  1.60858378461373     -0.49869322289754     -1.85645300227368
  H   -0.80639223015903      1.01670470404226     -1.17686277690936
  C   1.45807290078516      1.28757673204677      0.33427387801817
  H   1.29288828224430      2.09585650039978     -0.37978813709245
  H   1.05155937741755      1.58956588222908      1.30433288505614
  H   2.52882001608756      1.11554338131559      0.44074277183203
  N   1.08973759813079     -1.04546208766565      0.80578887822068
  H   0.79491725914807     -0.77991076052939      1.73947096626570
  H   0.65946898791732     -1.92446237727245      0.54893970753845
  C   -1.33267020316120      0.73678765611626      0.82129826722255
  N   -1.81271026179727      1.09352160873441      1.83257649719475
  C   -1.49857730954297     -1.00379480076775     -0.88172897998243
  H   -2.54005951596509     -0.73895669327601     -1.07238569516692
  H   -1.06652184326286     -1.39850977049865     -1.80071766889918
  H   -1.49191760105919     -1.78276489313086     -0.11707392611441
