17
Coordinates from ORCA-job run
  C   0.75787807936412      0.03678914786362     -0.36226231384965
  C   -0.75058054909245      0.05647362835821     -0.69578119394332
  Br  1.68799468942790      0.91244906060050     -1.85888243365205
  H   -0.84592170915380     -0.36223767993960     -1.70243406491894
  C   1.10600324121406      0.80470861252184      0.90569135105335
  H   0.61312526078755      0.33621791756669      1.76388612515206
  H   0.79462019676474      1.84879310959666      0.85045015906396
  H   2.18423393481817      0.77001527953595      1.07144265581636
  N   1.18978466502328     -1.35523554999348     -0.36445007966643
  H   2.19196233776294     -1.39954787117703     -0.50905868134554
  H   1.00075179383431     -1.75503803876359      0.55029799767310
  C   -1.26509012411712      1.42701385973143     -0.71548695383490
  N   -1.68134793886339      2.52481870179056     -0.68717176290101
  C   -1.58266966115791     -0.80050498624968      0.26763990256697
  H   -1.50954854746071     -0.44255009965905      1.29630210891936
  H   -2.63386236640256     -0.76058739259140     -0.02297691365154
  H   -1.25733330274911     -1.83957769919163      0.21279409751822
