15

C	-0.425302	0.000824	-1.438316
C	0.0	0.0	0.0
Br	-2.661201	-0.028168	-1.429075
H	1.095986	0.0	0.0
N	0.008988	1.120701	-2.093563
H	-0.056019	1.926706	-1.480182
H	-0.352162	1.252151	-3.02561
C	-0.18537	-1.236964	-2.161551
N	0.032016	-2.233087	-2.747273
C	-0.487803	-1.151744	0.738672
N	-0.860465	-2.043925	1.4089
N	-0.328705	1.290376	0.596758
H	-1.219268	1.266218	1.080109
H	0.416276	1.516318	1.245934
F	2.481846	0.0	0.0
