15

C	-0.079175	0.17365	-1.53793
C	0.0	0.0	0.0
Br	-1.879552	0.917626	-2.118482
H	1.106133	0.0	0.0
N	0.956202	1.087894	-1.891916
H	1.141867	1.066755	-2.886748
H	1.799919	0.803484	-1.338609
C	-0.013225	-1.114323	-2.244048
N	0.108007	-2.121557	-2.84145
C	-0.650363	-1.211618	0.461848
N	-1.18685	-2.182281	0.851862
N	-0.390786	1.156124	0.77909
H	-1.245975	1.562795	0.414967
H	0.352612	1.836793	0.692481
F	2.610685	0.0	0.0
