15

C	-0.122014	-0.06341	-1.545415
C	0.0	0.0	0.0
Br	0.15234	1.897472	-2.230086
H	1.102559	0.0	0.0
N	0.890895	-0.912039	-1.969449
H	1.762428	-0.689978	-1.438236
H	1.012133	-0.957804	-2.971221
C	-1.448078	-0.374856	-2.071967
N	-2.52564	-0.62703	-2.467937
C	-0.482555	-1.257461	0.550442
N	-0.862575	-2.24863	1.056455
N	-0.655515	1.13975	0.62494
H	-1.034267	0.858418	1.517901
H	0.05676	1.839727	0.7951
F	2.628681	0.0	0.0
