15

C	-0.547423	0.057159	-1.42366
C	0.0	0.0	0.0
Br	0.274633	-1.492925	-2.455542
H	1.092793	0.0	0.0
N	-1.969024	0.017865	-1.465946
H	-2.299094	-0.839361	-1.036363
H	-2.312942	0.06667	-2.417553
C	-0.072802	1.260685	-2.109226
N	0.27058	2.187595	-2.742625
C	-0.529093	-1.182994	0.670249
N	-1.001267	-2.092891	1.250112
N	-0.355816	1.249394	0.661581
H	-1.221417	1.198017	1.181955
H	0.414659	1.49621	1.269763
F	2.517737	0.0	0.0
