15

C	-0.426185	-0.004438	-1.436939
C	0.0	0.0	0.0
Br	-2.676657	-0.028541	-1.419949
H	1.096077	0.0	0.0
N	-0.000962	1.115031	-2.093841
H	-0.350864	1.243105	-3.030638
H	-0.062835	1.920364	-1.479907
C	-0.198138	-1.241286	-2.164378
N	0.014434	-2.221554	-2.777669
C	-0.490075	-1.146202	0.746962
N	-0.884374	-2.030801	1.415205
N	-0.327188	1.293537	0.589637
H	0.40659	1.515789	1.253153
H	-1.227588	1.273179	1.055079
F	2.478949	0.0	0.0
