15
Coordinates from ORCA-job run
  C   -0.37038892321920      0.07902841337060     -0.06226270130268
  C   0.95116231513615      0.04956379734157      0.23968930070483
  C   -1.36994225176990      0.87117462178420      0.72489782540045
  H   -0.91978887236542      1.38743307767734      1.57400892950691
  H   -2.16110905715186      0.21675861358197      1.10603863779980
  H   -1.85713492048945      1.61893365268945      0.08925949423727
  C   -0.88019677277068     -0.73550429959946     -1.21796359033848
  H   -1.05750331628109     -1.78122910005457     -0.93589612509352
  H   -0.17468878409156     -0.72783717320487     -2.05380433017987
  H   -1.83044928488514     -0.33548073431044     -1.57936026648542
  N   1.91641583360235     -0.66262010050332     -0.49844157795700
  H   1.56641578040117     -1.53495153758638     -0.86842742214825
  H   2.77092965675659     -0.81406666598434      0.01547597473611
  C   1.47853009925241      0.85830732929898      1.30012504584302
  N   1.93674849787564      1.50949010549925      2.16666080527683
