15
Coordinates from ORCA-job run
  C   -0.38780142568430     -0.02810107366671      0.00496579749830
  C   0.95270171325415     -0.09653304407211      0.19807615003614
  C   -1.30078631854307     -1.20263685746897      0.18674639099493
  H   -1.82907199404201     -1.42678726728244     -0.74650285292385
  H   -0.76867819433359     -2.10240475578352      0.49970415126475
  H   -2.06478291893011     -0.97855955677781      0.93895683375236
  C   -0.99548104069669      1.27172001715654     -0.44108661066162
  H   -0.91308570154762      1.40910582699003     -1.52700792574346
  H   -2.05857277437313      1.30529752538654     -0.19421056630648
  H   -0.50715619880948      2.12317466778360      0.04201785194199
  N   1.82217555490072      1.00228175353663      0.04424203860126
  H   1.59438896436696      1.57264959367483     -0.75732506625794
  H   2.79480336201512      0.73447970288006      0.02148325751454
  C   1.56605613409803     -1.30336524967100      0.67254995274094
  N   2.09629083832503     -2.28032128268568      1.05939059754814
