15
Coordinates from ORCA-job run
  C   -0.36765349624153     -0.06159459973463     -0.06743741122406
  C   0.95349959301504     -0.09339464856590      0.23746070882799
  C   -0.92741350678751      1.14275284029028     -0.77591633834659
  H   -0.41934489934064      1.32271084964179     -1.73000713064335
  H   -1.99074557979063      1.01490982996388     -0.98230180086096
  H   -0.82463469856231      2.05271057034019     -0.17075921609244
  C   -1.30040866080156     -1.19620941823008      0.23147319496802
  H   -2.15694004209773     -0.85032946080993      0.82074264685469
  H   -1.70565286778243     -1.61049620499973     -0.69927147563193
  H   -0.81509557194274     -2.00659029890222      0.77819024121364
  N   1.88419577172485      0.89368440271822     -0.12996993360438
  H   1.45934117664508      1.78601606584419     -0.33811385722842
  H   2.63466466495768      0.99642628411988      0.53646554541776
  C   1.53597505601912     -1.23815948016658      0.87582277482768
  N   2.04321306098530     -2.15243673150938      1.41562205152236
