15
Coordinates from ORCA-job run
  C   -0.38354504461681     -0.05327764273886     -0.04250291224511
  C   0.91613021991754      0.00184633896208      0.34045798933335
  C   -0.97953044698779      1.11674631916599     -0.77290360291371
  H   -0.60249964393525      2.06414175905071     -0.37639666390060
  H   -0.75038709201107      1.08689727053836     -1.84600432182400
  H   -2.06718116736895      1.11779272907733     -0.67747721366226
  C   -1.25571524527548     -1.24838354442997      0.19700709338400
  H   -2.13545521710309     -0.96644700454270      0.78545735853904
  H   -1.62375570577461     -1.65211439066716     -0.75258432259558
  H   -0.73455557801763     -2.04828844382027      0.72552856443006
  N   1.74686349403531      1.12118056909124      0.13037372566960
  H   2.72351398199864      0.92101840920331      0.28532679512946
  H   1.61221017149123      1.54535737136388     -0.77605345241076
  C   1.50935138285242     -1.07131774104565      1.08494606741329
  N   2.02355589079552     -1.93615199920828      1.69582489565321
