15
Coordinates from ORCA-job run
  C   -0.38635232474219      0.05735778137970     -0.02677756682528
  C   0.96344639732856      0.12757585892467      0.08008965716302
  C   -0.98946809833848     -1.04129250394139     -0.85639207531801
  H   -0.41453689655158     -1.20078946390374     -1.77376939929226
  H   -1.02134201938403     -1.99389349924716     -0.31188060780702
  H   -2.01610982995886     -0.79760830252676     -1.13714632587003
  C   -1.31282662306246      1.01186985581727      0.66287565769545
  H   -0.77935829634400      1.76929958906637      1.23990159623721
  H   -1.98419260836510      0.47632781512511      1.34295520790486
  H   -1.94405257482721      1.52617093168420     -0.06975855641562
  N   1.84513978985696     -0.75147886845886     -0.58037325099415
  H   1.51919250288477     -1.70714668608545     -0.57696290094445
  H   2.79063320887738     -0.69861839528227     -0.23086379123108
  C   1.59134741393201      1.18492210626012      0.81830798783728
  N   2.13647995869422      2.03730378118820      1.41979436786006
