15
Coordinates from ORCA-job run
  C   -0.38697197615536     -0.04421590921852     -0.03648576744619
  C   0.96287679376644     -0.15369365435292      0.02871527925755
  C   -1.31812682905324     -1.14459030640335      0.37244543045500
  H   -1.96507497301264     -1.42715554589301     -0.46496554227465
  H   -1.97388387019264     -0.81440532031283      1.18539556340540
  H   -0.78817483000723     -2.03831503860908      0.70642217255102
  C   -0.98466769689180      1.24758473844465     -0.51932715496948
  H   -0.41790337110689      1.65069773158085     -1.36432542218802
  H   -0.99797568356279      2.01137141256425      0.26901549318856
  H   -2.01746580529075      1.10151038646425     -0.84223167445876
  N   1.84878912585864      0.86581002325205     -0.37318989052985
  H   1.53327455328455      1.78636399576413     -0.10374337294027
  H   2.79636390544731      0.71099458539277     -0.06185139299924
  C   1.58476742453460     -1.38066265139513      0.43482144936017
  N   2.12417323238181     -2.37229444727812      0.76830482958875
