15
Coordinates from ORCA-job run
  C   -0.40190140640952     -0.00066722549697     -0.05998238500131
  C   0.93379357540754     -0.06226411205560      0.14623580060237
  C   -1.31089443137547     -1.15826893465048      0.22772788403796
  H   -1.85172537410521     -1.44394304710823     -0.68026952103415
  H   -0.77844242236660     -2.03315148307055      0.60260069301215
  H   -2.06463773495156     -0.86804794672010      0.96687902992026
  C   -1.05302450677563      1.24047971394429     -0.58841564506620
  H   -1.79721904183549      1.60519014318541      0.12771982906303
  H   -0.31861290884323      2.02060013105595     -0.77540245971058
  H   -1.59136376261795      1.01711057535983     -1.51554985828366
  N   1.80006791435583      1.04804602965023     -0.12845551872447
  H   2.51429463109429      0.77212036753978     -0.79327126701235
  H   2.27724172339191      1.33231209604280      0.72003652913169
  C   1.54148161774015     -1.26164824011732      0.66372338443787
  N   2.09994212729094     -2.20886806755902      1.08542350462741
