15
Coordinates from ORCA-job run
  C   -0.38340288405942      0.04197774871047     -0.03673681497958
  C   0.94921991377343      0.14055400223418      0.19461081246466
  C   -0.86161442866201     -0.72828187931647     -1.23555046418446
  H   -1.87920253688106     -0.43508183528622     -1.50186306982336
  H   -0.21956525807553     -0.54835445579138     -2.10329471620003
  H   -0.87522443786106     -1.80973969940079     -1.04718052754776
  C   -1.41618883008556      0.64683845854878      0.86574536807413
  H   -0.97501188036088      1.16600587628214      1.71787098111950
  H   -2.03505043848638      1.36162334603399      0.31273327905367
  H   -2.09011518631767     -0.12687542795261      1.24932008457657
  N   1.93495935451707     -0.40241914878503     -0.65393187894565
  H   2.84351930423635     -0.45409623817206     -0.21749591411641
  H   1.67296528390702     -1.30186909574976     -1.03130931324951
  C   1.44908318379264      0.91237366168892      1.29509989329971
  N   1.88662884056305      1.53634468695584      2.19198228045852
