15
Coordinates from ORCA-job run
  C   -0.38490382838198      0.04591756830918     -0.03861403426878
  C   0.94827966400174      0.13935180525838      0.19104224198440
  C   -1.41491032772065      0.65289633039118      0.86552428431808
  H   -2.04002271041855      1.35957953442926      0.30906629584275
  H   -2.08258731271756     -0.12076622223680      1.26024630382234
  H   -0.97126750911064      1.18150071901449      1.71070422885451
  C   -0.86542946693665     -0.72599320918177     -1.23508709932503
  H   -0.21418596425057     -0.56018729103742     -2.09845832763498
  H   -0.89328227634200     -1.80566341863467     -1.03898019504494
  H   -1.87804174871867     -0.42290655550595     -1.50883057027505
  N   1.92756608217788     -0.41547856055130     -0.65796131789995
  H   2.84597096104330     -0.43387412557127     -0.24026470432398
  H   1.67605529963369     -1.33247772818248     -0.99823312082030
  C   1.45284131438052      0.90802651470688      1.29189387139800
  N   1.89491782336013      1.53007463879230      2.18795214337294
