15
Coordinates from ORCA-job run
  C   -0.38511483052559     -0.04874147329445     -0.03643432414291
  C   0.92399165684273     -0.02732316433926      0.31640772499787
  C   -1.26456098400693     -1.24672916795161      0.15736919660925
  H   -2.12515503218046     -0.99016333846326      0.78440426430359
  H   -1.66191458654904     -1.59133077220832     -0.80367472160664
  H   -0.73898334186795     -2.08079302821436      0.62517154020763
  C   -0.98467497373764      1.16828196238219     -0.68243843990239
  H   -2.07175478267633      1.16455125277173     -0.58097294142746
  H   -0.60211261528542      2.08592343139111     -0.22560373618524
  H   -0.76151261126076      1.21121821185314     -1.75647344184658
  N   1.75890523418362      1.09644086576478      0.15093936971263
  H   1.60315688869412      1.57412567805470     -0.72506788245780
  H   2.73782786536493      0.88040306599354      0.26670133080056
  C   1.52529114030570     -1.14663772093678      0.98185903367204
  N   2.04561097269903     -2.05022580280315      1.52781302726545
