15
Coordinates from ORCA-job run
  C   -0.37196211046899      0.08991942541828     -0.07333624488384
  C   0.94163710060568      0.03626915340158      0.25896859823578
  C   -0.85773628393759     -0.70394891754556     -1.25304004336299
  H   -0.12824286059871     -0.68440231215153     -2.06833354968655
  H   -1.03899898048263     -1.75449181542314     -0.99135320847631
  H   -1.79986369163718     -0.30024970159228     -1.62941633902528
  C   -1.37961775810853      0.88300818824687      0.70239136842728
  H   -0.93526135467779      1.41459238413137      1.54537301619718
  H   -2.16795509326060      0.22854542913089      1.09013705815677
  H   -1.86698501098572      1.61835680071749      0.05317117874427
  N   1.90205728569001     -0.69572826856299     -0.46824511264716
  H   1.56069066590051     -1.59694883590675     -0.77023138360206
  H   2.77676002491233     -0.79606412270018      0.02479611857460
  C   1.45797692366869      0.81691686948850      1.34587029391444
  N   1.90850114338053      1.44522572334745      2.23324824943387
