15
Coordinates from ORCA-job run
  C   -0.39437944457547      0.02746974372038      0.00831254918852
  C   0.93977420754852      0.01910711760491      0.25181985254867
  C   -0.95675389985200     -1.01146287155639     -0.91960030150573
  H   -2.04566467367874     -1.06643857890948     -0.84624517261145
  H   -0.71170959383816     -0.80094208902071     -1.97012350017065
  H   -0.54190944764328     -1.99770480449253     -0.68664818365172
  C   -1.32807700272157      1.03962073984336      0.59923227125298
  H   -1.79852980987107      1.63728333921869     -0.18827431255936
  H   -0.82408503082613      1.72203833282623      1.28551425154720
  H   -2.13452724920063      0.53981128855779      1.14679839274306
  N   1.81931113518097     -0.94512016381889     -0.28564218795879
  H   1.60589977881303     -1.16212325286693     -1.25004830936457
  H   2.78880171250896     -0.67902034129414     -0.19857987053120
  C   1.53248108608112      0.95659425449028      1.16074273508908
  N   2.04736823207446      1.72088728569743      1.89274178598395
