15
Coordinates from ORCA-job run
  C   -0.38077799349659      0.06520711154590     -0.05275103713320
  C   0.88967379461201     -0.10734851748221      0.38911588192806
  C   -1.29437992558721      1.12699784608664      0.48027785508075
  H   -0.82786752630344      1.72613110254664      1.26392020187836
  H   -2.20401160105344      0.67573024176607      0.89097509632560
  H   -1.60872852736531      1.80271337161633     -0.32267569384329
  C   -0.89731973384882     -0.82164135646348     -1.15008478455232
  H   -0.53312264457174     -1.84661515949730     -1.03305510719531
  H   -1.98888380230746     -0.84564640763173     -1.14596469732241
  H   -0.58660092339146     -0.46648166969596     -2.14118255269288
  N   1.75555993862179     -1.10829765237162     -0.09616013007990
  H   1.69978619602660     -1.22275939599947     -1.09797626853965
  H   2.71335031758122     -0.97474224592924      0.19151748181019
  C   1.40656378098402      0.68211061759919      1.46936275367909
  N   1.85775865009982      1.31564211391023      2.35268100065693
