15
Coordinates from ORCA-job run
  C   -0.37642167041403     -0.05707379520749     -0.08142391895989
  C   0.95781021973742     -0.12231649129856      0.15177883558116
  C   -1.33030687551109     -1.14094330046674      0.32064533692272
  H   -1.86732473398222     -1.52029566748699     -0.55538544939530
  H   -2.08490732968606     -0.75128692566932      1.01285791209319
  H   -0.82970145974391     -1.98158608693495      0.80380998564865
  C   -0.94258848673891      1.16721884323442     -0.74342312169908
  H   -1.11412565027237      1.97723505263843     -0.02236832121669
  H   -0.26862850898759      1.54570249337334     -1.51776986700142
  H   -1.90460527703304      0.94399049468496     -1.20922339735851
  N   1.86841239413591      0.88372030593768     -0.23061195745308
  H   1.51297244733730      1.81512052914680     -0.06949210048586
  H   2.77685958341152      0.77451934943320      0.19477364265649
  C   1.54593849901365     -1.29347045648604      0.73487568719105
  N   2.05561684873339     -2.24053434489876      1.21295673347657
