15
Coordinates from ORCA-job run
  C   -0.38359334886186     -0.05352171425773     -0.03733855662404
  C   0.92123062582891      0.00408924268577      0.32717241834209
  C   -0.99384863186580      1.11629186404070     -0.75606329669355
  H   -2.07950353447453      1.11641982939784     -0.64104171401100
  H   -0.78466443684087      1.08770178851214     -1.83312161685222
  H   -0.61047685090525      2.06349745865099     -0.36580462099816
  C   -1.24873001986474     -1.25207940753314      0.21141065991218
  H   -1.63050148006799     -1.65427036428949     -0.73333101181483
  H   -0.71759871977037     -2.05176153253719      0.72989941964156
  H   -2.12001552647310     -0.97440970417286      0.81444563043098
  N   1.74605698076909      1.12722782493729      0.11100406557522
  H   2.72557303736781      0.92705092423164      0.24889640200603
  H   1.59885613763750      1.55056340177415     -0.79416204470358
  C   1.52735915806941     -1.07008364255347      1.05987735303054
  N   2.05185660945179     -1.93671596888663      1.65915691275877
