16

C	0.0	0.0	0.0
C	-0.633558	0.003511	-1.395879
Cl	1.79277	0.0	0.0
H	-1.746093	-0.057253	-1.084071
C	-0.382389	1.249064	0.67741
N	-0.560895	2.270767	1.230441
C	-0.476635	-1.208173	0.791508
H	-0.085778	-1.177214	1.810613
H	-1.575329	-1.149231	0.791547
H	-0.132458	-2.120291	0.299185
C	-0.24196	-1.189818	-2.13476
N	0.055348	-2.157843	-2.733577
N	-0.436495	1.195821	-2.19565
H	0.521979	1.521857	-2.123179
H	-1.05414	1.915754	-1.835751
H	-3.007453	0.0	0.0
