16

C	0.0	0.0	0.0
C	-0.410377	-0.00701	-1.525106
Cl	1.791207	0.0	0.0
H	0.278449	-0.73433	-1.97408
C	-0.41013	1.229252	0.679749
N	-0.638601	2.239978	1.235054
C	-0.552711	-1.222612	0.705647
H	-1.645229	-1.115483	0.723483
H	-0.159775	-1.282309	1.7227
H	-0.265856	-2.124184	0.156996
C	-0.053158	1.29774	-2.117645
N	0.251	2.322388	-2.60532
N	-1.759338	-0.367106	-1.857438
H	-1.825972	-1.379578	-1.854546
H	-2.480835	-0.056885	-1.122996
H	-3.459253	0.0	0.0
