16

C	0.0	0.0	0.0
C	-0.398518	0.0587	-1.50953
Cl	1.791402	0.0	0.0
H	0.347109	-0.576049	-2.01061
C	-0.409991	1.197088	0.73651
N	-0.635243	2.191261	1.321992
C	-0.530398	-1.260931	0.659629
H	-1.621361	-1.176995	0.709836
H	-0.106836	-1.355135	1.661926
H	-0.255096	-2.129883	0.06016
C	-0.152399	1.425452	-2.031388
N	0.01082	2.457329	-2.572152
N	-1.722969	-0.460693	-1.747749
H	-2.078152	-0.068907	-2.613667
H	-2.452608	-0.186889	-0.979552
H	-3.437828	0.0	0.0
