16

C	0.0	0.0	0.0
C	-0.413994	-0.120592	-1.501287
Cl	1.791056	0.0	0.0
H	0.346816	-0.774453	-1.949528
C	-0.411138	1.270693	0.601668
N	-0.639129	2.287918	1.144482
C	-0.526122	-1.170638	0.813776
H	-1.617246	-1.0815	0.856093
H	-0.099171	-1.135657	1.819137
H	-0.254127	-2.107653	0.325747
C	-0.231334	1.19326	-2.168665
N	-0.11239	2.188928	-2.783543
N	-1.712085	-0.7274	-1.645593
H	-2.461911	-0.333999	-0.962084
H	-2.052966	-0.575033	-2.589841
H	-3.46191	0.0	0.0
