17

C	0.0	0.0	0.0
C	-0.365455	0.010791	-1.510635
Cl	1.769637	0.0	0.0
H	-0.232999	1.035411	-1.861113
N	-0.469521	1.278343	0.66034
O	-0.56805	2.276772	-0.041937
O	-0.594937	1.243808	1.874973
C	-0.411706	-1.239835	0.768682
H	-1.500507	-1.214802	0.815276
H	0.053618	-1.214076	1.753955
H	-0.04876	-2.113687	0.222744
N	-1.759863	-0.393918	-1.981201
O	-2.37272	0.476239	-2.584341
O	-2.008827	-1.591133	-1.97341
C	0.514297	-0.880325	-2.280603
N	1.201335	-1.548946	-2.960776
F	-2.517995	0.0	0.0
