17

C	0.0	0.0	0.0
C	-0.528288	-0.058513	-1.445004
Cl	1.767665	0.0	0.0
H	0.206361	-0.654833	-1.992621
N	-0.446533	1.213219	0.793794
O	-0.564477	2.26893	0.187117
O	-0.556495	1.067593	2.002875
C	-0.381229	-1.279972	0.73687
H	-0.056222	-2.1317	0.133941
H	-1.46094	-1.276455	0.857737
H	0.136602	-1.309164	1.694076
N	-0.48447	1.265971	-2.179111
O	0.640584	1.673737	-2.459527
O	-1.537692	1.808495	-2.476514
C	-1.844815	-0.709071	-1.623053
N	-2.449247	-1.459932	-2.312253
F	-2.560032	0.0	0.0
