14

C	0.0	0.0	0.0
C	-0.408624	-0.242125	-1.493913
Br	1.924725	0.0	0.0
H	0.512072	-0.024682	-2.052436
H	-0.368366	0.948053	0.379011
N	-0.377326	-1.020805	1.046791
O	-0.26948	-2.209574	0.764838
O	-0.63365	-0.568782	2.153657
C	-1.311708	0.814725	-1.997107
N	-1.685051	1.68347	-2.698587
N	-0.900075	-1.569447	-1.815799
H	-0.806099	-1.703759	-2.814537
H	-0.363681	-2.268409	-1.322039
Br	-3.235994	0.0	0.0
