14

C	0.0	0.0	0.0
C	-0.579182	0.223031	-1.386377
Br	1.92317	0.0	0.0
H	-1.659799	0.022431	-1.251033
H	-0.357651	0.781402	0.665229
N	-0.422788	-1.316421	0.600088
O	-0.652273	-2.238019	-0.17473
O	-0.463178	-1.362081	1.822826
C	-0.033123	-0.667278	-2.41603
N	0.375443	-1.282858	-3.330613
N	-0.414228	1.635418	-1.718701
H	-1.21763	1.93701	-2.256089
H	0.42401	1.778082	-2.268695
Br	-3.637235	0.0	0.0
