14

C	0.0	0.0	0.0
C	-0.581632	-0.09024	-1.419047
Br	1.936911	0.0	0.0
H	-1.567955	-0.555579	-1.279489
H	-0.383669	0.869439	0.526597
N	-0.371241	-1.197904	0.844201
O	-0.402674	-1.016452	2.0553
O	-0.558658	-2.25594	0.257907
C	0.213354	-0.931139	-2.318277
N	0.821022	-1.591022	-3.076865
N	-0.830116	1.209457	-2.018504
H	-0.061416	1.84484	-1.84215
H	-1.679421	1.559467	-1.585069
Br	-3.509729	0.0	0.0
