14

C	0.0	0.0	0.0
C	-0.290681	0.183348	-1.550423
Br	1.928374	0.0	0.0
H	0.600668	0.693686	-1.901782
H	-0.392439	0.823257	0.601911
N	-0.357439	-1.283786	0.70149
O	-0.170489	-1.282083	1.914605
O	-0.668815	-2.242137	0.025197
C	-1.332032	1.158465	-1.937601
N	-1.818567	1.952392	-2.64429
N	-0.441517	-0.975289	-2.395542
H	0.352806	-1.606403	-2.19235
H	-1.307724	-1.465577	-2.110791
Br	-3.166334	0.0	0.0
