16

C	0.0	0.0	0.0
C	-0.378801	-0.009164	-1.514326
Br	1.940598	0.0	0.0
H	0.497713	0.356474	-2.060162
N	-0.35865	1.301348	0.699862
O	-0.312273	2.309348	0.008887
O	-0.540792	1.251797	1.905679
C	-0.470874	-1.134004	0.778083
N	-0.574676	-2.134257	1.390117
C	-1.475577	0.871698	-1.92753
N	-2.170633	1.570722	-2.569566
C	-0.682062	-1.438092	-1.966763
H	-0.825311	-1.452076	-3.050124
H	0.136638	-2.115353	-1.710291
H	-1.598504	-1.749128	-1.468652
F	-2.258977	0.0	0.0
