16

C	0.0	0.0	0.0
C	-0.22283	-0.115027	-1.574314
Br	1.929541	0.0	0.0
H	0.426649	-0.96405	-1.820946
N	-0.463012	1.279647	0.650444
O	-0.610296	2.252385	-0.071839
O	-0.520234	1.260683	1.871379
C	-0.509977	-1.163128	0.703416
N	-0.62194	-2.206193	1.239477
C	0.383774	1.025021	-2.280139
N	0.826558	1.859732	-2.978719
C	-1.564952	-0.418186	-2.244227
H	-2.261209	0.400415	-2.116135
H	-1.341526	-0.588397	-3.307227
H	-2.014254	-1.303109	-1.805406
F	-2.282206	0.0	0.0
