16

C	0.0	0.0	0.0
C	-0.222638	-0.085201	-1.575574
Br	1.929422	0.0	0.0
H	0.422604	-0.933072	-1.83868
N	-0.461641	1.271564	0.671337
O	-0.627832	2.248812	-0.039392
O	-0.50706	1.237827	1.892816
C	-0.502864	-1.174807	0.687542
N	-0.619298	-2.22052	1.216757
C	0.389527	1.066411	-2.258164
N	0.833823	1.909784	-2.945516
C	-1.565628	-0.365356	-2.255194
H	-1.33591	-0.523398	-3.317982
H	-2.252659	0.460472	-2.119756
H	-2.027418	-1.250544	-1.831331
F	-2.275538	0.0	0.0
