16

C	0.0	0.0	0.0
C	-0.223522	-0.133867	-1.572866
Br	1.929241	0.0	0.0
H	0.404341	-1.003491	-1.805633
N	-0.46025	1.293675	0.625628
O	-0.620374	2.247556	-0.118357
O	-0.507303	1.302419	1.847306
C	-0.506235	-1.150098	0.724954
N	-0.626259	-2.18129	1.281378
C	0.413329	0.980877	-2.293033
N	0.881463	1.78476	-3.010935
C	-1.570847	-0.40322	-2.250006
H	-1.336874	-0.60542	-3.303928
H	-2.062455	-1.255055	-1.792695
H	-2.232238	0.449325	-2.153714
F	-2.276035	0.0	0.0
