16

C	0.0	0.0	0.0
C	-0.358453	-0.06251	-1.517987
Br	1.940462	0.0	0.0
H	0.494546	0.35935	-2.05855
N	-0.368257	1.323948	0.645124
O	-0.523255	1.326957	1.855675
O	-0.350827	2.298792	-0.093469
C	-0.468077	-1.110895	0.809952
N	-0.594839	-2.093203	1.446261
C	-1.516642	0.713051	-1.976272
N	-2.251445	1.287452	-2.695969
C	-0.541589	-1.523365	-1.937838
H	-0.605347	-1.588278	-3.025237
H	-1.463956	-1.881992	-1.487953
H	0.292965	-2.138007	-1.599255
F	-2.246795	0.0	0.0
