13

C	-0.201075	0.057604	0.059811
C	-0.650323	0.159879	-1.379738
Br	1.57546	-0.711022	0.239791
H	-1.589844	0.728974	-1.347541
H	-0.895023	-0.538269	0.652343
H	0.090801	0.723423	-1.949927
N	-0.140387	1.412358	0.706237
O	0.172654	2.368832	-0.001609
O	-0.389806	1.469807	1.906434
N	-0.801855	-1.182541	-1.920577
H	-0.993329	-1.102874	-2.912206
H	-1.64382	-1.56417	-1.487228
Br	-3.548654	-1.162668	0.126481
