13

C	-0.199796	0.058006	0.065951
C	-0.661598	0.217269	-1.364244
Br	1.569819	-0.735452	0.20034
H	0.079409	0.79472	-1.920536
H	-0.894718	-0.551295	0.643546
H	-1.595517	0.79309	-1.301821
N	-0.117781	1.387744	0.760355
O	0.198044	2.366088	0.084432
O	-0.354013	1.403861	1.964475
N	-0.830719	-1.102839	-1.953122
H	-1.664794	-1.49728	-1.515855
H	-1.046639	-0.982726	-2.935704
Br	-3.559591	-1.134089	0.118671
