13

C	-0.198275	0.064745	0.059881
C	-0.657832	0.168457	-1.376186
Br	1.575112	-0.714059	0.227109
H	0.081498	0.728567	-1.952066
H	-0.891035	-0.526562	0.658353
H	-1.594603	0.741682	-1.337054
N	-0.124503	1.419689	0.704665
O	0.188286	2.373794	-0.00642
O	-0.36402	1.479418	1.906762
N	-0.819645	-1.173414	-1.915695
H	-1.656112	-1.553209	-1.470177
H	-1.027022	-1.091838	-2.904018
Br	-3.552461	-1.139113	0.150477
