16

C	-0.434235	0.0274	-1.464582
C	0.0	0.0	0.0
F	-1.835337	0.118786	-1.515723
H	1.095425	0.0	0.0
C	0.168803	1.193419	-2.218545
H	-0.130037	1.153731	-3.2674
H	-0.188625	2.126737	-1.778958
H	1.257714	1.147249	-2.133741
C	-0.083471	-1.250946	-2.110015
N	0.136444	-2.237604	-2.70649
N	-0.463957	-1.208824	0.659128
H	0.197413	-1.463373	1.381075
H	-1.378633	-1.079499	1.070256
C	-0.454345	1.236232	0.654711
N	-0.817601	2.218615	1.18771
Br	3.418587	0.0	0.0
