16

C	-0.436222	0.03356	-1.461849
C	0.0	0.0	0.0
F	-1.841248	0.103665	-1.508239
H	1.095389	0.0	0.0
C	0.14334	1.217363	-2.206987
H	-0.1581	1.182802	-3.25534
H	-0.228864	2.140212	-1.757558
H	1.233315	1.189288	-2.126513
C	-0.064279	-1.233724	-2.115618
N	0.207608	-2.207375	-2.711965
N	-0.464053	-1.213652	0.651222
H	-1.377839	-1.085287	1.063592
H	0.196811	-1.473017	1.371014
C	-0.459353	1.228988	0.666357
N	-0.852963	2.177185	1.238583
Br	3.418993	0.0	0.0
