16

C	-0.441633	-0.078608	-1.470038
C	0.0	0.0	0.0
F	-0.241158	1.16448	-2.059673
H	1.095248	0.0	0.0
C	0.369125	-1.113782	-2.218435
H	1.424602	-0.852252	-2.115487
H	0.202375	-2.095636	-1.77754
H	0.077481	-1.121404	-3.270711
C	-1.891356	-0.361545	-1.541011
N	-3.04208	-0.592092	-1.583497
N	-0.414387	-1.221039	0.682794
H	0.280826	-1.450375	1.382295
H	-1.312963	-1.104491	1.134513
C	-0.50673	1.226728	0.628406
N	-0.960925	2.156237	1.185866
Br	3.460347	0.0	0.0
