16

C	-0.507233	-0.005307	-1.454723
C	0.0	0.0	0.0
F	0.095337	-1.070909	-2.100383
H	1.094734	0.0	0.0
C	-2.009527	-0.198	-1.55046
H	-2.53874	0.639754	-1.091561
H	-2.300626	-0.274621	-2.599569
H	-2.255869	-1.12569	-1.033534
C	-0.11377	1.234249	-2.153048
N	0.106578	2.226508	-2.741048
N	-0.427082	-1.231157	0.670129
H	-1.08031	-1.03807	1.417589
H	0.399458	-1.661159	1.068496
C	-0.490946	1.199639	0.680469
N	-0.94769	2.116255	1.257778
Br	3.417985	0.0	0.0
