15
Coordinates from ORCA-job run
  C   -0.70100565048285      0.14432332542776     -0.14044531047799
  C   0.38304923643416     -0.23036688886296     -1.13427967995877
  H   -1.64461903871375      0.16166136663632     -0.69535700432872
  H   0.14238146022541     -1.16225154167077     -1.64320026250931
  H   0.53931198248249      0.57245224501889     -1.85458361468322
  N   -0.51983789190239      1.58908403941232      0.28041419224894
  O   -0.39891638840397      2.40042287311264     -0.63204533790781
  O   -0.55172783360700      1.85158903991558      1.47632185831933
  C   -0.79359158374894     -0.78079201753650      1.05423050331489
  H   -1.64473752404583     -0.51789998637027      1.68025960455081
  H   -0.92088604324961     -1.80810782083656      0.70405447652050
  H   0.10515461173028     -0.72204338199994      1.66724638982884
  N   1.68021574677332     -0.44926694659988     -0.43218269730925
  O   2.26204813961190     -1.51358499356567     -0.62326572450042
  O   2.06216077689679      0.46578068791903      0.29383260689216
