15
Coordinates from ORCA-job run
  C   -0.51132610253472      0.06763975888790     -0.09771646478093
  C   0.80073886435642     -0.63725852176982     -0.32154103487370
  H   -0.99602393654935      0.30053433866683     -1.04484041522559
  H   0.63680055251799     -1.60418920197144     -0.80292693070997
  H   1.35972310648173     -0.78074625925014      0.60019065696315
  N   -0.26657315551047      1.40946789301667      0.53933642852244
  O   -1.16851460935601      2.23180352826997      0.42425770947173
  O   0.77972797798730      1.56676549436403      1.16418776898638
  C   -1.43405665313645     -0.72075791548333      0.81968125242213
  H   -2.36485421695669     -0.17282085572752      0.96884245061957
  H   -0.96160778901468     -0.88765838806365      1.79030951487629
  H   -1.67101921429144     -1.68878155261188      0.37408865188414
  N   1.70685939790197      0.12786201643122     -1.23827908972633
  O   1.20505525744549      0.99768219927110     -1.94511507744051
  O   2.88507052065891     -0.20754253402993     -1.23147542098881
