15

C	-0.424201	-0.041394	-1.439875
C	0.0	0.0	0.0
F	-1.80937	-0.277163	-1.59798
H	1.096489	0.0	0.0
H	0.091307	-0.860927	-1.95052
C	-0.129386	1.213301	-2.151689
N	0.076235	2.179561	-2.784451
C	-0.440189	-1.265845	0.723656
H	0.019194	-1.274482	1.715382
H	-0.09432	-2.160925	0.1968
H	-1.530366	-1.328628	0.833159
N	-0.461446	1.234685	0.635666
H	-1.274136	1.067716	1.217737
H	0.292637	1.56772	1.222963
F	2.643824	0.0	0.0
