15

C	-0.333434	-0.023058	-1.469728
C	0.0	0.0	0.0
F	-1.721656	-0.153837	-1.71791
H	1.096475	0.0	0.0
H	0.157311	-0.872346	-1.952817
C	0.085103	1.217363	-2.146412
N	0.378679	2.199684	-2.716728
C	-0.497377	-1.265287	0.678516
H	-0.121968	-1.266616	1.703069
H	-1.591982	-1.32606	0.705387
H	-0.107192	-2.154907	0.173274
N	-0.49213	1.189251	0.691626
H	0.176574	1.937087	0.549568
H	-1.390263	1.485051	0.321363
F	2.643562	0.0	0.0
