15

C	-0.548354	0.007678	-1.404739
C	0.0	0.0	0.0
F	-0.133115	1.147812	-2.093598
H	1.101782	0.0	0.0
H	-1.645711	0.050416	-1.384662
C	-0.138594	-1.172112	-2.187285
N	0.13172	-2.121108	-2.822897
C	-0.501938	-1.223638	0.743079
H	-1.59837	-1.25743	0.797169
H	-0.12728	-2.140479	0.281963
H	-0.10787	-1.201094	1.763058
N	-0.540699	1.221813	0.642997
H	-0.185576	1.199677	1.595193
H	-0.038551	1.992524	0.209779
F	2.67805	0.0	0.0
