15

C	-0.452155	0.073497	-1.444333
C	0.0	0.0	0.0
F	-0.199819	-1.110243	-2.136104
H	1.095556	0.0	0.0
H	0.103111	0.875207	-1.934108
C	-1.90356	0.343713	-1.560186
N	-3.056454	0.556487	-1.627153
C	-0.555973	-1.210202	0.722948
H	-0.110839	-1.259091	1.72037
H	-1.650336	-1.169978	0.826961
H	-0.291431	-2.129204	0.194816
N	-0.382186	1.291176	0.589031
H	-1.195199	1.199548	1.187924
H	0.403566	1.602963	1.147413
F	2.65942	0.0	0.0
