15

C	-0.476937	-0.052368	-1.439586
C	0.0	0.0	0.0
F	-0.030679	1.054515	-2.157933
H	1.095959	0.0	0.0
H	-1.578304	-0.016229	-1.488119
C	-0.04531	-1.265722	-2.157791
N	0.273835	-2.221602	-2.759148
C	-0.536218	-1.192702	0.77088
H	-1.636253	-1.219344	0.794394
H	-0.177818	-1.110085	1.797686
H	-0.168735	-2.136122	0.357624
N	-0.420196	1.255444	0.629672
H	-1.290847	1.599919	0.233999
H	0.300647	1.935939	0.420867
F	2.647788	0.0	0.0
