15

C	-0.462315	-0.071471	-1.441794
C	0.0	0.0	0.0
F	-0.184507	-1.306946	-2.023665
H	1.102567	0.0	0.0
H	0.066379	0.698271	-2.008235
C	-1.92279	0.145211	-1.563953
N	-3.087511	0.285322	-1.625078
C	-0.542584	-1.138643	0.841276
H	-1.634957	-1.090331	0.959567
H	-0.284497	-2.102569	0.396975
H	-0.080181	-1.094424	1.83082
N	-0.392588	1.338025	0.464436
H	0.394081	1.710951	0.981335
H	-1.196889	1.293719	1.078724
F	2.658193	0.0	0.0
