15

C	-0.434632	-0.064555	-1.434685
C	0.0	0.0	0.0
F	-1.820846	-0.311265	-1.577463
H	1.103847	0.0	0.0
H	0.080482	-0.888274	-1.93843
C	-0.157986	1.181662	-2.167916
N	0.028172	2.138657	-2.820496
C	-0.430987	-1.255938	0.746978
H	-0.096759	-2.158582	0.225325
H	0.0473	-1.252646	1.729714
H	-1.518902	-1.31526	0.877347
N	-0.457846	1.243699	0.620235
H	0.299248	1.581892	1.199616
H	-1.268121	1.087074	1.207476
F	2.640643	0.0	0.0
