15

C	-0.552196	0.018561	-1.403814
C	0.0	0.0	0.0
F	-0.116201	1.151595	-2.092677
H	1.101908	0.0	0.0
H	-1.648961	0.084543	-1.378347
C	-0.174037	-1.169116	-2.190682
N	0.062822	-2.133992	-2.815498
C	-0.50713	-1.220756	0.743934
H	-0.151153	-2.140753	0.274707
H	-1.602805	-1.23991	0.812504
H	-0.099301	-1.206297	1.758772
N	-0.531343	1.224236	0.649162
H	-0.042037	1.994971	0.200901
H	-0.148579	1.209344	1.591168
F	2.674274	0.0	0.0
