15

C	-0.301397	-0.039979	-1.506268
C	0.0	0.0	0.0
Br	-2.24903	-0.321183	-1.819607
H	1.094861	0.0	0.0
C	0.000635	1.216716	-2.207782
N	0.266803	2.122672	-2.910654
N	0.42795	-1.16839	-2.006875
H	1.394452	-1.095923	-1.677646
H	0.418616	-1.176331	-3.017694
C	-0.495233	-1.188225	0.670636
N	-0.858651	-2.147114	1.243088
N	-0.507337	1.239037	0.66492
O	-0.025319	2.294204	0.265253
O	-1.345333	1.119	1.554079
Cl	3.128648	0.0	0.0
