13
Coordinates from ORCA-job run
  C   0.56641433655887     -0.13789094054671     -0.27540883095993
  C   -0.77602118122856     -0.13934572444753      0.46606249903942
  Br  0.56583804585392     -1.48840387900082     -1.67218359027529
  H   -0.92352224950182     -1.13705041150063      0.88618823470787
  H   -0.67107296231267      0.56237273766610      1.29974681432370
  N   1.70560244521345     -0.50983088352197      0.67996730421299
  O   1.40955490411532     -1.27018532285593      1.59333776341354
  O   2.80990068182863     -0.04301303050690      0.43919820927822
  C   0.85189018384459      1.16280467152060     -0.85765105195502
  N   1.05176578107485      2.23609171683118     -1.29279094110321
  N   -1.81062794570245      0.30848742725124     -0.44256184192925
  H   -2.46436223906625      0.92429693395505      0.01697538570919
  H   -2.31535980067787     -0.46933329484369     -0.84187995446225
