13
Coordinates from ORCA-job run
  C   0.56771990105009     -0.40629543543234     -0.39548852950068
  C   -0.90240587013834     -0.48703447112414      0.01657525784150
  Br  1.24206205739239     -2.15430047374016     -0.90689994572156
  H   -1.46824333705790     -0.80432837579605     -0.86326227944811
  H   -0.99070014195593     -1.26453944411496      0.77735811517159
  N   1.38931241733950      0.05070298667318      0.81499258672462
  O   2.36224862635762      0.75515625305802      0.59194764593639
  O   1.01045147689661     -0.36348392581273      1.90177534781581
  C   0.76863425676592      0.53633078640346     -1.48338630515124
  N   0.85359191504438      1.26817269198065     -2.39904939208025
  N   -1.28718383750603      0.82694727070431      0.48449398972601
  H   -1.47115391277178      0.83838319655125      1.47633427204510
  H   -2.07533355141655      1.20528894064949     -0.01739076335918
