13
Coordinates from ORCA-job run
  C   0.55216735034497     -0.43435142057921     -0.38876471147495
  C   -0.91181802573316     -0.46577067427091      0.05052876218405
  Br  1.17756187308305     -2.21426359542546     -0.84914394688014
  H   -1.00426983966754     -1.21102026897014      0.84225397374800
  H   -1.50091794148582     -0.80279537712551     -0.80645300394196
  N   1.40479955739893      0.04638695866580      0.79078362312170
  O   2.38517200398766      0.72602754295570      0.52676450488499
  O   1.04055284590304     -0.32759903856051      1.89678373818826
  C   0.75418668540494      0.46403921916201     -1.51334933347820
  N   0.83721595510083      1.16503978039919     -2.45302137088668
  N   -1.25804373975347      0.87272138176209      0.47729557593903
  H   -2.03060667259047      1.26134649804290     -0.04073243631403
  H   -1.44600005199296      0.92123899394403      1.46705462490995
