13
Coordinates from ORCA-job run
  C   0.52676518087301     -0.10269653875116     -0.52540469171129
  C   -0.90374828210600      0.26329489282962     -0.10420618492067
  Br  0.57361834553052     -1.83921831997346     -1.36492154396123
  H   -1.51979115334053      0.26379055501139     -1.01179095870294
  H   -0.85692346510320      1.28452115184094      0.27949284896037
  N   1.37345320926774     -0.09363760438571      0.76706180138256
  O   1.87824822511396     -1.12497920458621      1.16254255482519
  O   1.41833713521345      1.01239425613625      1.29046157723292
  C   1.08975779104262      0.88683959131179     -1.43091850980429
  N   1.49697710262180      1.70421263007642     -2.17145172186857
  N   -1.33024418725028     -0.63053951853423      0.94859723275224
  H   -1.77901470367879     -1.45714238146158      0.57996188075198
  H   -1.96543519818431     -0.16683950951408      1.58157571506373
