13
Coordinates from ORCA-job run
  C   0.59024365236888     -0.12477118676867     -0.29791376184732
  C   -0.74805723735954     -0.27864112341883      0.43872755820183
  Br  0.78652142352563     -1.45189577250687     -1.69184154299928
  H   -0.68726214765655      0.36345144910692      1.32970166697855
  H   -0.81410767989744     -1.31205581734851      0.77789652348993
  N   1.73391077216937     -0.34717370077004      0.69509597739905
  O   1.57958263902733     -1.28020490131983      1.47200996451367
  O   2.69699223924929      0.40449794208119      0.62606105827236
  C   0.70887851999338      1.20583924585231     -0.87273550759934
  N   0.70954655018474      2.29666354892470     -1.31118769208447
  N   -1.82749148392278      0.04001968002472     -0.46655639355071
  H   -2.08804836931579      1.01462364870629     -0.41167362531999
  H   -2.64070887836651     -0.52935301256338     -0.28758422545426
