13
Coordinates from ORCA-job run
  C   0.56524620420263     -0.42777738058154     -0.38543750440031
  C   -0.90105307221903     -0.47675485217821      0.04636426843963
  Br  1.19376707281670     -2.18634148036284     -0.91167963397579
  H   -1.48649444100900     -0.83274833592689     -0.80752606985030
  H   -0.97787061171641     -1.21389178288581      0.84592854082866
  N   1.40194805671982      0.01701682492402      0.81944300084966
  O   1.12443875334130     -0.52133007646963      1.88045458927351
  O   2.27524950956608      0.84699779921234      0.61658799571932
  C   0.76217107899784      0.51158965426273     -1.47745430217397
  N   0.82874997704364      1.24741722713620     -2.39164174486727
  N   -1.25281797836265      0.84969462449213      0.50608651079448
  H   -1.83223454386540      1.34811619347444     -0.15289354626661
  H   -1.69910000551553      0.83601158490306      1.41076789562902
