12

C	-0.460928	0.063422	-1.423222
C	0.0	0.0	0.0
F	-1.843173	0.339795	-1.537123
H	1.100488	0.0	0.0
H	0.062169	0.872071	-1.942315
H	-0.328448	0.936207	0.476944
C	-0.230007	-1.195898	-2.153907
N	-0.083515	-2.183257	-2.770037
N	-0.488056	-1.205443	0.669429
H	0.27302	-1.553987	1.2398
H	-1.283127	-1.01165	1.266677
F	2.662619	0.0	0.0
