12

C	-0.455634	-0.084634	-1.440191
C	0.0	0.0	0.0
F	-0.223765	1.109613	-2.118151
H	1.092306	0.0	0.0
H	0.113911	-0.873055	-1.937039
H	-0.412509	0.913431	0.449451
C	-1.899787	-0.383214	-1.562525
N	-3.04745	-0.618899	-1.639274
N	-0.417451	-1.244825	0.6574
H	-1.215664	-1.106291	1.261606
H	0.364206	-1.555295	1.217978
F	2.674353	0.0	0.0
