12

C	-0.338049	0.08616	-1.461194
C	0.0	0.0	0.0
F	-1.722706	0.260259	-1.701526
H	1.093814	0.0	0.0
H	0.174669	0.939493	-1.910936
H	-0.368402	0.918975	0.473074
C	0.042156	-1.140929	-2.185749
N	0.277813	-2.135134	-2.7615
N	-0.520489	-1.179358	0.680622
H	0.13866	-1.936088	0.546172
H	-1.418241	-1.462055	0.303128
F	2.653406	0.0	0.0
