13

C	0.0	0.0	0.0
C	-0.381265	0.006538	-1.508869
F	1.39116	0.0	0.0
H	-1.474291	0.039511	-1.5921
H	-0.260716	-0.924631	0.491897
H	0.002121	0.909519	-1.980016
C	-0.397321	1.268933	0.794374
H	-0.056091	2.164528	0.274405
H	-1.481511	1.341371	0.88691
H	0.005207	1.22241	1.804512
C	0.063405	-1.178359	-2.203409
N	0.37652	-2.169313	-2.753077
F	-1.915439	0.0	0.0
