13

C	0.0	0.0	0.0
C	-0.590298	0.196628	-1.38331
F	1.391731	0.0	0.0
H	-0.324959	-0.636019	-2.042638
H	-0.331958	-0.982905	0.342514
H	-1.698211	0.170302	-1.135363
C	-0.484603	1.056345	0.966112
H	-1.578214	0.982058	0.937649
H	-0.094112	0.853834	1.967977
H	-0.138518	2.044664	0.648708
C	-0.174217	1.442851	-2.008044
N	0.161547	2.444017	-2.524198
F	-2.904695	0.0	0.0
