16

C	0.0	0.0	0.0
C	-0.376419	0.024664	-1.471551
Cl	1.953575	0.0	0.0
H	0.086596	-0.842746	-1.952905
H	0.086973	0.907417	-1.923696
N	-0.443308	1.146458	0.675352
H	-0.073125	1.988499	0.260505
H	-0.239193	1.129618	1.664935
N	-0.443319	-1.168488	0.636588
H	-0.230322	-1.188578	1.624277
H	-0.079522	-1.99612	0.188262
C	-1.890929	0.028467	-1.667193
H	-2.126684	0.044464	-2.734541
H	-2.3641	0.887543	-1.195384
H	-2.365563	-0.843502	-1.221146
Br	-5.485542	0.0	0.0
