16

C	0.0	0.0	0.0
C	-0.476644	-0.193719	-1.432877
Cl	1.846989	0.0	0.0
H	-0.053013	0.61229	-2.04209
H	-1.563758	-0.05406	-1.388287
N	-0.440436	1.274487	0.467413
H	-0.140656	2.017522	-0.150664
H	-0.101558	1.460411	1.403102
N	-0.443895	-1.08444	0.824786
H	-0.191631	-0.897584	1.787642
H	-1.467371	-1.052886	0.770265
C	-0.134109	-1.549621	-2.030163
H	-0.507413	-1.609661	-3.056158
H	0.94389	-1.721923	-2.042626
H	-0.599706	-2.346358	-1.450254
Br	-3.979275	0.0	0.0
