16

C	0.0	0.0	0.0
C	-0.35217	0.322945	-1.45453
Cl	1.864589	0.0	0.0
H	0.126037	-0.440726	-2.078403
H	0.126626	1.273579	-1.719507
N	-0.514518	0.974986	0.875593
H	-0.24598	0.786249	1.831147
H	-0.26167	1.913529	0.603165
N	-0.417191	-1.277198	0.503737
H	-1.429531	-1.241968	0.605457
H	-0.173596	-2.009021	-0.15131
C	-1.850451	0.383862	-1.715514
H	-2.352171	1.126351	-1.099539
H	-2.356783	-0.553404	-1.49126
H	-2.035547	0.616714	-2.768679
Br	-5.000363	0.0	0.0
