16

C	0.0	0.0	0.0
C	-0.470368	0.263876	-1.421255
Cl	1.852749	0.0	0.0
H	0.008849	-0.475824	-2.066863
H	-1.5501	0.073655	-1.397881
N	-0.444037	1.031015	0.878711
H	-0.271674	0.787178	1.844956
H	-0.012225	1.921867	0.672695
N	-0.432968	-1.306274	0.399662
H	-1.456248	-1.270725	0.372465
H	-0.150393	-1.486596	1.357585
C	-0.228588	1.681131	-1.918516
H	-0.85626	2.384902	-1.369066
H	0.820731	1.975898	-1.824753
H	-0.504882	1.75888	-2.973295
Br	-3.955894	0.0	0.0
