16

C	0.0	0.0	0.0
C	-0.432799	-0.335831	-1.427066
Cl	1.863236	0.0	0.0
H	0.043122	0.376103	-2.111564
H	-1.514565	-0.158504	-1.432459
N	-0.45727	1.28986	0.338508
H	-0.170038	1.537793	1.27467
H	-0.172268	1.988999	-0.330483
N	-0.448241	-0.880014	1.036975
H	-0.194938	-1.835706	0.824221
H	-1.468899	-0.792779	1.032661
C	-0.134129	-1.762591	-1.864903
H	-0.727155	-2.474858	-1.286656
H	0.92468	-2.008536	-1.756344
H	-0.410115	-1.898203	-2.913829
Br	-3.961461	0.0	0.0
