19

C	0.0	0.0	0.0
C	-0.300633	-0.021516	-1.565413
Cl	1.781939	0.0	0.0
H	0.481095	-0.666364	-1.968995
C	-0.26904	1.266713	0.835713
H	0.19619	2.129564	0.352138
H	0.187175	1.113115	1.813638
H	-1.336625	1.429818	0.968074
N	-0.56484	-1.16437	0.695406
O	-0.525607	-2.263908	0.030141
O	-0.533427	-1.144667	1.952148
C	-0.146533	1.381813	-2.134788
H	0.842758	1.806774	-1.935004
H	-0.306227	1.323552	-3.215121
H	-0.906151	2.050626	-1.711798
N	-1.542787	-0.579714	-2.114007
H	-2.302214	-0.018621	-1.736032
H	-1.653928	-1.481971	-1.649649
H	-2.076181	0.0	0.0
