19

C	0.0	0.0	0.0
C	-0.234519	0.084117	-1.576502
Cl	1.779982	0.0	0.0
H	0.381349	0.946217	-1.860496
C	-0.279269	1.309912	0.751888
H	0.233949	1.279832	1.713314
H	-1.345899	1.439628	0.923139
H	0.107153	2.147533	0.164044
N	-0.782657	-1.085095	0.625618
O	-0.839933	-2.185684	-0.019997
O	-0.778672	-1.073834	1.890488
C	-1.631487	0.362362	-2.122976
H	-1.506709	0.517041	-3.203661
H	-2.288536	-0.495066	-1.969664
H	-2.094028	1.246847	-1.683894
N	0.279191	-1.064661	-2.330249
H	-0.124862	-1.870827	-1.856755
H	1.277425	-1.127582	-2.171319
H	-2.008465	0.0	0.0
