18

C	-0.3761	-0.11819	-1.479972
C	0.0	0.0	0.0
F	-1.621451	-0.669896	-1.627142
H	1.094143	0.0	0.0
N	-0.44603	1.289169	-2.058842
O	-1.550115	1.766098	-2.287847
O	0.636121	1.83695	-2.225709
N	0.537641	-0.853174	-2.300631
H	1.484114	-0.539554	-2.069723
H	0.471887	-1.82802	-2.033554
C	-0.442362	-1.245438	0.758356
H	-0.113131	-2.164858	0.265042
H	-1.531714	-1.281059	0.858467
H	0.010597	-1.230044	1.752237
N	-0.484369	1.243249	0.58592
H	0.241678	1.626782	1.173048
H	-1.312652	1.088928	1.147214
Br	3.542909	0.0	0.0
