18

C	-0.36096	-0.1467	-1.478247
C	0.0	0.0	0.0
F	-1.628166	-0.651494	-1.666293
H	1.094362	0.0	0.0
N	-0.450371	1.271924	-2.095523
O	0.629451	1.797253	-2.34245
O	-1.554336	1.772146	-2.275985
N	0.574711	-0.962606	-2.128735
H	1.52093	-0.744544	-1.820627
H	0.50643	-0.91166	-3.135931
C	-0.469284	-1.234047	0.761654
H	-0.139772	-2.147481	0.263912
H	-1.561157	-1.253306	0.838516
H	-0.040109	-1.212173	1.766165
N	-0.470745	1.263281	0.547251
H	0.234639	1.628333	1.171593
H	-1.327961	1.1301	1.068479
Br	3.546905	0.0	0.0
