18

C	-0.372642	-0.033876	-1.475471
C	0.0	0.0	0.0
F	-1.639218	-0.502716	-1.694937
H	1.097805	0.0	0.0
N	-0.422983	1.416406	-2.019945
O	0.568956	2.095094	-1.772867
O	-1.378234	1.766316	-2.706558
N	0.548102	-0.814555	-2.194732
H	1.505328	-0.606219	-1.916041
H	0.423697	-0.73499	-3.194493
C	-0.486908	-1.275172	0.666591
H	-0.192311	-2.149599	0.086293
H	-0.031274	-1.353819	1.657397
H	-1.575921	-1.262313	0.766943
N	-0.585141	1.177363	0.644797
H	0.106575	1.918475	0.629535
H	-0.759013	0.956758	1.617926
Br	3.621652	0.0	0.0
