18

C	-0.329491	-0.136123	-1.496895
C	0.0	0.0	0.0
F	-1.601631	-0.60765	-1.681353
H	1.094566	0.0	0.0
N	-0.315074	1.26318	-2.104122
O	-1.387002	1.843821	-2.246277
O	0.792999	1.72501	-2.342753
N	0.56585	-0.927996	-2.273311
H	0.45075	-1.89081	-1.982383
H	1.518199	-0.654329	-2.030612
C	-0.483597	-1.237099	0.745045
H	-0.156049	-2.162407	0.264006
H	-0.059904	-1.20772	1.748832
H	-1.573997	-1.248248	0.820334
N	-0.492555	1.201147	0.65628
H	-1.421097	1.441985	0.330203
H	0.131033	1.972921	0.457655
Br	3.560837	0.0	0.0
