18

C	-0.478103	0.006426	-1.444777
C	0.0	0.0	0.0
F	-1.87889	0.270655	-1.447996
H	1.091748	0.0	0.0
N	0.034094	1.193764	-2.264689
O	0.685486	2.070579	-1.713108
O	-0.287624	1.182009	-3.452852
N	-0.157781	-1.127272	-2.184695
H	-0.541501	-1.080864	-3.118683
H	-0.400378	-1.981381	-1.707981
C	-0.460814	-1.286225	0.685098
H	-0.217661	-1.184408	1.742066
H	0.071283	-2.163047	0.308166
H	-1.541768	-1.434549	0.58907
N	-0.468294	1.147636	0.769547
H	-1.41634	1.381382	0.493524
H	0.129816	1.936741	0.55511
Br	3.625659	0.0	0.0
