18

C	-0.361772	-0.135553	-1.480405
C	0.0	0.0	0.0
F	-1.609826	-0.687023	-1.672945
H	1.094385	0.0	0.0
N	-0.508845	1.289193	-2.073404
O	0.547538	1.861748	-2.313374
O	-1.631916	1.747548	-2.243631
N	0.600307	-0.904714	-2.148631
H	1.541463	-0.666612	-1.840448
H	0.522953	-0.840687	-3.154393
C	-0.464216	-1.241463	0.751507
H	-0.130403	-2.14945	0.246498
H	-1.556031	-1.266168	0.827952
H	-0.034792	-1.225569	1.756109
N	-0.47636	1.255418	0.560809
H	-1.313086	1.109214	1.111758
H	0.244462	1.639403	1.156807
Br	3.559004	0.0	0.0
