18

C	-0.532561	0.043274	-1.429194
C	0.0	0.0	0.0
F	0.261588	0.880054	-2.180502
H	1.097418	0.0	0.0
N	-0.318506	-1.338211	-2.073221
O	0.839656	-1.662468	-2.288074
O	-1.313126	-2.033963	-2.296276
N	-1.881149	0.413979	-1.531816
H	-2.222453	0.707726	-0.626791
H	-2.440877	-0.306575	-1.961922
C	-0.506174	-1.223796	0.745011
H	-1.596137	-1.304403	0.705172
H	-0.19864	-1.156082	1.791428
H	-0.059525	-2.134155	0.341844
N	-0.516844	1.219706	0.653555
H	-0.035471	2.007519	0.227179
H	-0.186691	1.194974	1.612543
Br	3.60516	0.0	0.0
