16

C	0.0	0.0	0.0
C	-0.596864	-0.012823	-1.405543
F	1.363436	0.0	0.0
H	-1.710124	-0.082605	-1.199359
N	-0.503171	1.185582	0.616782
H	-1.535969	1.029056	0.571149
H	-0.208561	1.184632	1.588578
C	-0.389122	-1.23926	0.736823
N	-0.59369	-2.146205	1.454681
N	-0.106741	-1.108122	-2.27811
O	0.418775	-2.085411	-1.750814
O	-0.32224	-0.977977	-3.481624
N	-0.259624	1.262238	-2.099902
O	-1.171138	2.059811	-2.291661
O	0.916417	1.419036	-2.423671
F	-2.749681	0.0	0.0
