16

C	0.0	0.0	0.0
C	-0.302644	-0.223988	-1.515631
F	1.363058	0.0	0.0
H	-0.151102	-1.272883	-1.753329
N	-0.470646	1.225281	0.516837
H	-0.163524	1.285214	1.482623
H	-1.510535	1.047487	0.472981
C	-0.410904	-1.223836	0.741504
N	-0.542242	-2.195506	1.390419
N	0.740484	0.502268	-2.331994
O	0.901523	1.700702	-2.15334
O	1.349114	-0.194486	-3.149182
N	-1.619682	0.146206	-2.136869
O	-2.269567	-0.796129	-2.574443
O	-1.853665	1.335217	-2.285245
F	-2.527743	0.0	0.0
