16

C	0.0	0.0	0.0
C	-0.278604	0.002472	-1.530016
F	1.371535	0.0	0.0
H	-0.000237	-0.973003	-1.919337
N	-0.463634	1.131094	0.706766
H	-0.177184	1.016097	1.67525
H	-1.503568	0.97976	0.627706
C	-0.407945	-1.320313	0.549848
N	-0.525269	-2.367799	1.069636
N	0.666532	0.960086	-2.210612
O	0.720149	2.119045	-1.825854
O	1.310767	0.481259	-3.148641
N	-1.633735	0.29057	-2.120894
O	-2.182901	-0.679229	-2.632478
O	-1.975178	1.460663	-2.209383
F	-2.521294	0.0	0.0
