16

C	0.0	0.0	0.0
C	-0.567882	-0.009208	-1.428536
F	1.365084	0.0	0.0
H	-1.644758	0.240595	-1.300203
N	-0.51053	1.132388	0.687894
H	-1.542873	0.961441	0.621235
H	-0.232618	1.049909	1.660341
C	-0.371661	-1.283986	0.674808
N	-0.536993	-2.241329	1.334549
N	-0.476668	-1.34944	-2.070969
O	0.544736	-2.006395	-1.87511
O	-1.421425	-1.684302	-2.782624
N	0.166825	0.935268	-2.329518
O	0.297656	2.086183	-1.936662
O	0.54048	0.506645	-3.419993
F	-2.712563	0.0	0.0
