16

C	0.0	0.0	0.0
C	-0.291748	-0.166809	-1.514286
F	1.406066	0.0	0.0
H	-0.074326	-1.191947	-1.797658
N	-0.480904	1.182455	0.58372
H	-0.240148	1.158969	1.568059
H	-1.522404	1.018483	0.475883
C	-0.378643	-1.264757	0.688749
N	-0.502643	-2.250771	1.316209
N	0.672593	0.659603	-2.325566
O	0.840864	1.835199	-2.039493
O	1.195782	0.064275	-3.272708
N	-1.642991	0.128676	-2.109666
O	-2.236039	-0.85064	-2.545644
O	-1.944024	1.302245	-2.263452
F	-2.557454	0.0	0.0
