16
Coordinates from ORCA-job run
  C   0.79313453439098      0.20535592335419     -0.01771428302935
  C   -0.62339261424169      0.11728437617408     -0.59169376008827
  F   1.48602178099280      1.21999345909151     -0.67311692685792
  H   -0.52885826157937     -0.12945672223344     -1.66126434343665
  N   1.45893077160134     -1.05202998455433     -0.24393318722447
  H   2.35005397656055     -1.05488310401436      0.23929099102184
  H   1.64483413043798     -1.15711166070983     -1.23631293505475
  N   0.71638158174890      0.58400997839082      1.35899838250928
  H   1.64116145094869      0.70718616172764      1.75184906013003
  H   0.20050211448287     -0.12525333935573      1.86305564120693
  N   -1.25999021186213      1.40381762337601     -0.49943134562152
  H   -2.21366616374292      1.35351397091796     -0.83524163896072
  H   -1.26200544248321      1.69117074008403      0.47193218121974
  N   -1.30294209685092     -0.93130392450343      0.18162196002919
  H   -0.83643159416837     -1.81755361473644      0.02222212691662
  H   -2.26273395623551     -1.01273988300870     -0.13226192275997
