16
Coordinates from ORCA-job run
  C   0.71143644342041     -0.36430821686199      0.00693295514723
  C   -0.66371485278402      0.31782388173786     -0.07722277145142
  F   0.71222125339559     -1.35365310897347     -0.96690532977419
  H   -0.64271560389315      1.14583463763217      0.65080443809007
  N   0.85865214966559     -1.03275968326555      1.27025257486110
  H   1.78623552114865     -1.44069317189720      1.30608766992833
  H   0.76430309418585     -0.37363057477723      2.03368148350930
  N   1.82062146171704      0.49192914774502     -0.31095422483305
  H   1.56701048686379      1.03793135694879     -1.12846661260581
  H   1.98565335941236      1.13128479466899      0.45620630677504
  N   -1.71059611809475     -0.65655154016582      0.18508609373314
  H   -2.51846648224630     -0.21468154519647      0.60375489727035
  H   -1.36338836232094     -1.37224962768831      0.81234365505340
  N   -0.76819150657894      0.92797192920564     -1.39453077522882
  H   -1.54480158742274      1.57765622174598     -1.40785103485784
  H   -0.99625925646845      0.17809549914159     -2.03921932561681
