16
Coordinates from ORCA-job run
  C   0.70530252259366     -0.20341842224596     -0.00276542006637
  C   -0.76418333728617     -0.11479300558743     -0.42819414963852
  F   1.01970233955119     -1.61362632453570     -0.08416571932863
  H   -0.81103233745169     -0.49774924594328     -1.45984756113172
  N   0.86604783478098      0.26364580948186      1.31894168817578
  H   1.77157487064375     -0.00083243936202      1.68687719285088
  H   0.13435600660625     -0.15063652535491      1.88587839593121
  N   1.53886815164960      0.50439542494834     -0.91449328633306
  H   2.42921008939290      0.73445909064171     -0.49269754757203
  H   1.70025322859275     -0.06198081818767     -1.73746670330749
  N   -1.29191817758731      1.23179009013693     -0.43434158322538
  H   -1.14371465126197      1.62335499499131      0.49036349320981
  H   -0.73383608687801      1.78408467807953     -1.07509993250045
  N   -1.55010655190173     -0.88911429168438      0.51960279203679
  H   -2.52926671870953     -0.73584351349185      0.31289923595796
  H   -1.34025718273469     -1.87373550188648      0.41550910494121
