8
Coordinates from ORCA-job run
  C   1.09052890207119      0.44910017874422      0.20133195393358
  C   -0.05524600481515     -0.22312367176143      0.39268226608983
  H   1.80833478544554      0.54276428411214      1.00437867759859
  H   1.34180461971800      0.89493566345637     -0.75579711996777
  H   -0.26755265178995     -0.66821681236576      1.36183746473830
  N   -1.01480940073026     -0.51621588015935     -0.57730477010296
  H   -1.95846536979392     -0.54165405267768     -0.22474855770436
  H   -0.94559488010545      0.06241029065148     -1.40137991458521
