8
Coordinates from ORCA-job run
  C   1.11058771384665      0.38903937898911      0.21671785978277
  C   0.05130465876723     -0.43140696134679      0.13614460116237
  H   2.02265271549474      0.05632471643122      0.69250135397766
  H   1.09641997741992      1.38797722011539     -0.20736579694090
  H   0.10560066887061     -1.43053332166376      0.56187908699041
  N   -1.14145239681661     -0.17800742722608     -0.54256524522304
  H   -1.29216068841901      0.79947660936168     -0.74364842298034
  H   -1.95295264916353     -0.59387021466077     -0.11366343676894
