8
Coordinates from ORCA-job run
  C   1.09023930674698      0.45150618053024      0.19848502809058
  C   -0.05276356886452     -0.22491553911133      0.39229601002767
  H   1.33577419295105      0.90034228156600     -0.75873324406232
  H   1.81259127899412      0.54242600125734      0.99774460273996
  H   -0.26041506922918     -0.67316481757527      1.36097588124047
  N   -1.01571760252477     -0.51630209873422     -0.57476323503618
  H   -1.95794897230924     -0.54479343927495     -0.21868220785666
  H   -0.95075956576444      0.06490143134220     -1.39732283514353
