8
Coordinates from ORCA-job run
  C   1.12116812673886      0.37650638098833      0.17879452452650
  C   0.01245439111502     -0.37589877358729      0.25662282407335
  H   1.12386291617093      1.34728845713860     -0.30648801936628
  H   2.04404965920724      0.03434662945640      0.62623293996664
  H   0.04455222634111     -1.33873931229381      0.76088850543818
  N   -1.26510440124704     -0.01348829897244     -0.17328940241950
  H   -1.26703367922362      0.75604778717659     -0.82649161132274
  H   -1.81394923910250     -0.78606286990637     -0.51626976089615
