8
Coordinates from ORCA-job run
  C   1.16411049286161      0.24128448761870      0.13336224829969
  C   -0.12075674504611      0.00213826054848      0.43910241841814
  H   1.54580929942564      0.12335340368289     -0.87577633278834
  H   1.86249016956847      0.53496079972311      0.90470970189157
  H   -0.46527376796681      0.11724648718824      1.46400373083769
  N   -1.09919740555713     -0.48895479236737     -0.42641459822530
  H   -0.86168124192788     -0.38949474036434     -1.40228981883615
  H   -2.02550080135779     -0.14053390602970     -0.23669734959730
