19

C	-0.460245	-0.098455	-1.451753
C	0.0	0.0	0.0
F	-1.766565	-0.538608	-1.513992
H	1.093234	0.0	0.0
N	-0.472884	1.301852	-2.039143
O	-1.55336	1.806091	-2.317839
O	0.625842	1.819826	-2.186955
C	0.40821	-0.97255	-2.320969
H	0.063593	-0.931021	-3.356909
H	0.33486	-2.001958	-1.965874
H	1.44728	-0.649504	-2.243909
C	-0.45368	-1.227509	0.784217
H	-0.149301	-2.161231	0.305823
H	0.011421	-1.195711	1.771626
H	-1.541485	-1.236987	0.898707
N	-0.470385	1.252252	0.589941
H	0.28784	1.66806	1.113224
H	-1.251631	1.093548	1.214066
Cl	3.455708	0.0	0.0
