19

C	-0.381515	-0.006673	-1.480728
C	0.0	0.0	0.0
F	-0.119916	-1.243611	-2.020306
H	1.101961	0.0	0.0
N	-1.891775	0.158412	-1.606663
O	-2.33717	1.277122	-1.850416
O	-2.577923	-0.844601	-1.408686
C	0.331347	1.046798	-2.278429
H	0.099178	2.02705	-1.872223
H	1.400453	0.851347	-2.180007
H	0.032009	0.99787	-3.327586
C	-0.493967	-1.215363	0.76924
H	-1.58009	-1.19384	0.905308
H	-0.011541	-1.217298	1.749865
H	-0.231523	-2.141025	0.25733
N	-0.42314	1.275737	0.582509
H	0.364748	1.679497	1.070312
H	-1.171767	1.133235	1.248664
Cl	3.430813	0.0	0.0
