19

C	-0.457119	-0.021279	-1.457843
C	0.0	0.0	0.0
F	-1.839185	-0.071549	-1.509695
H	1.09343	0.0	0.0
N	-0.087208	1.314436	-2.085199
O	-0.965745	2.168534	-2.192355
O	1.088573	1.447222	-2.404766
C	0.118927	-1.125047	-2.306056
H	-0.138113	-0.967915	-3.356445
H	1.202087	-1.148571	-2.183678
H	-0.312382	-2.072682	-1.982173
C	-0.485131	-1.25419	0.718516
H	-1.576772	-1.325483	0.700868
H	-0.156718	-1.180812	1.755099
H	-0.056999	-2.162321	0.289285
N	-0.464662	1.185488	0.714262
H	0.171508	1.954188	0.542331
H	-1.38792	1.45413	0.393761
Cl	3.44278	0.0	0.0
