19

C	-0.451303	-0.129311	-1.452498
C	0.0	0.0	0.0
F	-1.732238	-0.623538	-1.537413
H	1.099	0.0	0.0
N	-0.510825	1.258886	-2.075646
O	0.52297	1.914707	-2.005866
O	-1.549392	1.612197	-2.622222
C	0.474868	-0.968474	-2.300705
H	1.499519	-0.607648	-2.193713
H	0.150147	-0.940445	-3.344561
H	0.433341	-2.000888	-1.950717
C	-0.478342	-1.206125	0.796232
H	0.030362	-1.211242	1.760821
H	-1.557229	-1.157596	0.952623
H	-0.241045	-2.145339	0.297996
N	-0.550258	1.233358	0.58179
H	0.164592	1.947651	0.509247
H	-0.703601	1.081479	1.569465
Cl	3.50884	0.0	0.0
