19

C	-0.449534	0.018886	-1.47039
C	0.0	0.0	0.0
F	0.09831	1.123692	-2.073973
H	1.095934	0.0	0.0
N	0.129295	-1.184055	-2.20135
O	1.192204	-1.044096	-2.785996
O	-0.528465	-2.226642	-2.129815
C	-1.938043	0.050298	-1.734203
H	-2.437057	-0.816964	-1.310287
H	-2.113063	0.066952	-2.811604
H	-2.353544	0.965061	-1.31003
C	-0.499571	-1.212889	0.767727
H	-0.178692	-2.148415	0.311655
H	-1.592059	-1.221636	0.848881
H	-0.081631	-1.153343	1.772188
N	-0.402297	1.218748	0.694065
H	-1.396898	1.390137	0.605883
H	0.105894	2.004294	0.309004
Cl	3.5336	0.0	0.0
