15

C	-0.397698	-0.056582	-1.487187
C	0.0	0.0	0.0
F	-1.778095	-0.226592	-1.591833
H	1.097427	0.0	0.0
C	-0.080813	1.232488	-2.128186
N	0.139741	2.262805	-2.645226
C	0.305109	-1.203455	-2.184204
H	0.046824	-1.20163	-3.245035
H	-0.022718	-2.143609	-1.737058
H	1.385089	-1.097293	-2.050994
C	-0.46356	-1.211251	0.674759
N	-0.827137	-2.195427	1.202324
C	-0.52895	1.187535	0.663847
N	-0.961974	2.144458	1.189689
Cl	3.155603	0.0	0.0
