15

C	-0.403693	-0.042227	-1.486877
C	0.0	0.0	0.0
F	-1.791734	-0.152571	-1.584296
H	1.097456	0.0	0.0
C	-0.030137	1.228329	-2.131561
N	0.250811	2.246542	-2.644158
C	0.243512	-1.222137	-2.182265
H	-0.130315	-2.145861	-1.734757
H	1.32659	-1.16514	-2.051891
H	-0.014499	-1.208052	-3.242087
C	-0.472525	-1.209158	0.673286
N	-0.840577	-2.190266	1.203612
C	-0.518859	1.189283	0.67127
N	-0.938986	2.143759	1.212419
Cl	3.144556	0.0	0.0
