15

C	-0.396292	-0.05466	-1.488882
C	0.0	0.0	0.0
F	-1.777997	-0.226223	-1.592602
H	1.097426	0.0	0.0
C	-0.082241	1.23287	-2.132021
N	0.144035	2.264083	-2.645876
C	0.307201	-1.198964	-2.187436
H	1.386889	-1.088493	-2.05862
H	-0.015089	-2.140539	-1.740637
H	0.045037	-1.197013	-3.247576
C	-0.465213	-1.212397	0.67237
N	-0.827938	-2.198674	1.196657
C	-0.529742	1.18537	0.667572
N	-0.959192	2.142612	1.195953
Cl	3.153666	0.0	0.0
