15

C	-0.480053	-0.014259	-1.470563
C	0.0	0.0	0.0
F	0.034533	1.117661	-2.075289
H	1.096899	0.0	0.0
C	0.057583	-1.201493	-2.161254
N	0.380231	-2.157922	-2.761482
C	-1.991448	0.021476	-1.616999
H	-2.37513	0.919007	-1.128446
H	-2.24805	0.053901	-2.677297
H	-2.443716	-0.862803	-1.165262
C	-0.488316	-1.187668	0.695594
N	-0.894225	-2.15325	1.227765
C	-0.485771	1.210775	0.658855
N	-0.897112	2.183877	1.17224
Cl	3.138888	0.0	0.0
