15

C	-0.387964	0.023283	-1.497354
C	0.0	0.0	0.0
F	-0.013845	-1.200961	-2.026058
H	1.097359	0.0	0.0
C	-1.850617	0.143631	-1.671863
N	-3.009843	0.266444	-1.819983
C	0.360205	1.122238	-2.22524
H	0.042832	2.104932	-1.870805
H	0.15919	1.042884	-3.295248
H	1.426915	0.988993	-2.026241
C	-0.52391	-1.189306	0.664903
N	-0.962668	-2.144029	1.189278
C	-0.469896	1.215991	0.658575
N	-0.84032	2.210283	1.162782
Cl	3.175942	0.0	0.0
