15

C	-0.398628	-0.060176	-1.487373
C	0.0	0.0	0.0
F	-1.781109	-0.228395	-1.588469
H	1.097449	0.0	0.0
C	-0.079354	1.223705	-2.137118
N	0.158636	2.253607	-2.649701
C	0.301998	-1.210609	-2.18045
H	0.045628	-1.210455	-3.240742
H	1.381463	-1.104314	-2.047228
H	-0.027985	-2.15	-1.731534
C	-0.465544	-1.209488	0.677629
N	-0.83041	-2.190351	1.210406
C	-0.52885	1.188063	0.663587
N	-0.965925	2.143572	1.188259
Cl	3.153067	0.0	0.0
