13

C	-0.527775	0.124549	-1.430959
C	0.0	0.0	0.0
Cl	-0.167099	-1.334648	-2.408089
H	1.094157	0.0	0.0
H	-1.616765	0.226872	-1.420627
C	0.022333	1.30892	-2.092296
N	0.401904	2.26258	-2.662271
C	-0.506749	-1.206175	0.63582
N	-0.905035	-2.15143	1.213185
N	-0.38484	1.21936	0.713602
H	-1.05816	1.031194	1.444374
H	0.467713	1.581848	1.136975
H	2.63686	0.0	0.0
