13

C	-0.456212	0.083314	-1.462739
C	0.0	0.0	0.0
Cl	0.044877	-1.353626	-2.407648
H	1.095177	0.0	0.0
H	-1.549714	0.107808	-1.523226
C	0.048072	1.298103	-2.105977
N	0.421998	2.266588	-2.654947
C	-0.56573	-1.188961	0.622922
N	-1.014869	-2.151592	1.128306
N	-0.336998	1.195269	0.758067
H	0.474467	1.805346	0.719774
H	-1.15053	1.682467	0.401831
H	2.626508	0.0	0.0
