13

C	-0.40182	0.067946	-1.458209
C	0.0	0.0	0.0
Cl	-2.164291	0.405584	-1.687187
H	1.095883	0.0	0.0
H	0.127969	0.922885	-1.883576
C	-0.068007	-1.143578	-2.200874
N	0.160198	-2.121085	-2.809153
C	-0.521835	-1.186316	0.665001
N	-0.947267	-2.115399	1.249186
N	-0.323881	1.253713	0.665547
H	-1.174242	1.184056	1.209067
H	0.456841	1.469043	1.279685
H	2.62037	0.0	0.0
