13

C	-0.543847	0.127436	-1.423283
C	0.0	0.0	0.0
Cl	-0.17302	-1.322664	-2.410006
H	1.099706	0.0	0.0
H	-1.633733	0.213729	-1.402132
C	-0.020603	1.322417	-2.087604
N	0.318649	2.276676	-2.681445
C	-0.511492	-1.199433	0.642437
N	-0.930261	-2.142145	1.209204
N	-0.35203	1.225358	0.718606
H	0.51124	1.563717	1.139344
H	-1.028313	1.055125	1.451896
H	2.627827	0.0	0.0
