13

C	-0.543359	0.107086	-1.426121
C	0.0	0.0	0.0
Cl	-0.161869	-1.350981	-2.395625
H	1.0941	0.0	0.0
H	-1.634006	0.183108	-1.404661
C	-0.026852	1.2977	-2.100476
N	0.344854	2.255369	-2.668867
C	-0.514387	-1.191436	0.654794
N	-0.905133	-2.12554	1.255409
N	-0.35875	1.234003	0.702397
H	-1.021458	1.066327	1.44724
H	0.506187	1.590884	1.104945
H	2.632782	0.0	0.0
