13

C	-0.394106	0.055637	-1.460888
C	0.0	0.0	0.0
Cl	-2.158951	0.36833	-1.704468
H	1.095921	0.0	0.0
H	0.12783	0.914839	-1.886635
C	-0.037687	-1.155581	-2.19519
N	0.212363	-2.132844	-2.796415
C	-0.522573	-1.181379	0.671788
N	-0.946043	-2.107616	1.261757
N	-0.328799	1.258876	0.652886
H	0.451036	1.4821	1.265166
H	-1.17892	1.19235	1.196565
H	2.618924	0.0	0.0
