15

C	0.0	0.0	0.0
C	-0.406734	0.515713	-1.429043
Cl	1.789464	0.0	0.0
H	0.461046	0.29139	-2.060753
C	-0.43655	0.885038	1.07802
N	-0.62481	1.63498	1.96401
C	-0.429742	-1.446742	0.211853
H	-0.032713	-1.802576	1.163682
H	-1.518706	-1.480576	0.219074
H	-0.026088	-2.060445	-0.596313
C	-0.557267	1.97102	-1.464972
N	-0.601488	3.14266	-1.518534
C	-1.505612	-0.180156	-2.121042
N	-2.014787	-0.779831	-2.999428
Cl	-3.330868	0.0	0.0
