15

C	0.0	0.0	0.0
C	-0.44065	-0.311221	-1.485758
Cl	1.789423	0.0	0.0
H	0.466796	-0.189438	-2.090327
C	-0.393289	1.362762	0.366317
N	-0.539724	2.481767	0.694787
C	-0.431657	-1.021876	1.042607
H	-1.521101	-1.069384	1.051518
H	0.003223	-1.993041	0.797896
H	-0.057333	-0.698024	2.014695
C	-1.39923	0.612957	-2.109262
N	-1.928375	1.356447	-2.84997
C	-0.839577	-1.708998	-1.648294
N	-1.033495	-2.853852	-1.817413
Cl	-3.303854	0.0	0.0
