15

C	0.0	0.0	0.0
C	-0.59976	-0.133878	-1.416278
Cl	1.785414	0.0	0.0
H	-1.707928	-0.08783	-1.228486
C	-0.396222	1.302012	0.551808
N	-0.621606	2.369748	0.98771
C	-0.47417	-1.143061	0.891851
H	-0.091766	-0.992976	1.902838
H	-1.56676	-1.139222	0.897254
H	-0.089632	-2.088418	0.502964
C	-0.260583	-1.42394	-2.015178
N	-0.001801	-2.462572	-2.499106
C	-0.197294	0.957339	-2.300777
N	0.115139	1.836403	-3.015204
Cl	-3.538133	0.0	0.0
