15

C	0.0	0.0	0.0
C	-0.498639	-0.22075	-1.478057
Cl	1.789424	0.0	0.0
H	0.406448	-0.242066	-2.098458
C	-0.384867	1.327642	0.486958
N	-0.526307	2.428822	0.873343
C	-0.416247	-1.098544	0.975529
H	0.003174	-0.868529	1.956421
H	-1.504671	-1.127755	1.018744
H	-0.017475	-2.055093	0.632088
C	-1.291292	0.880468	-2.033372
N	-1.682136	1.798428	-2.653832
C	-1.129198	-1.528902	-1.67272
N	-1.448864	-2.63292	-1.912766
Cl	-3.282494	0.0	0.0
