15

C	0.0	0.0	0.0
C	-0.491326	-0.003785	-1.499576
Cl	1.789629	0.0	0.0
H	0.41986	-0.001621	-2.111567
C	-0.397792	1.229545	0.687452
N	-0.575974	2.248699	1.245365
C	-0.410772	-1.243485	0.786589
H	0.00158	-1.170337	1.794671
H	-1.498734	-1.289361	0.81859
H	0.001681	-2.129223	0.299239
C	-1.216585	1.201231	-1.909822
N	-1.599069	2.208463	-2.378164
C	-1.187156	-1.239361	-1.872933
N	-1.519696	-2.287821	-2.284895
Cl	-3.275103	0.0	0.0
