12

C	-0.531539	-0.065687	-1.422964
C	0.0	0.0	0.0
Br	0.000269	1.491976	-2.445784
H	1.09097	0.0	0.0
H	-0.097427	-0.936826	-1.912206
H	-1.618723	-0.107191	-1.434827
C	-0.50441	-1.152183	0.742313
N	-0.911092	-2.102168	1.301233
N	-0.532925	1.236145	0.684467
O	0.261867	1.944285	1.285514
O	-1.74514	1.426108	0.588081
Br	3.40531	0.0	0.0
