12

C	-0.486215	0.040887	-1.442732
C	0.0	0.0	0.0
Br	-0.179951	-1.661515	-2.318446
H	1.094768	0.0	0.0
H	-1.552414	0.25291	-1.506196
H	0.086009	0.78758	-1.985731
C	-0.545099	-1.101039	0.778062
N	-0.99374	-2.004978	1.378957
N	-0.369905	1.296249	0.678923
O	-0.543165	2.272041	-0.048971
O	-0.414746	1.302361	1.902788
Br	3.319502	0.0	0.0
