12

C	-0.545603	-0.04502	-1.418646
C	0.0	0.0	0.0
Br	0.029979	1.500046	-2.436278
H	1.090962	0.0	0.0
H	-1.633912	-0.045611	-1.418565
H	-0.149581	-0.928271	-1.918695
C	-0.514101	-1.149489	0.738077
N	-0.928708	-2.097262	1.294944
N	-0.513148	1.241782	0.694304
O	-1.721574	1.455088	0.599653
O	0.295321	1.933328	1.297142
Br	3.395934	0.0	0.0
