12

C	-0.37256	-0.000148	-1.462272
C	0.0	0.0	0.0
Br	-2.298099	0.017824	-1.768503
H	1.095803	0.0	0.0
H	0.044032	0.882568	-1.939509
H	0.023385	-0.902133	-1.926017
C	-0.51558	-1.142791	0.735293
N	-0.901068	-2.104681	1.287733
N	-0.40841	1.279977	0.671205
O	-0.733471	1.228079	1.852765
O	-0.325927	2.299493	-0.005719
Br	3.306821	0.0	0.0
