12

C	-0.522825	0.005543	-1.433203
C	0.0	0.0	0.0
Br	-0.030369	-1.61895	-2.35872
H	1.090697	0.0	0.0
H	-1.609443	0.081223	-1.450538
H	-0.059696	0.837268	-1.967137
C	-0.542755	-1.096831	0.791085
N	-0.969285	-1.986596	1.427777
N	-0.492052	1.300128	0.603981
O	0.337012	2.158716	0.870066
O	-1.711674	1.406652	0.741902
Br	3.387036	0.0	0.0
