12

C	-0.364899	0.011374	-1.465145
C	0.0	0.0	0.0
Br	-2.286597	0.035532	-1.783462
H	1.095772	0.0	0.0
H	0.057842	0.896458	-1.932661
H	0.033273	-0.887934	-1.932189
C	-0.518633	-1.149396	0.722859
N	-0.910503	-2.10765	1.277073
N	-0.414584	1.27493	0.676096
O	-0.772866	1.214201	1.848373
O	-0.307721	2.299581	0.010654
Br	3.304996	0.0	0.0
