12

C	-0.525475	-0.072244	-1.42552
C	0.0	0.0	0.0
Br	-0.041197	1.505791	-2.440772
H	1.090974	0.0	0.0
H	-1.610328	-0.14899	-1.445714
H	-0.058738	-0.925046	-1.916414
C	-0.495284	-1.159713	0.737931
N	-0.894823	-2.115041	1.292668
N	-0.546996	1.227966	0.682931
O	0.240172	1.960673	1.264264
O	-1.764659	1.38972	0.601787
Br	3.397388	0.0	0.0
