15
Coordinates from ORCA-job run
  C   -0.49420057585780     -0.08971441141778      0.50941593630334
  C   0.51121462973543     -0.21440459336093     -0.62823555858311
  F   -0.19428821858138     -1.06791520659137      1.46158976925873
  H   0.36116451729907     -1.20619517355557     -1.06758513704459
  H   0.25221774222490      0.52384027278981     -1.39409225576178
  C   -1.92939538509952     -0.30373569199293      0.06648070932827
  H   -2.59596898496724     -0.26454692261090      0.92905105652888
  H   -2.23006871284263      0.46218174224271     -0.65051514208848
  H   -2.01274740710620     -1.28680640761405     -0.40083280522992
  C   -0.35363348960306      1.22039009900368      1.17625022683917
  N   -0.25109517622657      2.27827530106890      1.67463843241019
  C   1.95792471844761     -0.04365074769861     -0.17958588687723
  H   2.20600311820729     -0.76457898505991      0.60008801570556
  H   2.13719286959627      0.96040538298262      0.21084645179324
  H   2.63668035477382     -0.20354465818567     -1.01951381258226
