15
Coordinates from ORCA-job run
  C   -0.45392101159571     -0.05810363404496      0.73544117287845
  C   0.94457882458326      0.32933070151342      0.26188668296888
  F   -0.39239639116649     -1.35857448286859      1.24466434021750
  H   1.61002393260954      0.22821975396787      1.12444899105694
  H   0.93414064340117      1.38937572932144     -0.01103418013450
  C   -1.51758561808223     -0.03824519014115     -0.34659593676869
  H   -1.26892900706726     -0.77071583390173     -1.11463469911110
  H   -2.48586831162079     -0.29929899123833      0.08223893568335
  H   -1.58588052721129      0.95242741997321     -0.80043706060059
  C   -0.85074197247270      0.82534079333515      1.84968193083613
  N   -1.16479355623997      1.55557414305130      2.71352851935570
  C   1.45214039718690     -0.52637583375388     -0.89407179894155
  H   0.91175644314663     -0.32729830834710     -1.82101001534860
  H   2.50716631923137     -0.31418958608202     -1.07749044335401
  H   1.35930983529758     -1.58746668078466     -0.65761643873791
