15
Coordinates from ORCA-job run
  C   -0.51438040648975      0.03517231784543      0.49405634836860
  C   0.59254056947744     -0.43320712366200     -0.44251969768005
  F   -0.18250149258538     -0.36669685117538      1.79061744258704
  H   0.60171332748306     -1.52687490273089     -0.38735518090806
  H   0.31165109750424     -0.16070729621346     -1.46500236133029
  C   -1.87095914483246     -0.55755571166299      0.16169607987458
  H   -2.20033426105424     -0.23566780479738     -0.82768521340159
  H   -1.79627914567135     -1.64644509131036      0.17991193396038
  H   -2.60697599832097     -0.24098778145368      0.90192554183910
  C   -0.58806478723096      1.51000485232464      0.50254236391304
  N   -0.65217031517228      2.68182739507688      0.47406955249595
  C   1.96375467365796      0.13042014360949     -0.08872439496115
  H   1.98784366748725      1.21669817045109     -0.19890763461137
  H   2.22654012681169     -0.11621239127732      0.94055066119175
  H   2.72762208893575     -0.29076792502406     -0.74517544133793
