15
Coordinates from ORCA-job run
  C   -0.52597099293048     -0.19170256820130      0.77287472763322
  C   0.82039507997069     -0.68757477150123      0.26001199464278
  F   -0.95617243513646     -1.09563302425807      1.74702907040062
  H   0.64916019128331     -1.68756707830703     -0.15134335066252
  H   1.47435613945881     -0.80464133127067      1.12911386875772
  C   -1.60664304730395     -0.11482144211494     -0.28922104382752
  H   -2.56127898554096      0.12587660902052      0.18056134941514
  H   -1.69005375474460     -1.08498735253888     -0.78359947508043
  H   -1.37944832353176      0.65054524534356     -1.03191869555754
  C   -0.36727148617346      1.11892884119699      1.43406367162798
  N   -0.23699107147970      2.17601015411577      1.92793063518233
  C   1.46413859809595      0.22659008936713     -0.77696382853605
  H   0.86955095771497      0.28576542506395     -1.69035365508768
  H   1.59792743009214      1.23832765540616     -0.38716272300449
  H   2.44930170022550     -0.15511645132195     -1.05102254590358
