17

C	0.0	0.0	0.0
C	-0.470682	-0.027571	-1.463431
F	1.387393	0.0	0.0
H	-1.567105	-0.019703	-1.468704
N	-0.489511	1.149334	0.667436
H	-1.488201	1.240691	0.445115
H	-0.420837	1.016271	1.671444
C	-0.349104	-1.301884	0.639991
N	-0.54592	-2.342705	1.148499
C	0.109444	-1.18656	-2.248199
H	-0.276248	-2.126986	-1.843618
H	-0.198783	-1.112371	-3.293025
H	1.198962	-1.184504	-2.200543
N	-0.040564	1.27129	-2.083498
O	-0.840316	2.204933	-2.056908
O	1.086397	1.320292	-2.583447
Br	-3.711732	0.0	0.0
