17

C	0.0	0.0	0.0
C	-0.560822	0.141689	-1.415322
F	1.401438	0.0	0.0
H	-1.659033	0.103057	-1.287318
N	-0.514376	0.969194	0.87586
H	-0.455958	0.71467	1.847944
H	-0.154984	1.887991	0.6752
C	-0.371348	-1.345988	0.496856
N	-0.518294	-2.439326	0.898166
C	-0.049285	-0.911411	-2.381514
H	-0.324261	-1.902352	-2.017402
H	-0.506162	-0.764823	-3.358699
H	1.038392	-0.85747	-2.47358
N	-0.272368	1.494031	-1.998437
O	0.394136	2.312142	-1.360824
O	-0.729569	1.701555	-3.118825
Br	-3.823738	0.0	0.0
