17

C	0.0	0.0	0.0
C	-0.503166	0.021619	-1.449177
F	1.380421	0.0	0.0
H	-1.589149	0.158669	-1.407324
N	-0.463207	1.145119	0.701973
H	-0.251978	1.043703	1.689048
H	-1.481855	1.181623	0.597475
C	-0.354943	-1.306125	0.629406
N	-0.522105	-2.326596	1.187746
C	-0.107213	-1.208901	-2.235942
H	-0.664419	-2.066782	-1.855375
H	-0.364732	-1.075866	-3.288442
H	0.963376	-1.398411	-2.159474
N	0.061356	1.252156	-2.096095
O	-0.634768	2.264022	-2.090073
O	1.182008	1.168275	-2.60166
Br	-3.668232	0.0	0.0
