17

C	0.0	0.0	0.0
C	-0.452718	-0.002831	-1.485937
F	1.379707	0.0	0.0
H	-1.484608	0.358963	-1.487783
N	-0.455558	1.080696	0.80714
H	-0.339261	1.939733	0.278548
H	-1.461481	0.942507	0.93904
C	-0.393265	-1.278881	0.638658
N	-0.557822	-2.317641	1.160026
C	-0.335635	-1.341271	-2.175568
H	-1.095494	-2.001897	-1.75562
H	-0.523835	-1.233361	-3.244529
H	0.653689	-1.779488	-2.039426
N	0.380787	1.036291	-2.173791
O	1.219693	0.677369	-2.998092
O	0.185343	2.209075	-1.849183
Br	-3.59745	0.0	0.0
