13

C	-0.25045	-0.009637	-1.514787
C	0.0	0.0	0.0
F	0.22285	1.172229	-2.037668
H	1.097507	0.0	0.0
C	0.469121	-1.136476	-2.139925
N	0.961229	-2.053229	-2.684301
C	-1.683361	-0.107948	-1.867947
N	-2.828263	-0.174794	-2.125509
C	-0.493725	-1.218252	0.607221
N	-0.865271	-2.221489	1.096368
C	-0.556615	1.191695	0.604922
N	-0.980474	2.170588	1.100264
F	2.411036	0.0	0.0
