13

C	-0.249665	0.013908	-1.514886
C	0.0	0.0	0.0
F	0.223997	-1.166118	-2.040986
H	1.097494	0.0	0.0
C	-1.682365	0.112898	-1.868799
N	-2.826378	0.181018	-2.129406
C	0.470145	1.142831	-2.136022
N	0.964098	2.060742	-2.676816
C	-0.556695	-1.193137	0.6015
N	-0.98004	-2.172961	1.095499
C	-0.493221	1.21673	0.610128
N	-0.865897	2.218625	1.101166
F	2.411097	0.0	0.0
