13

C	-0.306163	-0.000828	-1.487231
C	0.0	0.0	0.0
F	-1.676657	0.00487	-1.752175
H	1.097838	0.0	0.0
C	0.269088	1.198103	-2.12241
N	0.669163	2.155386	-2.672586
C	0.258543	-1.206388	-2.119259
N	0.655588	-2.164409	-2.670267
C	-0.497401	-1.202638	0.637506
N	-0.867526	-2.189238	1.159294
C	-0.495834	1.204578	0.635177
N	-0.864707	2.192443	1.155408
F	2.404492	0.0	0.0
