13

C	-0.255854	0.013239	-1.513581
C	0.0	0.0	0.0
F	0.22763	-1.161666	-2.04364
H	1.097474	0.0	0.0
C	-1.691018	0.097916	-1.860593
N	-2.837607	0.152512	-2.113644
C	0.44994	1.150546	-2.136344
N	0.930341	2.074253	-2.679574
C	-0.552157	-1.194786	0.603254
N	-0.971129	-2.176092	1.098093
C	-0.498769	1.213906	0.611854
N	-0.902326	2.204117	1.102162
F	2.411698	0.0	0.0
