13

C	-0.272845	0.000519	-1.494833
C	0.0	0.0	0.0
F	-1.632224	0.000105	-1.80099
H	1.097758	0.0	0.0
C	0.317431	1.202847	-2.111498
N	0.735543	2.158775	-2.649995
C	0.318175	-1.200884	-2.112548
N	0.733455	-2.158452	-2.650287
C	-0.506581	-1.204071	0.626194
N	-0.885637	-2.191987	1.139254
C	-0.506533	1.203738	0.626872
N	-0.885557	2.191466	1.140319
F	2.403777	0.0	0.0
