13

C	-0.554751	-0.054399	-1.416368
C	0.0	0.0	0.0
Br	-0.131336	1.633947	-2.346596
H	1.095978	0.0	0.0
H	-0.004741	-0.792062	-2.01006
H	-0.379214	0.90479	0.481684
N	-1.976366	-0.237187	-1.378865
H	-2.316864	-0.596839	-2.259995
H	-2.140761	-0.910588	-0.636051
N	-0.507117	-1.185854	0.737397
H	-0.537589	-0.954834	1.72245
H	0.193753	-1.913645	0.65009
Cl	3.575857	0.0	0.0
