13

C	-0.585669	-0.022184	-1.394648
C	0.0	0.0	0.0
Br	-0.005939	1.683248	-2.370175
H	1.09591	0.0	0.0
H	-0.124568	-0.787802	-2.01536
H	-0.330981	-0.940399	0.457015
N	-1.991544	-0.148982	-1.341997
H	-2.425609	-0.001765	-2.242183
H	-2.337012	0.525123	-0.667625
N	-0.602224	1.105526	0.764373
H	-0.085889	1.945738	0.524968
H	-0.417315	0.9365	1.746301
Cl	3.589619	0.0	0.0
