13

C	-0.327425	-0.021533	-1.482083
C	0.0	0.0	0.0
Br	-2.318418	-0.238907	-1.758555
H	1.098021	0.0	0.0
H	-0.175225	0.971086	-1.920318
H	-0.340242	-0.940166	0.442046
N	0.359537	-1.092988	-2.12312
H	0.42855	-0.943279	-3.119387
H	1.29495	-1.159629	-1.728206
N	-0.504022	1.124005	0.764796
H	-1.490285	1.256248	0.571565
H	-0.008074	1.964135	0.494997
Cl	3.49972	0.0	0.0
