13

C	-0.391248	0.001415	-1.460431
C	0.0	0.0	0.0
Br	-2.62974	0.021798	-1.469044
H	1.094691	0.0	0.0
H	-0.283811	0.960692	-1.958665
H	-0.340391	-0.939629	0.448919
N	0.089909	-1.037089	-2.189616
H	-0.110436	-1.059653	-3.174538
H	0.108388	-1.935686	-1.739114
N	-0.472463	1.117698	0.792278
H	-1.452082	1.286693	0.597216
H	0.06041	1.944672	0.555833
Cl	3.495856	0.0	0.0
