15
Coordinates from ORCA-job run
  C   -0.79063786505937     -0.22402354443280     -0.28579534572155
  C   0.47871209836782      0.35613722368155      0.37215916255804
  Br  -0.94967593665555      0.36445209318224     -2.15614944631330
  H   0.44321356023809      0.09235386018926      1.43292589244518
  C   -1.94230839078394      0.35810478395128      0.42146195221119
  N   -2.87925388982071      0.72454576284816      1.03083728304145
  N   -0.74183167274732     -1.65635401479354     -0.29148710299816
  H   -1.61456555995748     -2.04842121028378     -0.62258400688044
  H   -0.52596744840705     -2.02109317196068      0.63029579901020
  N   0.56930040033297      1.75294049613971      0.21235485817136
  H   1.27169626202300      2.15456914166485      0.81818829321727
  H   0.76009476944022      2.00213938975494     -0.74989001448884
  N   1.68260478225591     -0.43207361600982     -0.15003952440092
  O   2.01037949365773     -1.42114787427674      0.49977489905461
  O   2.22923939711570     -0.00512931965464     -1.16105269890608
