15
Coordinates from ORCA-job run
  C   -0.75416475235210     -0.19689737263684     -0.26554675396155
  C   0.59733124355935      0.28000210254681      0.34446688957529
  Br  -1.00203089030898      0.50698048733439     -2.08559150864687
  H   0.59969586795739     -0.05082004947812      1.38627583768206
  C   -1.80438251351547      0.43673890230011      0.54955744368527
  N   -2.61929256061362      0.89910297432422      1.26154285082016
  N   -0.80096624211236     -1.62344844435897     -0.33185226001322
  H   -0.47347725820010     -2.05285025397840      0.52630142524635
  H   -1.72514320969851     -1.96120559362473     -0.56838418543429
  N   0.91298582062775      1.65998519245459      0.28105438876994
  H   0.39147332184735      2.19637592714910      0.96005032779361
  H   0.78790500376723      2.03555878533346     -0.64957695152273
  N   1.69902080877732     -0.51369905682312     -0.31035482339911
  O   2.04002005582363     -1.54788855800003      0.25860955933093
  O   2.15202530444113     -0.06793504254245     -1.35655223992585
