13

C	-0.583945	-0.090841	-1.385626
C	0.0	0.0	0.0
Cl	-2.336421	-0.317823	-1.346712
H	1.09048	0.0	0.0
H	-0.143778	-0.952839	-1.884337
H	-0.330916	-0.864183	0.57455
N	-0.211274	1.082687	-2.282236
O	-1.087486	1.813744	-2.717135
O	0.988078	1.150211	-2.506328
N	-0.477754	1.18963	0.740963
O	-0.532912	2.252274	0.125317
O	-0.74934	1.042103	1.930731
Br	3.442228	0.0	0.0
