13

C	-0.581579	-0.084088	-1.38787
C	0.0	0.0	0.0
Cl	-2.33405	-0.321791	-1.354576
H	1.090406	0.0	0.0
H	-0.134577	-0.941134	-1.888544
H	-0.332676	-0.866946	0.569917
N	-0.215683	1.095468	-2.281794
O	0.982335	1.161427	-2.513785
O	-1.092123	1.835518	-2.701058
N	-0.48468	1.185954	0.745131
O	-0.52954	2.253957	0.138237
O	-0.761172	1.029092	1.932475
Br	3.435513	0.0	0.0
