13

C	-0.616632	0.006362	-1.372892
C	0.0	0.0	0.0
Cl	-0.118949	1.47146	-2.231783
H	1.087256	0.0	0.0
H	-1.702875	-0.025924	-1.362928
H	-0.323392	0.889355	0.545203
N	-0.210601	-1.19183	-2.199874
O	-0.92584	-1.419469	-3.170808
O	0.776948	-1.818175	-1.855504
N	-0.500726	-1.160648	0.785518
O	-1.297639	-1.930212	0.241548
O	-0.101605	-1.257343	1.93731
Br	3.474294	0.0	0.0
