13

C	-0.608397	0.007041	-1.376551
C	0.0	0.0	0.0
Cl	-0.102366	1.468769	-2.234151
H	1.0872	0.0	0.0
H	-1.694958	-0.023799	-1.374955
H	-0.330253	0.884517	0.548642
N	-0.197395	-1.193013	-2.200348
O	0.788465	-1.822046	-1.846097
O	-0.909035	-1.423367	-3.175534
N	-0.495988	-1.16774	0.780499
O	-1.29023	-1.937291	0.230952
O	-0.095228	-1.269929	1.933172
Br	3.486197	0.0	0.0
