13

C	-0.59366	-0.085794	-1.382978
C	0.0	0.0	0.0
Cl	-2.345847	-0.351934	-1.330349
H	1.090398	0.0	0.0
H	-0.137133	-0.934224	-1.892529
H	-0.327654	-0.868511	0.570211
N	-0.254178	1.107041	-2.271206
O	0.940723	1.193553	-2.514531
O	-1.14705	1.830934	-2.683803
N	-0.481359	1.182782	0.752269
O	-0.747309	1.021734	1.941377
O	-0.54398	2.250393	0.145843
Br	3.430032	0.0	0.0
