13
Coordinates from ORCA-job run
  C   -0.76185440659550      0.21299954766366      0.31111730342001
  C   0.57866824397938      0.04834129315520      0.19897109506265
  C   -1.40363286501494      0.86660567057522      1.40067153125069
  N   -1.91538942803235      1.39270508692384      2.32175734914046
  N   -1.67693958825353     -0.23335163422199     -0.75633985072934
  O   -2.60148203764639      0.52849298717207     -1.01954463910726
  O   -1.43721318013564     -1.31498861596813     -1.28343710055362
  C   1.30172343964550     -0.60266780835348     -0.94590308522677
  H   2.29942457208947     -0.17254443709083     -1.03620912672346
  H   1.40367019072230     -1.67421709581346     -0.75289705264051
  H   0.76629433309758     -0.48665814813069     -1.88644984274938
  C   1.37771115698376      0.52895465266714      1.28471809047130
  N   2.06801956916035      0.90432850142146      2.16254532838523
