13
Coordinates from ORCA-job run
  C   -0.81421532480984      0.04715732085184      0.06105715196203
  C   0.52183545209761     -0.16484199177938      0.10767482351008
  C   -1.39626052154685      1.07201859301755     -0.74175576058893
  N   -1.81418180517605      1.93203026602820     -1.42772790591898
  N   -1.80389249012169     -0.78540365730993      0.78986407107677
  O   -1.37970834432385     -1.57474983312821      1.62144085378275
  O   -2.97658501343614     -0.60256911888833      0.47688263975217
  C   1.49812841828641      0.67297073554556     -0.66906107480990
  H   2.10476541134216      0.02285849019695     -1.30493270777331
  H   0.99623542423062      1.41547311864576     -1.28782778943749
  H   2.17918916599399      1.17666440722211      0.02254322639254
  C   1.11612260190405     -1.20655107040626      0.89063281465126
  N   1.76756702555958     -2.00505725999587      1.46020965740100
