13
Coordinates from ORCA-job run
  C   -0.80948609084284      0.02566087892868      0.01607590416667
  C   0.52994921767023     -0.13302172983589      0.11933600085491
  C   -1.41765847505996      1.05798204666062     -0.75182469460071
  N   -1.87892334690597      1.93947466881363     -1.38175680116443
  N   -1.77124183070319     -0.89361357489357      0.66802994320994
  O   -2.81015358662094     -1.09058794899756      0.04513028245988
  O   -1.45476869633241     -1.36785681803492      1.75106683277239
  C   1.51257229663491      0.76997490723326     -0.56839362027892
  H   2.14211365793923      0.18287954884164     -1.24207309807624
  H   1.01140380935403      1.55249018195478     -1.13748003463325
  H   2.16778435068101      1.22939451691270      0.17646306520938
  C   1.09721415891439     -1.21038514889856      0.87228108950082
  N   1.68119453527150     -2.06439152868481      1.43414513057957
