13
Coordinates from ORCA-job run
  C   -0.77313700356397      0.20761712472011      0.26886494912596
  C   0.57578693838598      0.06422021194837      0.18456592781835
  C   -1.41649975003819      0.88964436433312      1.34295550462760
  N   -1.91716042001844      1.45400316073582      2.24698923893899
  N   -1.70456496259539     -0.30985659069890     -0.75719078662067
  O   -1.23360169875243     -0.98953062186730     -1.66224970406408
  O   -2.88414024516779     -0.00555592141276     -0.61221867719337
  C   1.36429289956501     -0.62182276057442     -0.89799164445744
  H   1.11948717935236     -0.21266310751963     -1.87849552076246
  H   2.42899737818385     -0.49770116604545     -0.70570817673693
  H   1.12372287739554     -1.68586553578751     -0.92862695858581
  C   1.32658420219890      0.63043528334038      1.26563916943006
  N   1.99023260505459      1.07607555882818      2.13146667847980
