13
Coordinates from ORCA-job run
  C   -0.81268711799296      0.04304679379580      0.03608493385871
  C   0.52326949508923     -0.16243333203028      0.11113736368947
  C   -1.39103675567598      1.03544551862353     -0.80640007328721
  N   -1.81742232237444      1.88413883080031     -1.50261028716389
  N   -1.80264303964987     -0.78502365371841      0.76597768003706
  O   -1.41359806787942     -1.40591808615750      1.74461048924653
  O   -2.94204168108717     -0.76286830579964      0.30921149643075
  C   1.51353966804617      0.67045966264454     -0.65323799011704
  H   2.11077948273945      1.25348103165860      0.05324582441670
  H   2.19230517630132      0.01879446999834     -1.20640843242999
  H   1.02147910619211      1.35983300092603     -1.33976173516783
  C   1.09865242404783     -1.18016092955500      0.93697566051889
  N   1.71940363224372     -1.96879500118632      1.55217506996785
