13
Coordinates from ORCA-job run
  C   -0.77110614716022      0.19138395740788      0.29299926570613
  C   0.57580492441217      0.06064260762478      0.21491116845280
  C   -1.45968473147154      0.79441614650099      1.38195679994050
  N   -2.02323150693129      1.27624756474289      2.29665292045705
  N   -1.64661041486683     -0.24903067658164     -0.81083598336113
  O   -2.61370567607015      0.46837505778984     -1.04460598976101
  O   -1.33437891454388     -1.28102996751802     -1.39638305150640
  C   1.34622179477045     -0.54807804553167     -0.92275553908467
  H   2.36954504551104     -0.17179946891888     -0.91337660336258
  H   1.37133867310707     -1.63521554401524     -0.80783562202324
  H   0.88498616542321     -0.33344929808265     -1.88605769469841
  C   1.32709603420784      0.53007728181848      1.34036060710579
  N   1.97472475361214      0.89846038476324      2.25296972213516
