13
Coordinates from ORCA-job run
  C   -0.78522228948746      0.04460105058553      0.14606584026908
  C   0.51918185395666     -0.21347748074912     -0.08785743814167
  C   -1.42358059391968      1.26630934068070     -0.20758406818355
  N   -1.94439167669722      2.26611526723815     -0.55238126483719
  N   -1.67392987718281     -0.92714520947329      0.81404075730168
  O   -2.41325041422948     -0.47017163588587      1.68020977410738
  O   -1.60506133905351     -2.08916113738176      0.42611817397119
  C   1.44430464484488      0.80423905702060     -0.68811397582824
  H   2.09567675639567      0.34919460981083     -1.43238983893799
  H   2.07025449472756      1.20875734453286      0.11328903751103
  H   0.89285391042992      1.62495651756001     -1.15197180817849
  C   1.10966989914201     -1.44518247034051      0.33406572919983
  N   1.71449463107347     -2.41903525359811      0.60650908174693
