13
Coordinates from ORCA-job run
  C   -0.74058157183773      0.20954001641274      0.36160256875934
  C   0.58672062340141      0.00510620709325      0.18084970276740
  C   -1.32898470395620      0.66055242885176      1.57642044418289
  N   -1.80491730356073      1.04976235468624      2.58065209923067
  N   -1.70983668794911     -0.09142861888180     -0.70923909071204
  O   -1.39839076020294      0.22838590906097     -1.85209321908739
  O   -2.74703606699766     -0.64009992280983     -0.35189468102366
  C   1.24849078667726     -0.49362572349028     -1.07205428482691
  H   0.59466190656160     -1.14527437038973     -1.64868550216968
  H   2.16258275401889     -1.02794738950787     -0.81204772097764
  H   1.51339653734517      0.35669569318266     -1.70662862108464
  C   1.44199409029392      0.31932097308792      1.28515544239047
  N   2.18290039620613      0.56801244270396      2.16696286255120
