13
Coordinates from ORCA-job run
  C   -0.76518887686928      0.15818583235203      0.33622891163536
  C   0.56903205915841     -0.04922368851497      0.22584123679674
  C   -1.44889030579865      0.37669575877708      1.56508736944290
  N   -1.99382428299718      0.59436758086170      2.58569119381127
  N   -1.64248683102048      0.10261280015668     -0.84801042742001
  O   -1.24130545027907      0.65406394637404     -1.86812454884017
  O   -2.70066999156367     -0.50000518767085     -0.70035504962268
  C   1.32695958169641     -0.29509481010480     -1.04723717348076
  H   0.72127753287391     -0.81003551483298     -1.79123319573193
  H   2.22001720334022     -0.88202777657557     -0.83240757047312
  H   1.63664238973385      0.66208457393280     -1.47618590587026
  C   1.32894153696879     -0.01000022933682      1.43827467698541
  N   1.99249543475676     -0.00262328541835      2.41243048276728
