13
Coordinates from ORCA-job run
  C   -0.77045734327683      0.10958212878753      0.34293224079271
  C   0.56966966803493     -0.05198681772195      0.22335375931075
  C   -1.46298162122889      0.21209521001721      1.58192668897806
  N   -2.02492691279229      0.31360938494004      2.61164966415961
  N   -1.64376700429211      0.12974413811813     -0.84620659687983
  O   -2.70132125231762     -0.48300712619636     -0.74261538766614
  O   -1.24178499843058      0.75058241520197     -1.82519658034763
  C   1.33889146986707     -0.19178594930837     -1.05920510925421
  H   1.64635575722920      0.79746887102859     -1.40958315377341
  H   0.74314793460718     -0.65026934490087     -1.84634918738903
  H   2.23423899991183     -0.78832249630231     -0.88217253337927
  C   1.32632346211530     -0.06664053386437      1.43865955919041
  N   1.98761184057284     -0.08106987979926      2.41380663625798
