13
Coordinates from ORCA-job run
  C   -0.80733102912544      0.06860575408550      0.04697278353304
  C   0.52871683410955     -0.13109031837050      0.12480890633635
  C   -1.41093990666221      0.97000515442000     -0.87487045103202
  N   -1.87545697455031      1.73631897403527     -1.63869105870460
  N   -1.77161755287405     -0.68680911895166      0.87785110715939
  O   -1.43244530804063     -0.96893545291226      2.01963291856608
  O   -2.83484942850132     -0.95856424773526      0.32917612700009
  C   1.51076558778250      0.59263755334817     -0.75143306547521
  H   1.01492919035904      1.28946932235736     -1.42634277764936
  H   2.07801675448439     -0.13398051244749     -1.33936279362154
  H   2.22520543097895      1.13696953377683     -0.12832548350985
  C   1.09292050233311     -1.07766521024447      1.03777967442020
  N   1.68208589970643     -1.83396143136148      1.72180411297745
