13
Coordinates from ORCA-job run
  C   -0.74377294485155      0.14899763602603      0.38250912447000
  C   0.59063732208828      0.05930454122870      0.16270284055113
  C   -1.33168919479194      0.65765963129059      1.57448365408141
  N   -1.80707449105522      1.06354080885798      2.57234406822964
  N   -1.71490676247820     -0.23396819399551     -0.66045374030093
  O   -2.69640630113838      0.49378909936404     -0.76930688154518
  O   -1.46020885666227     -1.23520275078428     -1.32215111831175
  C   1.25401660391092     -0.44733063490066     -1.08664897699781
  H   2.24674178046027     -0.00571312261149     -1.17614902193581
  H   0.67123863876055     -0.21960796181182     -1.97804029154067
  H   1.35939316427638     -1.53405375864036     -1.03026934122856
  C   1.44606827097484      0.46504848722748      1.23654722192265
  N   2.18496277050631      0.78853621874930      2.09543246260587
