13
Coordinates from ORCA-job run
  C   -0.74911610488828      0.16098481476843      0.36733343640757
  C   0.58459483476903      0.00217436339025      0.18894208622451
  C   -1.36253443914618      0.49939941532567      1.60613643532740
  N   -1.86401128288081      0.80471601883012      2.62662476150030
  N   -1.69833946183900     -0.07388863080752     -0.73667838803858
  O   -1.38746120433310      0.35699222910641     -1.84298438178180
  O   -2.72190469705693     -0.68212703082980     -0.44131595734724
  C   1.27314004847212     -0.37516792187666     -1.09151375053220
  H   2.19124946289408     -0.91803986730470     -0.86543008767597
  H   1.53700894728738      0.53257609035170     -1.64144983191580
  H   0.63728693684566     -0.97959261335726     -1.73540080558122
  C   1.41849128612655      0.24252148938275      1.32769060509889
  N   2.14159567374948      0.42945164302060      2.23904587831413
