13
Coordinates from ORCA-job run
  C   -0.78646133803499      0.03682244812999      0.15389281861641
  C   0.52485806073059     -0.21029038706190     -0.07285600124946
  C   -1.40836479942670      1.27945110053473     -0.15582247130458
  N   -1.88633383045317      2.31159353015191     -0.45915757679047
  N   -1.68281146971744     -0.95162076383085      0.78583676695609
  O   -1.58311823080252     -2.11452222919818      0.40929054291438
  O   -2.45770025434018     -0.50427186516946      1.62472074751740
  C   1.43779393906851      0.82510681116528     -0.66624127154729
  H   2.11887714571938      0.34958854300624     -1.37388190607287
  H   2.04047260952438      1.29434380653039      0.11800785267127
  H   0.87457766840941      1.60253668189915     -1.18387917597934
  C   1.11192913090795     -1.46373168662156      0.28048472267046
  N   1.69628136841479     -2.45400598953575      0.53960495159798
