13
Coordinates from ORCA-job run
  C   -0.75345935246029      0.20727585799028      0.33704442168132
  C   0.57821747405576     -0.00678075999070      0.20598186742411
  C   -1.39030728184589      0.61343534290884      1.54309201368866
  N   -1.90613573217292      0.96294975869452      2.54209633922829
  N   -1.67742596522436     -0.03871370189388     -0.78676877824575
  O   -1.31267354620172      0.32391706761085     -1.90068616408268
  O   -2.73426466671581     -0.59025014163935     -0.49804911681896
  C   1.28840196540003     -0.46351059915831     -1.03642163105672
  H   2.18559306723471     -1.01720240775179     -0.75886455822464
  H   1.58774192478837      0.40702778295139     -1.62653465257458
  H   0.65434770166863     -1.08595862588387     -1.66510245507027
  C   1.38728704734641      0.24752188155939      1.35940553635305
  N   2.09167736412710      0.44228854460263      2.28380717769817
