13
Coordinates from ORCA-job run
  C   -0.76480207696235      0.22813891106192      0.29746361551854
  C   0.56666969430591     -0.01601946223740      0.23460083260510
  C   -1.43332664716782      0.76778684069441      1.43142834802571
  N   -1.97781257148512      1.20279525161130      2.38036272669684
  N   -1.63537343870282     -0.00309377690966     -0.87071171479141
  O   -1.43821014261117     -1.02341874712736     -1.52323285409006
  O   -2.48349804847224      0.85754007943200     -1.08352898019385
  C   1.31636607923951     -0.56283955932234     -0.94698212335725
  H   0.84668886801407     -0.29520430164085     -1.89154498206481
  H   1.34434022756712     -1.65442195952456     -0.88645604098709
  H   2.34102871341313     -0.19035219337430     -0.93067891470959
  C   1.32651946085829      0.24572787655167      1.41926590457897
  N   1.99040988200347      0.44136104078517      2.37301418276890
