13
Coordinates from ORCA-job run
  C   -0.76517032439995      0.20973636777716      0.30603908385680
  C   0.56875045836832     -0.01683804242859      0.23112574704890
  C   -1.43386329424077      0.71592449499080      1.45578044511936
  N   -1.98126225303639      1.11879816489994      2.41727327337763
  N   -1.64041447066208     -0.00246822282005     -0.86289999054140
  O   -1.43194666467444     -1.00146910328114     -1.54401041646240
  O   -2.50351879544166      0.84977179386368     -1.04542117456062
  C   1.31996836024376     -0.52331800179152     -0.96699644506325
  H   0.84441027287525     -0.23199408380386     -1.90168607538606
  H   2.34192906898355     -0.14414675331523     -0.94170090598148
  H   1.35616235471171     -1.61595688414054     -0.93930407512284
  C   1.33017002635636      0.22848388534391      1.41838752277892
  N   1.99478526091632      0.41447638470545      2.37341301093645
