13
Coordinates from ORCA-job run
  C   -0.78145485234167      0.12457523757136      0.31092887389389
  C   0.56955145927058      0.08692148665732      0.21289541435803
  C   -1.49461831375488      0.53544377082218      1.47189538319956
  N   -2.07642108473639      0.89340414358866      2.43095048068390
  N   -1.63859485496260     -0.33351346215829     -0.79947363746472
  O   -2.61864655218124     -0.99765340163175     -0.47854540927392
  O   -1.30117977904766     -0.01458636940116     -1.93516225912203
  C   1.36349525854960     -0.36444105915449     -0.97971994352851
  H   2.32023418272778     -0.76816611344064     -0.64732471800535
  H   0.83332188926429     -1.11362025612438     -1.56480625741992
  H   1.55776271402125      0.49078127062939     -1.63304820189654
  C   1.30956250647937      0.54502836831521      1.34956291435348
  N   1.95798742671156      0.91582638432659      2.26084736022213
