13
Coordinates from ORCA-job run
  C   -0.73637280886864      0.30680599228929      0.29572196019067
  C   0.58543621462301      0.03121369413021      0.18134228426460
  C   -1.30424017601740      1.12695557104032      1.31071354067188
  N   -1.76758606921381      1.79352542683375      2.16365345670213
  N   -1.70677289956089     -0.19300333023294     -0.69721793069102
  O   -2.57734864936485      0.60048112295869     -1.03926512703873
  O   -1.56126804103634     -1.34593401230671     -1.09073464057278
  C   1.23222583056110     -0.80439646587931     -0.88638748756851
  H   2.25331835631061     -0.45822394488766     -1.04868698155298
  H   1.26892511178473     -1.84762378944509     -0.56036787033218
  H   0.67988809002518     -0.77089299506403     -1.82362940860725
  C   1.44469954201760      0.57023527321401      1.19157310450658
  N   2.18809549873971      0.99085745734947      2.00328510002758
