13
Coordinates from ORCA-job run
  C   -0.73498086650991      0.29251195192041      0.31570603469756
  C   0.58805350825323      0.03725277942798      0.17059611990002
  C   -1.29266635574835      1.09282803884618      1.35178726990337
  N   -1.74823926917954      1.74225284801849      2.22187689999506
  N   -1.71720074939492     -0.20817933982891     -0.66456812600206
  O   -2.60252855732844      0.57966899990754     -0.98197362764703
  O   -1.56398171768238     -1.35363115846539     -1.07703436075838
  C   1.22348559435301     -0.77850612140603     -0.91929140105763
  H   1.27709214889590     -1.82490441002317     -0.60549133350525
  H   2.23744824915310     -0.41982020592430     -1.09786805052770
  H   0.65352153947997     -0.74050175632228     -1.84593502308173
  C   1.46184878146588      0.57833512275468      1.16714519812503
  N   2.21814769424245      1.00069325109480      1.96605039995873
