13
Coordinates from ORCA-job run
  C   -0.75358806838591      0.25749846524597      0.30373519052674
  C   0.57701228546879      0.02006342036233      0.20612989446262
  C   -1.37482019193943      0.93266569766491      1.39119915951081
  N   -1.88059496102512      1.47498998712943      2.30577956250909
  N   -1.67491685024955     -0.13101468862122     -0.78044369439113
  O   -1.49299241052977     -1.22498805882593     -1.30554622740443
  O   -2.54706646499532      0.68592412041112     -1.05832296099225
  C   1.27801688148689     -0.66275703202959     -0.93354216265226
  H   1.32914994227939     -1.73770992957355     -0.73752460055821
  H   2.29497881433024     -0.27725906609515     -1.01745117718162
  H   0.75753789171237     -0.52346467140746     -1.87957137506866
  C   1.38965755339070      0.43567415350370      1.30894992429176
  N   2.09762557845674      0.75137760223543      2.19660846694756
