13
Coordinates from ORCA-job run
  C   -0.75877002094532      0.21900651302041      0.31818515254231
  C   0.57929532993034      0.03942354582486      0.19990654298181
  C   -1.39059739305320      0.87739061150511      1.41019429081469
  N   -1.90591598270905      1.41968517413182      2.31991003727387
  N   -1.68063751810686     -0.21201446665107     -0.75066048985960
  O   -2.59538121118983      0.56253853348208     -1.01138258695249
  O   -1.45652444405054     -1.29648189844811     -1.27889955099072
  C   1.29166331410779     -0.61002051208813     -0.95198865018021
  H   2.29100612633440     -0.18436115703690     -1.04663475772540
  H   0.75180539139813     -0.48664145546280     -1.88907594207148
  H   1.38986089586596     -1.68279644104798     -0.76441531079776
  C   1.38879678958268      0.49951476274466      1.28701533936070
  N   2.09539872283551      0.85575679002606      2.15984592560429
