13
Coordinates from ORCA-job run
  C   -0.74371959292011      0.04452833914852      0.40972929981063
  C   0.58818256185962      0.04420304774025      0.16522622418794
  C   -1.32809403124558      0.40569972588486      1.65630136842006
  N   -1.79160642325932      0.69802416407248      2.69941696276819
  N   -1.72812846961504     -0.26525433419852     -0.65125769568394
  O   -1.39146067081473     -1.06857509011762     -1.51261622970938
  O   -2.79944392081226      0.32954164460935     -0.57709507649969
  C   1.26468191060455     -0.28011316849538     -1.13827650844585
  H   2.29326372541890      0.07544839453123     -1.11367360769513
  H   1.26875250039340     -1.35860074958893     -1.30525396904641
  H   0.74064387568316      0.17313064601108     -1.98003657199919
  C   1.43726163641850      0.44004831528232      1.24856336880061
  N   2.18766689828891      0.76291906512035      2.09797243509219
