13
Coordinates from ORCA-job run
  C   -0.79794158412759      0.03611270123721      0.13219908371750
  C   0.51633107033361     -0.20490808401054     -0.08151409393863
  C   -1.42477653931252      1.27512672720010     -0.18451738914056
  N   -1.91691029767408      2.30056866392714     -0.48852649044750
  N   -1.68789999101708     -0.95027900931753      0.78125152201096
  O   -2.51929737225558     -0.47944793980304      1.55058740626733
  O   -1.52339186475554     -2.12955020887979      0.49525866992392
  C   1.44192545413768      0.80775607620739     -0.68988918157111
  H   2.17655291175557      1.13130154898991      0.05267927284721
  H   1.98789007333242      0.35170974502871     -1.51977085071286
  H   0.89954802450412      1.67910174566525     -1.05887588785001
  C   1.11902334316090     -1.43644895159374      0.33168280695327
  N   1.72894677191810     -2.38104301465108      0.67943513194048
