16

C	-0.483376	0.006665	-1.419817
C	0.0	0.0	0.0
F	-0.43304	-1.208845	-1.980071
H	1.100152	0.0	0.0
N	-1.92603	0.493021	-1.542154
O	-2.125728	1.629057	-1.954204
O	-2.770262	-0.309212	-1.158871
N	0.32393	0.952602	-2.300269
O	0.353684	0.661274	-3.491471
O	0.859971	1.905364	-1.757788
C	-0.444725	-1.202159	0.679485
N	-0.746119	-2.152707	1.305088
N	-0.391155	1.227955	0.685115
H	-0.949179	1.021298	1.500644
H	0.474555	1.6696	0.986127
H	2.518426	0.0	0.0
