16

C	-0.505216	0.003584	-1.407134
C	0.0	0.0	0.0
F	-0.082005	-1.06063	-2.096998
H	1.095751	0.0	0.0
N	-2.037514	0.014265	-1.551152
O	-2.704586	0.215768	-0.54327
O	-2.463851	-0.1923	-2.682376
N	-0.070645	1.256887	-2.150285
O	-0.822592	2.219919	-2.080598
O	0.999216	1.184955	-2.733752
C	-0.433563	-1.226859	0.65719
N	-0.768862	-2.199748	1.228199
N	-0.295608	1.232194	0.693564
H	0.513333	1.448634	1.26959
H	-1.135911	1.17627	1.249525
H	2.534006	0.0	0.0
