16

C	-0.587689	-0.011293	-1.374885
C	0.0	0.0	0.0
F	-1.941403	-0.056512	-1.406247
H	1.090824	0.0	0.0
N	-0.158925	1.232524	-2.1334
O	1.011403	1.236217	-2.489587
O	-0.997484	2.104601	-2.298811
N	-0.113653	-1.169751	-2.228586
O	0.60733	-2.009393	-1.703404
O	-0.51979	-1.16145	-3.38885
C	-0.482753	-1.143269	0.759712
N	-0.886537	-2.019643	1.433956
N	-0.286584	1.288608	0.618128
H	-1.077626	1.251124	1.245812
H	0.554287	1.547978	1.131104
H	2.527425	0.0	0.0
