16

C	-0.486901	0.117834	-1.413476
C	0.0	0.0	0.0
F	-0.40953	-1.046334	-2.072849
H	1.105139	0.0	0.0
N	-1.939318	0.582248	-1.495103
O	-2.154632	1.762554	-1.745559
O	-2.773602	-0.279695	-1.235911
N	0.295022	1.151801	-2.214743
O	0.874393	2.030966	-1.596654
O	0.265844	0.992729	-3.431792
C	-0.441629	-1.253521	0.581459
N	-0.745606	-2.247277	1.133798
N	-0.383796	1.168977	0.782856
H	-0.960057	0.903129	1.569549
H	0.48247	1.574057	1.131149
H	2.508868	0.0	0.0
