16

C	-0.469073	0.130332	-1.416806
C	0.0	0.0	0.0
F	0.143991	1.137374	-2.037329
H	1.098464	0.0	0.0
N	-0.247357	-1.1076	-2.271924
O	0.32019	-2.067022	-1.766354
O	-0.629936	-1.002469	-3.434475
N	-1.969854	0.381453	-1.519097
O	-2.673481	-0.577871	-1.210265
O	-2.346744	1.499416	-1.840014
C	-0.506087	-1.163102	0.69981
N	-0.885491	-2.043535	1.382977
N	-0.306099	1.259182	0.679304
H	-0.990399	1.1279	1.411885
H	0.570332	1.571437	1.095252
H	2.516084	0.0	0.0
