15

C	0.0	0.0	0.0
C	-0.503289	-0.586012	-1.355297
Br	2.005625	0.0	0.0
H	-1.17933	-1.392323	-1.097868
H	0.348372	-0.998034	-1.89691
N	-0.56933	1.208399	0.332866
H	-1.614172	0.942933	0.270625
H	-0.327722	1.442989	1.289516
N	-0.222276	-1.088751	1.128384
O	-0.157034	-2.272363	0.818271
O	-0.406691	-0.664833	2.264311
N	-1.24961	0.337509	-2.182144
H	-2.111317	0.466504	-1.64332
H	-0.767404	1.228488	-2.205938
F	-2.794379	0.0	0.0
