14

C	0.0	0.0	0.0
C	-0.427991	0.111916	-1.499674
Cl	1.782945	0.0	0.0
H	0.481819	0.326681	-2.074573
H	-0.337914	0.865094	0.557921
C	-0.474834	-1.213612	0.656058
N	-0.567796	-2.266482	1.171907
C	-1.289711	1.277744	-1.711584
N	-1.783854	2.291466	-2.043752
C	-1.048118	-1.163952	-2.068125
H	-1.25053	-1.031381	-3.135004
H	-1.969085	-1.330599	-1.51415
H	-0.358078	-2.003589	-1.948016
F	-2.368441	0.0	0.0
