14

C	0.0	0.0	0.0
C	-0.431227	0.04012	-1.501063
Cl	1.785628	0.0	0.0
H	0.473219	0.249423	-2.086851
H	-0.337083	0.889965	0.518775
C	-0.468803	-1.179142	0.722186
N	-0.597997	-2.178849	1.328548
C	-1.324261	1.171399	-1.766679
N	-1.846061	2.138153	-2.185357
C	-1.026928	-1.273046	-2.004962
H	-0.321177	-2.093841	-1.847235
H	-1.943438	-1.429981	-1.441393
H	-1.23517	-1.196819	-3.076307
F	-2.368324	0.0	0.0
