15
Coordinates from ORCA-job run
  C   -0.49337156744377      0.13254029689891      0.30896421034223
  C   1.01161074807279      0.26516347618454      0.51782313779238
  Br  -1.31110582177447      0.54326856533371      2.13626675541077
  H   1.22245294488181      1.29639410482332      0.84273729243726
  H   1.31547922834091     -0.39897448350619      1.32937849093442
  C   -0.92938639836171     -1.27216109238130     -0.05057998551641
  H   -0.60513029778275     -1.97911338090859      0.71297559838438
  H   -0.47141834497094     -1.54207313738286     -1.00240938097931
  H   -2.01737509928553     -1.32880703162975     -0.13061274302300
  N   -0.91824074606995      1.06422565445523     -0.67179235918413
  H   -0.74701827912081      2.01899272052089     -0.37999542672778
  H   -1.90049212016987      0.96018081461904     -0.89288710744995
  N   1.69035166912826     -0.14183085093159     -0.70761509487110
  H   2.69258099278645     -0.12895461239177     -0.56661722239794
  H   1.46206309176958      0.51214895629642     -1.44563616515184
