15
Coordinates from ORCA-job run
  C   -0.45584805645350      0.01078278131829      0.12849976889573
  C   1.03665286312829     -0.22112180339951     -0.06739216244620
  Br  -0.57920623626118      1.03291434293258      1.95109352226360
  H   1.13016529745761     -0.85232057632023     -0.95812536875295
  H   1.42398585736992     -0.77780973699382      0.79433979842632
  C   -1.23511562911906     -1.26461170350843      0.35982556665276
  H   -2.28486805651404     -1.04636059753326      0.56503250065257
  H   -1.17529301503726     -1.87390782026282     -0.54695723139415
  H   -0.83164636990221     -1.82311945877266      1.20472942344829
  N   -0.95767279658343      0.76516010686810     -0.93131502948223
  H   -0.34646646479183      1.54728052728487     -1.13506026308094
  H   -1.91839293597617      1.05283905014826     -0.81030496106726
  N   1.71375329487632      1.04277880850762     -0.33137457697994
  H   1.86872320880146      1.53035642748667      0.54260077661561
  H   2.61222903900510      0.87613965224434     -0.76459176375120
