15
Coordinates from ORCA-job run
  C   -0.46234259000493     -0.02665453971469      0.10046002720503
  C   1.05202280768051     -0.14331495899088     -0.00977648041031
  Br  -0.76932123315642      0.91915233034724      1.94250027327135
  H   1.24584473670723     -0.73563891625780     -0.91085297399446
  H   1.42733682207517     -0.69977223422877      0.85741014210772
  C   -1.15734902164617     -1.36221400668440      0.24344560342198
  H   -0.76519956776026     -1.91913271516615      1.09464727854595
  H   -0.99769753310702     -1.93356244386920     -0.67582737714858
  H   -2.23088876444244     -1.22789795052344      0.38862862540005
  N   -0.95479446398641      0.72706488358644     -0.96441436964295
  H   -0.39246869862633      1.55835065215849     -1.10432295255349
  H   -1.93970632938414      0.93991901375278     -0.89368477919523
  N   1.64833990357974      1.17439927610199     -0.19283456620036
  H   2.57865484546009      1.08883579732909     -0.57970731935692
  H   1.71856908661136      1.64046581215928      0.70332886855024
