14

C	-0.015254	0.011461	0.004942
C	-0.532606	0.063166	-1.422365
Cl	1.792066	-0.084451	0.030243
H	-1.628839	0.129274	-1.35189
H	-0.146603	0.948463	-1.925835
N	-0.262013	1.426058	0.650822
O	-0.270285	2.408033	-0.081855
O	-0.385466	1.435621	1.868529
N	-0.577212	-1.0262	0.731092
H	-1.603153	-0.98565	0.616461
H	-0.333647	-0.95378	1.711014
C	-0.154176	-1.133002	-2.16399
N	0.150452	-2.064148	-2.80989
Cl	-3.589355	-0.264987	0.048007
