14

C	-0.00429	0.00717	0.008231
C	-0.55187	0.155177	-1.401049
Cl	1.803511	-0.077399	-0.010688
H	-0.181465	1.076777	-1.84797
H	-1.646849	0.207383	-1.304701
N	-0.245568	1.371314	0.756796
O	-0.273253	2.402285	0.095237
O	-0.345601	1.294744	1.97429
N	-0.544728	-1.082646	0.67121
H	-1.573244	-1.041531	0.582862
H	-0.279386	-1.080139	1.648082
C	-0.180805	-0.982713	-2.232699
N	0.11801	-1.862704	-2.949179
Cl	-3.575859	-0.30382	0.100188
