16

C	0.0	0.0	0.0
C	-0.562499	0.294416	-1.414939
Br	1.961985	0.0	0.0
H	-1.65241	0.155199	-1.28229
C	-0.372236	1.101787	0.888945
N	-0.591462	2.006309	1.607188
C	-0.479161	-1.343786	0.53173
H	-0.132026	-2.140589	-0.129545
H	-1.572601	-1.315977	0.554426
H	-0.086247	-1.517902	1.53483
C	-0.068907	-0.713477	-2.360589
N	0.328654	-1.518417	-3.117966
N	-0.335889	1.624898	-1.938152
H	-0.957765	2.266807	-1.460987
H	0.623606	1.912774	-1.781039
Cl	-3.611014	0.0	0.0
