16

C	0.0	0.0	0.0
C	-0.560203	-0.144873	-1.439113
Br	1.963386	0.0	0.0
H	-1.649556	-0.236935	-1.270979
C	-0.37002	1.320247	0.512992
N	-0.576891	2.412565	0.894784
C	-0.47908	-1.121483	0.910382
H	-1.572155	-1.08418	0.919548
H	-0.133223	-2.080834	0.518851
H	-0.088869	-0.985609	1.92024
C	-0.068926	-1.392407	-2.035383
N	0.318603	-2.390674	-2.518476
N	-0.331465	0.964634	-2.339993
H	0.629238	1.282922	-2.27778
H	-0.9497	1.72262	-2.07537
Cl	-3.610786	0.0	0.0
