16

C	0.0	0.0	0.0
C	-0.388445	-0.407801	-1.47324
Br	1.959972	0.0	0.0
H	0.191588	-1.319693	-1.662979
C	-0.411121	1.368628	0.297773
N	-0.700171	2.488135	0.512702
C	-0.56613	-0.986098	1.006253
H	-0.21057	-0.752887	2.010935
H	-0.25413	-2.000938	0.744886
H	-1.658792	-0.908054	0.984685
C	0.109124	0.615934	-2.41163
N	0.486346	1.425651	-3.173659
N	-1.764724	-0.685139	-1.749187
H	-2.058742	-1.542299	-1.299231
H	-2.418117	0.019769	-1.402763
Cl	-4.248302	0.0	0.0
