15

C	-0.168188	0.032772	-1.511085
C	0.0	0.0	0.0
Cl	-0.166497	1.751375	-2.074879
H	1.092792	0.0	0.0
H	-0.472429	0.847464	0.499475
N	0.853648	-0.684924	-2.192173
H	0.630154	-1.670446	-2.10805
H	1.708627	-0.50614	-1.631582
N	-1.546866	-0.507389	-1.894312
O	-2.497683	-0.048488	-1.267679
O	-1.628912	-1.371805	-2.759439
N	-0.430036	-1.32098	0.460361
H	0.270446	-1.670794	1.100539
H	-1.318045	-1.268605	0.940572
F	2.690704	0.0	0.0
