15

C	-0.142343	-0.11109	-1.516931
C	0.0	0.0	0.0
Cl	-0.271374	1.555219	-2.229368
H	1.092683	0.0	0.0
H	-0.481703	0.888375	0.411481
N	0.940503	-0.799338	-2.121911
H	1.770435	-0.566189	-1.538621
H	0.759339	-1.79285	-2.041709
N	-1.467584	-0.790459	-1.863757
O	-2.470673	-0.322687	-1.333064
O	-1.456538	-1.770281	-2.602121
N	-0.420412	-1.275653	0.578494
H	-1.316873	-1.192768	1.039306
H	0.2762	-1.558337	1.254819
F	2.700578	0.0	0.0
