15

C	-0.570722	-0.012515	-1.395137
C	0.0	0.0	0.0
Cl	0.081218	1.291653	-2.392726
H	1.096889	0.0	0.0
H	-0.360501	-0.915231	0.486222
N	-0.369644	-1.2488	-2.050629
H	-0.821563	-1.274425	-2.956884
H	-0.691209	-2.004774	-1.461848
N	-2.120005	0.259642	-1.249896
O	-2.714405	-0.65019	-0.666526
O	-2.651977	1.272259	-1.67825
N	-0.47058	1.197901	0.709827
H	-0.944311	0.938021	1.563619
H	0.359654	1.713223	0.969271
F	2.647102	0.0	0.0
