16

C	0.0	0.0	0.0
C	-0.591035	-0.073558	-1.410078
Cl	1.786211	0.0	0.0
H	-1.677307	-0.319465	-1.264909
N	-0.543703	1.099603	0.658325
H	-0.389085	1.08126	1.654208
H	-0.366233	1.991603	0.225669
N	-0.43134	-1.221977	0.833076
O	-0.172008	-1.137942	2.026717
O	-1.011243	-2.132951	0.269214
N	0.042876	-1.085526	-2.335006
O	0.630356	-2.04202	-1.845924
O	-0.125905	-0.882237	-3.535461
C	-0.477558	1.233683	-2.043987
N	-0.397717	2.308048	-2.51251
Br	-3.714846	0.0	0.0
