15

C	-0.552272	-0.00908	-1.4222
C	0.0	0.0	0.0
Br	0.201124	-1.419102	-2.494918
H	1.094782	0.0	0.0
H	-1.634268	-0.13193	-1.446799
N	-0.305112	1.339363	-2.051511
O	0.85202	1.693671	-2.214351
O	-1.315351	2.004519	-2.298634
C	-0.488481	-1.20304	0.668781
N	-0.911407	-2.139132	1.239251
C	-0.461103	1.253271	0.756175
H	-0.130153	1.179687	1.792832
H	-1.547984	1.375598	0.733893
H	0.01496	2.133994	0.322383
Br	3.473625	0.0	0.0
