15

C	-0.402083	-0.00496	-1.459637
C	0.0	0.0	0.0
Br	-2.313995	-0.054535	-1.777237
H	1.09636	0.0	0.0
H	-0.015297	0.88632	-1.959712
N	0.284111	-1.164125	-2.174168
O	1.490794	-0.992175	-2.314395
O	-0.347963	-2.167854	-2.47846
C	-0.443424	-1.221821	0.648231
N	-0.800462	-2.198643	1.204917
C	-0.49979	1.235154	0.740143
H	-1.590661	1.2567	0.801725
H	-0.09412	1.242514	1.754724
H	-0.156248	2.140905	0.231457
Br	2.746768	0.0	0.0
