15

C	-0.566705	-0.041339	-1.417256
C	0.0	0.0	0.0
Br	0.230605	-1.415244	-2.502143
H	1.094852	0.0	0.0
H	-1.64335	-0.202951	-1.421235
N	-0.387154	1.308004	-2.065913
O	-1.408549	1.998138	-2.107398
O	0.727295	1.641462	-2.435612
C	-0.479355	-1.193047	0.693728
N	-0.905949	-2.119491	1.276927
C	-0.444418	1.261991	0.752192
H	0.029256	2.13676	0.30434
H	-1.529701	1.391841	0.747671
H	-0.092899	1.191374	1.782527
Br	3.444513	0.0	0.0
