15

C	-0.377149	0.096159	-1.465785
C	0.0	0.0	0.0
Br	-2.286664	0.315765	-1.791549
H	1.096388	0.0	0.0
H	0.128128	0.948661	-1.916302
N	0.092949	-1.104477	-2.251463
O	0.966866	-0.888981	-3.085658
O	-0.418978	-2.187104	-1.994048
C	-0.529735	-1.180211	0.671457
N	-0.957361	-2.07831	1.296598
C	-0.394135	1.26788	0.764462
H	0.008151	2.14347	0.249071
H	0.063036	1.228249	1.754605
H	-1.47632	1.367675	0.868405
Br	3.375423	0.0	0.0
