15

C	-0.376431	-0.078672	-1.477632
C	0.0	0.0	0.0
Br	0.108423	1.501683	-2.468908
H	1.096104	0.0	0.0
H	0.13056	-0.917137	-1.950434
N	-1.849028	-0.336168	-1.667127
O	-2.639761	0.533186	-1.315133
O	-2.14801	-1.436594	-2.128614
C	-0.449428	-1.240921	0.631548
N	-0.81587	-2.229335	1.1513
C	-0.489105	1.21611	0.783515
H	-0.073043	1.156854	1.790846
H	-1.576906	1.262613	0.840606
H	-0.110822	2.126843	0.319569
Br	3.409251	0.0	0.0
