15

C	-0.554689	-0.015776	-1.420864
C	0.0	0.0	0.0
Br	0.216859	-1.402833	-2.512779
H	1.094851	0.0	0.0
H	-1.635445	-0.144934	-1.44109
N	-0.317506	1.322439	-2.069483
O	-1.335362	1.98351	-2.297972
O	0.836251	1.672618	-2.267618
C	-0.48475	-1.201227	0.674628
N	-0.905307	-2.134621	1.251222
C	-0.459155	1.253851	0.756915
H	-0.123547	1.180065	1.792087
H	0.01446	2.135058	0.32138
H	-1.546118	1.374764	0.739499
Br	3.469014	0.0	0.0
