15

C	-0.395481	-0.000444	-1.456145
C	0.0	0.0	0.0
Br	-2.320339	-0.02929	-1.774148
H	1.096392	0.0	0.0
H	-0.003886	0.884262	-1.960655
N	0.267049	-1.184072	-2.150164
O	-0.386102	-2.173754	-2.461221
O	1.455213	-0.974821	-2.427389
C	-0.445331	-1.219328	0.653444
N	-0.803769	-2.190919	1.211654
C	-0.493883	1.237512	0.736489
H	-0.078619	1.242574	1.746932
H	-0.144207	2.139216	0.225572
H	-1.585446	1.264347	0.803121
Br	2.905901	0.0	0.0
