13

C	0.0	0.0	0.0
C	-0.599998	0.226518	-1.367007
Br	1.927337	0.0	0.0
H	-1.685032	0.268851	-1.192595
H	-0.341605	-0.940284	0.426525
H	-0.386727	-0.68254	-1.939182
N	-0.413578	1.045317	1.008272
O	-0.478895	0.678218	2.175466
O	-0.607371	2.187232	0.602562
N	-0.037042	1.367417	-2.087214
H	-0.385795	2.20819	-1.644286
H	-0.418639	1.347378	-3.025815
Br	-3.878328	0.0	0.0
