13

C	0.0	0.0	0.0
C	-0.573942	-0.025803	-1.415697
Br	1.923027	0.0	0.0
H	-1.66069	0.027229	-1.281271
H	-0.338767	-0.857165	0.577893
H	-0.340651	-1.021281	-1.806639
N	-0.420485	1.20128	0.805513
O	-0.43674	2.29059	0.239204
O	-0.678039	1.001337	1.986847
N	-0.141492	0.97675	-2.368718
H	0.869947	1.008903	-2.407798
H	-0.461969	1.879335	-2.046745
Br	-3.824516	0.0	0.0
