14

C	-0.434475	0.018416	-1.474577
C	0.0	0.0	0.0
Cl	0.171108	-1.41925	-2.345621
H	1.095721	0.0	0.0
H	0.021576	0.8824	-1.962558
C	-1.888987	0.083822	-1.62593
N	-3.057912	0.141289	-1.727688
C	-0.517554	-1.203801	0.782332
H	-0.111968	-2.120065	0.353427
H	-1.610433	-1.251462	0.781343
H	-0.166964	-1.133854	1.813067
C	-0.464466	1.249357	0.601242
N	-0.871616	2.242779	1.079241
Cl	3.289396	0.0	0.0
