14

C	-0.434323	0.017765	-1.47468
C	0.0	0.0	0.0
Cl	0.166933	-1.422893	-2.34378
H	1.095746	0.0	0.0
H	0.024746	0.879796	-1.963405
C	-1.888664	0.087732	-1.62666
N	-3.057533	0.147706	-1.728898
C	-0.518277	-1.202944	0.783076
H	-0.112119	-2.119607	0.355737
H	-1.611136	-1.250785	0.780962
H	-0.168932	-1.131744	1.814098
C	-0.463988	1.250092	0.600119
N	-0.871662	2.244038	1.076577
Cl	3.2889	0.0	0.0
