14

C	-0.435134	0.009687	-1.474337
C	0.0	0.0	0.0
Cl	0.182309	-1.427369	-2.339017
H	1.095784	0.0	0.0
H	0.014283	0.875253	-1.966478
C	-1.890861	0.06297	-1.625789
N	-3.061202	0.109285	-1.722746
C	-0.515381	-1.201181	0.788098
H	-0.159472	-1.128799	1.816839
H	-1.608328	-1.247787	0.792545
H	-0.11267	-2.119007	0.359528
C	-0.465539	1.251632	0.59537
N	-0.870729	2.247065	1.070863
Cl	3.293645	0.0	0.0
