14

C	-0.435212	0.008785	-1.474379
C	0.0	0.0	0.0
Cl	0.168332	-1.436302	-2.335318
H	1.09575	0.0	0.0
H	0.021736	0.869184	-1.968552
C	-1.890072	0.074605	-1.625142
N	-3.059582	0.128694	-1.725446
C	-0.517252	-1.199096	0.789714
H	-1.610093	-1.246958	0.78972
H	-0.166006	-1.122967	1.819777
H	-0.111768	-2.117826	0.366102
C	-0.464507	1.253091	0.593296
N	-0.873934	2.248283	1.065581
Cl	3.290033	0.0	0.0
