14

C	-0.519541	-0.012953	-1.44369
C	0.0	0.0	0.0
Cl	0.114992	1.36294	-2.386232
H	1.09544	0.0	0.0
H	-1.609135	0.093103	-1.44695
C	-0.189788	-1.261743	-2.126503
N	0.047405	-2.264564	-2.693837
C	-0.466823	-1.244415	0.762257
H	-1.558329	-1.342359	0.759462
H	-0.015369	-2.135464	0.323708
H	-0.121887	-1.172774	1.793556
C	-0.490669	1.208253	0.66162
N	-0.934688	2.145577	1.216857
Cl	3.280789	0.0	0.0
