14

C	-0.435522	0.006567	-1.473996
C	0.0	0.0	0.0
Cl	0.1884	-1.432639	-2.333098
H	1.095714	0.0	0.0
H	0.010146	0.872974	-1.969959
C	-1.892328	0.053013	-1.623248
N	-3.063332	0.096324	-1.717915
C	-0.513198	-1.199244	0.793417
H	-0.113429	-2.118934	0.365409
H	-1.606044	-1.244332	0.802161
H	-0.152644	-1.125148	1.820645
C	-0.467403	1.25361	0.589539
N	-0.870032	2.252511	1.058827
Cl	3.294462	0.0	0.0
