14

C	-0.521953	-0.016941	-1.441503
C	0.0	0.0	0.0
Cl	0.10558	1.364553	-2.384734
H	1.095498	0.0	0.0
H	-1.611444	0.090429	-1.438058
C	-0.200904	-1.265576	-2.129369
N	0.052142	-2.263532	-2.693518
C	-0.464202	-1.242207	0.767277
H	-0.014819	-2.134861	0.326863
H	-1.555579	-1.343231	0.768687
H	-0.117185	-1.170275	1.799166
C	-0.497574	1.209082	0.656327
N	-0.943598	2.137165	1.22031
Cl	3.275216	0.0	0.0
