17

C	0.0	0.0	0.0
C	-0.568059	0.13185	-1.407285
F	1.391081	0.0	0.0
H	-1.673947	0.161691	-1.190866
C	-0.459971	1.080409	0.962752
H	-0.105073	0.822208	1.963005
H	-1.553381	1.074091	0.907188
H	-0.035816	2.041901	0.670294
C	-0.419833	-1.32095	0.511511
N	-0.596163	-2.375143	0.997593
N	-0.131712	-0.944169	-2.23003
H	-0.662283	-0.967322	-3.089528
H	0.851006	-0.841027	-2.450604
N	-0.124667	1.483972	-1.963148
O	0.838577	1.502912	-2.734015
O	-0.75471	2.482134	-1.625894
F	-2.799167	0.0	0.0
