17

C	0.0	0.0	0.0
C	-0.483624	-0.013063	-1.441664
F	1.39107	0.0	0.0
H	-1.588709	-0.05434	-1.321867
C	-0.44986	1.21446	0.793675
H	0.038614	2.104136	0.389628
H	-0.136437	1.087418	1.831075
H	-1.539145	1.231276	0.69452
C	-0.435985	-1.245259	0.65322
N	-0.702576	-2.274287	1.144166
N	0.134448	-1.063084	-2.172485
H	-0.278696	-1.149031	-3.091668
H	1.12395	-0.875175	-2.273867
N	-0.129482	1.359764	-2.033399
O	0.99514	1.496399	-2.529535
O	-0.97738	2.246936	-1.986393
F	-2.720363	0.0	0.0
