15

C	-0.462752	0.001887	-1.478556
C	0.0	0.0	0.0
Br	0.353619	1.509563	-2.440421
H	1.096068	0.0	0.0
C	-0.067513	-1.224501	-2.172515
N	0.216666	-2.202841	-2.759243
C	-1.916387	0.161239	-1.577529
N	-3.083681	0.298441	-1.615659
C	-0.499896	-1.225418	0.618225
N	-0.926403	-2.187866	1.141405
C	-0.478471	1.223454	0.780485
H	-0.065135	2.128932	0.336376
H	-0.092309	1.147158	1.798333
H	-1.569029	1.291942	0.81745
Cl	3.224249	0.0	0.0
