15

C	-0.460797	0.016167	-1.474766
C	0.0	0.0	0.0
Br	0.254878	-1.543688	-2.427568
H	1.095967	0.0	0.0
C	-1.922704	-0.035662	-1.572642
N	-3.097354	-0.059946	-1.622006
C	0.015788	1.218934	-2.159526
N	0.38656	2.183253	-2.720779
C	-0.501314	-1.206118	0.648436
N	-0.922758	-2.146278	1.213734
C	-0.472894	1.253061	0.742079
H	-1.562538	1.337889	0.761554
H	-0.103293	1.203728	1.767885
H	-0.040522	2.140144	0.276187
Cl	3.220684	0.0	0.0
