15

C	-0.457477	0.022221	-1.476311
C	0.0	0.0	0.0
Br	0.256176	-1.533302	-2.435735
H	1.095932	0.0	0.0
C	-1.919139	-0.025297	-1.578243
N	-3.094332	-0.048925	-1.616634
C	0.019774	1.229364	-2.153603
N	0.386523	2.191142	-2.721425
C	-0.503149	-1.208466	0.64318
N	-0.925233	-2.152522	1.201651
C	-0.473731	1.250128	0.746675
H	-1.563813	1.33533	0.765277
H	-0.104651	1.196029	1.772135
H	-0.039432	2.139395	0.286107
Cl	3.223032	0.0	0.0
