15

C	-0.461376	-0.007195	-1.478949
C	0.0	0.0	0.0
Br	0.35608	1.494691	-2.449653
H	1.096019	0.0	0.0
C	-0.065754	-1.239114	-2.163422
N	0.221134	-2.220785	-2.743535
C	-1.91519	0.150525	-1.578858
N	-3.082637	0.287204	-1.615789
C	-0.499674	-1.221727	0.625721
N	-0.92372	-2.181951	1.155061
C	-0.479439	1.22898	0.771042
H	-0.095153	1.159422	1.790069
H	-1.570044	1.298144	0.805629
H	-0.064968	2.131344	0.321514
Cl	3.225558	0.0	0.0
