15
Coordinates from ORCA-job run
  C   -0.83740588067216     -0.67058332781589      0.00753182182224
  C   0.43652972369135      0.07952914412235     -0.28041981222598
  H   -0.82432916912646     -1.64664743322173     -0.48307406351951
  H   0.52967913046581      0.29728074256280     -1.34349201507375
  H   -1.01241021823357     -0.80202207360867      1.07277252520322
  N   -2.04614929838942      0.03858561585704     -0.52434865461674
  O   -3.12532761698911     -0.33118887145965     -0.07785002687096
  O   -1.87362750731661      0.90052548762347     -1.38184703009567
  C   1.66185951726123     -0.65237003750132      0.24636923440538
  H   2.56019922476697     -0.07269782318544      0.03228420523451
  H   1.58616851345982     -0.80310781369565      1.32559664409621
  H   1.75598483224963     -1.62625686311384     -0.23784003211529
  N   0.39094021792473      1.43257231181697      0.37793561256611
  O   -0.35784287898938      1.57805452186982      1.34130862986739
  O   1.15473140989718      2.27732641974973     -0.07592703867718
