15
Coordinates from ORCA-job run
  C   -0.43305984956505      0.03486390448022      0.18981523392795
  C   0.94582015149782     -0.35630750031543     -0.32408561689568
  Br  -0.19223194564610      0.34201996689466      2.19886944078066
  H   1.27436475262614     -1.29453448781691      0.11611450314758
  H   0.90228859100466     -0.42888213725062     -1.41467270068266
  N   -0.95425781068812      1.15250075691978     -0.48680984979624
  H   -1.86790538556633      1.41161860821775     -0.13888133878554
  H   -0.32556154329679      1.94465459398284     -0.46326262225523
  C   -1.37413182677972     -1.15153629352973      0.06998507030056
  H   -1.00146499241217     -2.01227517326428      0.62479127436893
  H   -1.48417267600493     -1.40884741093189     -0.98721462123837
  H   -2.35655955349698     -0.89029511848297      0.46782215496719
  N   2.01704786324483      0.63691272869144     -0.01742917769229
  O   3.05316964862695      0.20782973768919      0.47722732878060
  O   1.79865457645578      1.81127782471595     -0.31226907892746
