15
Coordinates from ORCA-job run
  C   -0.49856842208117      0.22755026616936      0.47682600269897
  C   1.03985444748375      0.31245565138260      0.46706030357367
  Br  -0.95896681148406      0.65461756753648      2.35115423552837
  H   1.36781043133851      1.34055995633477      0.62031703340619
  H   1.48522722045510     -0.35716366739577      1.19963964611118
  N   -1.18571516249811      1.17674210022664     -0.35141666999104
  H   -0.84866196783350      2.11853035217995     -0.18933100588659
  H   -1.03721391089578      0.95071890988769     -1.32879521997415
  C   -0.98554931476410     -1.17432335840869      0.16179965983105
  H   -0.50798683488263     -1.91469065839559      0.80400733609055
  H   -0.75466745953218     -1.42317849517818     -0.87900024379981
  H   -2.06572193668798     -1.21645366225745      0.29660216956334
  N   1.54080785645135     -0.11840999848593     -0.86867574049026
  O   1.39809659684668      0.67516523345217     -1.80015701047500
  O   2.01125526808411     -1.25112019704803     -0.96103049618647
