15
Coordinates from ORCA-job run
  C   -0.46106711213381      0.24497908860048      0.14895926046527
  C   0.89163734908056      0.42796153285905     -0.53591975457330
  Br  -0.22340052413965      0.84893644579724      2.06976714446189
  H   1.16003695118118      1.48235522206013     -0.57923467596943
  H   0.82598379892280      0.00524396743785     -1.54063391496806
  N   -1.37546720208582      1.06764812287274     -0.56053965922820
  H   -1.13365620907290      2.04932954796085     -0.50094098656242
  H   -2.32118327025469      0.94434690095026     -0.22110247601364
  C   -0.97158517089754     -1.18150647160142      0.19686923109288
  H   -0.30276663873162     -1.82953577692908      0.75580214491066
  H   -1.06297057387490     -1.55629253571491     -0.82617907347565
  H   -1.95533910651713     -1.19931808504179      0.67094326817402
  N   2.02208625284665     -0.25985130255812      0.14590206010729
  O   1.99503222083212     -1.48914374721319      0.16186853640382
  O   2.91165923484477      0.44484709051991      0.61443889517483
