15
Coordinates from ORCA-job run
  C   -0.49208959503331      0.25901649409249      0.27920560135870
  C   0.84477724842714      0.48867367333152     -0.44102127479440
  Br  -0.24587357118718      0.80670267128815      2.15419761961490
  H   0.73259091199026      0.17377312679963     -1.48170033096374
  H   1.13063718389483      1.53777993956579     -0.38188637895168
  N   -1.52070512345709      1.10766811526156     -0.27365192209515
  H   -1.22726931170980      2.07637346006278     -0.32031016639564
  H   -1.78034713941682      0.78548735936305     -1.19968473840073
  C   -0.97197210883925     -1.17892861772753      0.24793673774190
  H   -1.06375859476554     -1.50982468754298     -0.79244869210459
  H   -1.95043380920403     -1.22716440903759      0.72567819333791
  H   -0.28201371346201     -1.84959477072870      0.75377816343758
  N   1.98970895555164     -0.29200097016637      0.10805460888554
  O   1.98124321172408     -1.50520429539965     -0.09890330896643
  O   2.85550545548711      0.32624291083785      0.72175588829588
