15
Coordinates from ORCA-job run
  C   -0.34801348610368      0.04430741578999      0.38778109725205
  C   0.98844884288639     -0.37782914937544     -0.22002300941441
  Br  -0.09740012141151      0.41658054697219      2.31534169098252
  H   1.49120710430257     -1.10896003520214      0.40984098768541
  H   0.81426563669842     -0.77997327965074     -1.22015787622250
  N   -0.78883258249018      1.26501053825415     -0.22439029162154
  H   -1.73865310943443      1.48702044111214      0.04481685892107
  H   -0.71017230045395      1.22578819197572     -1.23414089357849
  C   -1.31699933261906     -1.13103966004313      0.29534502289121
  H   -0.92128577911999     -2.02555608158933      0.78114715462074
  H   -2.26170597063492     -0.87186976871859      0.77671522485634
  H   -1.51142182733837     -1.34981509271646     -0.75988832720768
  N   1.90997208859142      0.77691258331996     -0.40262390265467
  O   1.82886707728168      1.37509337764525     -1.47499953419053
  O   2.66272375984563      1.05432997222645      0.52523579768047
