15
Coordinates from ORCA-job run
  C   -0.46458892278501      0.22289277814020      0.51220780782302
  C   1.07187385449127      0.28272465856205      0.41134627964464
  Br  -0.80342102112368      0.60686870452781      2.42156120579842
  H   1.54909357281695     -0.41306587217793      1.09798554298019
  H   1.42623859186551      1.30121312571006      0.56993066626435
  N   -1.18299017911261      1.20498206779346     -0.24793801927240
  H   -1.09805318926099      1.00328385060859     -1.23809525498217
  H   -0.82135573687240      2.13680004362160     -0.08156240800777
  C   -0.99464443506558     -1.16187136631847      0.19103960268314
  H   -0.49134129950136     -1.92736240693041      0.78209832955353
  H   -2.06504194761879     -1.19081834555872      0.39129575504306
  H   -0.83262343228017     -1.38517733956233     -0.86842855966259
  N   1.48313336516521     -0.12092881125317     -0.96308673905011
  O   1.92566209174412     -1.25877947402895     -1.11262211302040
  O   1.29905868753755      0.69923838686621     -1.86373209579493
