15
Coordinates from ORCA-job run
  C   -0.48490214708015      0.26619537889547      0.28571949363438
  C   0.83210167059700      0.47910756877454     -0.47484023286806
  Br  -0.19064830751201      0.86119193397377      2.13939319787368
  H   1.11867697939255      1.52937983376775     -0.44868128729976
  H   0.69278526156438      0.13941289493579     -1.50437693390059
  N   -1.52928879940047      1.09907057659185     -0.26116000608571
  H   -1.81479512223278      0.75149200503412     -1.17021335686172
  H   -1.23859940124901      2.06629936778373     -0.34245730331324
  C   -0.96224451612493     -1.17288172761956      0.30332651049465
  H   -1.92835665542813     -1.21044413844277      0.80651541211322
  H   -1.07910242840528     -1.53066974127717     -0.72555393581885
  H   -0.25843758093329     -1.82912123369636      0.80902994668245
  N   1.99174292849794     -0.28805408209456      0.06231896357859
  O   1.98062676133995     -1.50537194829149     -0.11882538237479
  O   2.87144135697422      0.34439331166491      0.64080491414569
