15
Coordinates from ORCA-job run
  C   -0.38969132371411     -0.01532392491901      0.55242068318709
  C   1.03230661663017     -0.49928641335215      0.34456957557375
  Br  -0.87486978367393     -0.56227873849769      2.36299214487220
  H   1.09499166352327     -1.57885010186066      0.46927096730403
  H   1.71436352685787     -0.00319585551080      1.03417180679485
  C   -1.39956317583958     -0.55445995069381     -0.43176670292897
  H   -2.40477738358443     -0.24626022910372     -0.15324186371072
  H   -1.34945034440852     -1.64496590736093     -0.43178749073057
  H   -1.18453569858758     -0.17406216826556     -1.43045879378946
  N   -0.40972692242332      1.51386927938939      0.57885079177427
  O   0.55451509521900      2.06593632934337      1.09194826778175
  O   -1.40301553787318      2.06069622945901      0.11993494650245
  N   1.53671184313108     -0.19986541784912     -1.03415136412197
  O   1.07565090149229      0.78567712973228     -1.60542049891327
  O   2.40709052325096     -0.94663026051060     -1.46633246959542
