15
Coordinates from ORCA-job run
  C   -0.38720928738199     -0.09092713770459      0.31771777058194
  C   0.81591799324828     -0.45709543888918     -0.52752950335480
  Br  -0.28493082767948     -0.97356565034223      2.03091830371162
  H   0.81136319742107      0.13458745065037     -1.44463486809007
  H   0.81020650300901     -1.52089088479444     -0.75738422763358
  C   -1.67690249888570     -0.47865177266135     -0.38920525591769
  H   -1.71666145305094     -1.55984292855171     -0.52458435771764
  H   -1.72370292651737      0.01580054050759     -1.36166899574094
  H   -2.53436433809617     -0.17188181890033      0.21181942812396
  N   -0.44185798438335      1.43354940933833      0.49556743428738
  O   -0.31630252354957      2.05017645975745     -0.55786871641260
  O   -0.67671243676527      1.90531310399906      1.59332640381235
  N   2.11596355685653     -0.17225826532791      0.14917808108075
  O   2.18972761022287      0.87219454131452      0.78889486601489
  O   3.01646541555208     -0.98650760839556     -0.02454636274557
