15
Coordinates from ORCA-job run
  C   -0.38623675781700      0.02938639625306      0.55428528140322
  C   1.09484037160586     -0.26135477074512      0.40831098934248
  Br  -0.79326521185559     -0.23518884587107      2.44557216791748
  H   1.68750368748081      0.45402672385497      0.97738035167407
  H   1.32321319540923     -1.27555843047688      0.73114577761299
  C   -1.29365254512075     -0.83345356276133     -0.28911457940174
  H   -2.33642409170828     -0.63711435498366     -0.05021553013893
  H   -1.13348807096864     -0.61835977812997     -1.34572455503038
  H   -1.07450376696107     -1.88367859412510     -0.08727120947932
  N   -0.64300762827224      1.51477370782844      0.29532921379267
  O   0.22132215842068      2.29461970211144      0.67281429379462
  O   -1.70680051516357      1.80669131061088     -0.23320713773934
  N   1.55560451505765     -0.15336394026651     -1.01322239320680
  O   2.53315258117206     -0.82659079997417     -1.31839769260045
  O   0.95174207872085      0.62516523667502     -1.74768497794058
