15
Coordinates from ORCA-job run
  C   -0.28821713651146      0.24072144229882      0.42909187811380
  C   0.97632535202396      0.30284935871890     -0.42851442219929
  Br  0.18393948959462      0.11501878749688      2.29772031266533
  H   0.68863486090079      0.40971578700377     -1.47594724327508
  H   1.62055878126919      1.11824798319051     -0.10260737995732
  C   -1.27537699899691     -0.84966520839502      0.06586933708935
  H   -1.47497430178196     -0.83710724422085     -1.00465092357628
  H   -0.87102356992889     -1.82180871767378      0.33947581323580
  H   -2.20801621620588     -0.68884310472419      0.60876845206226
  N   -0.94223712508622      1.61007545394334      0.15267479218632
  O   -1.55667475373480      1.66280956240627     -0.90956083815785
  O   -0.76093703279496      2.53268039591127      0.93193975492391
  N   1.77299105208671     -0.95208642322900     -0.32393821757833
  O   1.31029120217894     -1.94358427493797     -0.88554249608295
  O   2.82571639698685     -0.90002379778897      0.30522118055032
