15
Coordinates from ORCA-job run
  C   -0.28534564027519      0.27041387936725      0.37478005810700
  C   1.00790679484778      0.29394897030182     -0.43397229919891
  Br  0.12277179414602      0.27380454538318      2.27511097073052
  H   1.64924582986194      1.11504057830583     -0.12939144151322
  H   0.77198252989731      0.35890879977589     -1.49670886104390
  C   -1.24023999374346     -0.85330707792233      0.04241075648941
  H   -0.78584916592027     -1.81543509531030      0.26901144571147
  H   -2.15484247201230     -0.73634869505483      0.61998068508143
  H   -1.47968725307127     -0.82422258621867     -1.02436955934384
  N   -1.00213350851099      1.60102176283567      0.09905908353217
  O   -0.37025554396172      2.46534796281910     -0.50197721875096
  O   -2.15214666933289      1.69716169546272      0.50158063879249
  N   1.77973328979429     -0.96803445882534     -0.24142114931522
  O   1.37814545467844     -1.96094809293003     -0.84712220205538
  O   2.76171455360229     -0.91835218798996      0.49402909277693
