12
Coordinates from ORCA-job run
  C   -0.38570060700190      0.44405665241060     -0.12375405559422
  C   0.99130011987892     -0.21890611811811      0.00925670422819
  H   -0.41264032656663      1.33694476704420      0.50713976777235
  H   1.15316671922333     -0.55178511274967      1.03922480898993
  H   -0.51950550844599      0.78143336065728     -1.15538838810928
  H   1.04611308590997     -1.10830632100699     -0.62620653892867
  C   -1.50362338903695     -0.51556476603564      0.26874770374607
  H   -2.48107117474025     -0.03868025861421      0.17226463490288
  H   -1.50167872746014     -1.40386246092623     -0.36827635269918
  H   -1.39406607593349     -0.84468369733459      1.30535269471806
  C   2.07817617620695      0.68624631298730     -0.36308188436915
  N   2.92952970796618      1.43410764168606     -0.66727909465698
