12
Coordinates from ORCA-job run
  C   -0.51350287553867      0.63276657713371      0.04636699019666
  C   0.91968640517273      0.53173535584546     -0.49376105846772
  H   -0.49006439723631      1.11855169991871      1.02621706652551
  H   0.91614444199947      0.08781978550959     -1.49437627736076
  H   -1.07636175227298      1.29136359307714     -0.62236209264496
  H   1.37195507146558      1.52369771733091     -0.58295419722551
  C   -1.19794075687236     -0.72541445138992      0.14777135623986
  H   -1.23335148799128     -1.21932410805061     -0.82707687670205
  H   -2.22408125649787     -0.61817209693339      0.50545549977274
  H   -0.66836819993543     -1.38317374729933      0.84043163765545
  C   1.77004376798825     -0.28850203571027      0.37006609681157
  N   2.42584103971886     -0.95034828943201      1.08322185519922
