17
Coordinates from ORCA-job run
  C   -0.56407221567887     -0.41063915850584     -0.20755284300016
  C   0.87127519438024     -0.23165391013267      0.29598247926448
  F   -1.10033926029306     -1.44396054169490      0.59082480530446
  H   1.37679921373055     -1.20229713520799      0.20278049008704
  N   -0.45443913818379     -0.81437219783955     -1.56958064725632
  H   -0.02307866990889     -1.73040656870562     -1.63265747180389
  H   -1.36811620219275     -0.85754365826258     -2.00277015254467
  C   -1.47122716991243      0.79031683191288     -0.07706146403753
  H   -1.04014327825746      1.65448729665819     -0.57991038538358
  H   -1.62363347009794      1.03658096552225      0.96927981988876
  H   -2.43646742331771      0.54728307940948     -0.52894813199470
  N   0.88619307676564      0.00727964152900      1.79396397462860
  O   1.31979714247477     -0.93523981048266      2.46674419475010
  O   0.36696259902084      1.04115803215116      2.23343838655620
  N   1.49705261436681      0.87536011162649     -0.35494576420428
  H   1.25564232085952      0.84089063760548     -1.33907986041039
  H   2.50479466624453      0.83075638441690     -0.26050742984412
