17
Coordinates from ORCA-job run
  C   -0.44861944568212     -0.12191196494255     -0.53706855347736
  C   0.54630948607911      0.20368669861246      0.59662111489966
  F   0.18238595604506     -1.18853974455689     -1.22416154842303
  H   0.18691859239456      1.06515178411085      1.16240665004294
  N   -0.69117091063914      0.93259993970993     -1.44209642440252
  H   0.00932859066868      1.65682622320740     -1.46212582351575
  H   -1.62581079524889      1.30220359419076     -1.40250702994671
  C   -1.74531291221146     -0.66824603268236      0.02132648197196
  H   -2.41132908817547     -0.88907048779878     -0.81559020637933
  H   -2.21997047835315      0.06255837557658      0.67991225736105
  H   -1.56207781910815     -1.57875177475095      0.58546687266053
  N   1.84553563822883      0.71479466297592     -0.05669433061325
  O   1.83888955968318      1.87757882118321     -0.46530406749575
  O   2.79208464159554     -0.05926629183307     -0.12538531979177
  N   0.76177659005336     -0.91915119174990      1.42821744733680
  H   1.40468548932957     -0.70833650191017      2.17961239780681
  H   1.13737690534049     -1.68212610934246      0.87937008196571
