17
Coordinates from ORCA-job run
  C   -0.71545594802225     -0.38838554385990     -0.18755496758763
  C   0.74001757433653     -0.55307716370651      0.27569827129883
  F   -1.49523247257234     -1.11837581084367      0.70624449302630
  H   0.96344700395986     -1.61968663173174      0.26153997611184
  N   -0.78910111004789     -1.03245444517213     -1.46543425228161
  H   -0.00293732717455     -0.73908178320089     -2.03220371711706
  H   -1.65112549114739     -0.79053960725764     -1.93855077107034
  C   -1.24076387735273      1.03521918352403     -0.14700068066326
  H   -0.68377014407780      1.67348592276208     -0.83518614842826
  H   -1.19661298850303      1.45850978784788      0.85612218544864
  H   -2.28527956002160      1.01735587823498     -0.46723575871881
  N   0.83054724547229     -0.15790449550368      1.74175050573192
  O   1.00433716549352      1.03828291744054      1.97864533187309
  O   0.72159965783045     -1.04938077905190      2.57577502963421
  N   1.63375421938415      0.17887432029747     -0.55924802686028
  H   2.58926213809293     -0.12249447216823     -0.41807700155071
  H   1.57631391434984      1.16765272238932     -0.34528446884688
