20

C	-0.394063	0.027404	-1.491815
C	0.0	0.0	0.0
Cl	0.150408	-1.56024	-2.188403
H	1.090712	0.0	0.0
C	-1.887402	0.114568	-1.755833
H	-2.29439	1.029848	-1.321898
H	-2.080808	0.115923	-2.831863
H	-2.41102	-0.735342	-1.317937
C	0.418534	1.095854	-2.209684
H	1.450671	1.002337	-1.855954
H	0.042878	2.089464	-1.954122
H	0.353567	0.963466	-3.293744
C	-0.535769	-1.157566	0.816703
H	-1.623691	-1.249966	0.803011
H	-0.081719	-2.075786	0.449511
H	-0.220508	-1.026757	1.853004
N	-0.480362	1.279866	0.601193
O	-1.540508	1.271985	1.243157
O	0.19109	2.297843	0.430367
F	2.611798	0.0	0.0
