20

C	-0.167444	0.019678	-1.522098
C	0.0	0.0	0.0
Cl	-1.92791	0.01869	-2.030463
H	1.093165	0.0	0.0
C	0.522195	1.22805	-2.136545
H	1.531663	1.231723	-1.713675
H	0.0214	2.16286	-1.889853
H	0.555151	1.117862	-3.223681
C	0.503696	-1.241386	-2.055844
H	-0.030705	-2.145657	-1.763285
H	1.512941	-1.237358	-1.626995
H	0.551181	-1.206239	-3.147221
C	-0.560473	-1.211311	0.710308
H	-1.608355	-1.398381	0.463326
H	0.045814	-2.080444	0.452547
H	-0.483064	-1.07003	1.79051
N	-0.531462	1.239991	0.617027
O	-1.580614	1.167597	1.26797
O	0.094607	2.289819	0.458956
F	2.641053	0.0	0.0
