20

C	-0.355295	0.075777	-1.515207
C	0.0	0.0	0.0
Cl	-0.360006	-1.629963	-2.15753
H	1.09074	0.0	0.0
C	-1.739809	0.634721	-1.800466
H	-1.953531	0.578403	-2.870818
H	-2.509793	0.080477	-1.260647
H	-1.781764	1.681924	-1.495734
C	0.756668	0.804672	-2.260891
H	0.670588	0.644071	-3.339537
H	0.685526	1.871111	-2.046161
H	1.713327	0.454106	-1.858973
C	-0.551114	-1.176508	0.773933
H	0.037283	-2.053242	0.511732
H	-0.42874	-0.994147	1.840738
H	-1.60721	-1.379129	0.580068
N	-0.46937	1.276332	0.60446
O	-1.388122	1.248067	1.432966
O	0.063182	2.323759	0.231475
F	2.629017	0.0	0.0
