15

C	0.0	0.0	0.0
C	-0.345225	0.01444	-1.538684
F	1.355489	0.0	0.0
H	0.446756	0.670072	-1.917202
N	-0.388996	1.323758	0.644338
O	-0.704114	1.311408	1.825982
O	-0.240763	2.310659	-0.069854
C	-0.491531	-1.120513	0.791412
N	-0.730893	-2.091952	1.407976
N	-1.589827	0.476885	-2.056147
H	-1.634887	1.480081	-1.929377
H	-2.390216	0.09187	-1.537213
C	-0.028335	-1.340108	-2.027227
N	0.257753	-2.407144	-2.42492
Cl	-3.792843	0.0	0.0
