12
Coordinates from ORCA-job run
  C   0.84011972099081     -0.46263040276932      0.52170365953244
  C   -0.45087599155126     -0.22313056046174     -0.29199690728211
  Br  0.69116133180808      0.18401846037879      2.34432088802409
  H   -0.28302161068557     -0.72898726179920     -1.25813095559233
  H   1.03841004292694     -1.53497901013363      0.58831009447657
  C   1.94831352414373      0.19903489349380     -0.15509729103188
  N   2.79933221620655      0.74116734742243     -0.75707503652948
  N   -0.72093567144266      1.19793523432381     -0.40656679263475
  H   -0.10881685629721      1.61337368678025     -1.09893079684802
  H   -1.67968037842519      1.36252599270716     -0.68404089766534
  C   -1.57661139774993     -0.90335934337423      0.35518163033091
  N   -2.49739492992430     -1.44496903656811      0.84132240521992
