12
Coordinates from ORCA-job run
  C   0.88792694849072     -0.52035199846755      0.35844046667121
  C   -0.48575860465412     -0.18261025430466     -0.26214313873989
  Br  0.96066570885713     -0.10924109137099      2.25250368940129
  H   -0.43676760751889     -0.55960828123083     -1.29804673749797
  H   1.07825704092360     -1.59227050779016      0.26632451644267
  C   1.91835463353386      0.22221340233918     -0.35616611296784
  N   2.70024118121807      0.83326503133474     -0.98539970448779
  N   -0.75112103235620      1.24033883073610     -0.16141527228202
  H   -0.21431351297067      1.74422710325328     -0.85758592926807
  H   -1.73271599593895      1.43604811823986     -0.30809241572275
  C   -1.53542878634996     -0.94617122654305      0.41904973272502
  N   -2.39033997323459     -1.56583912619591      0.93153090572615
