12
Coordinates from ORCA-job run
  C   0.84521407704225     -0.40266656924368      0.52404180518893
  C   -0.44263481298321     -0.24207022287346     -0.30179722512455
  Br  0.81282264796391      0.75002394398232      2.09766913197004
  H   -0.33262521838835     -0.91073269007254     -1.16409013278763
  H   0.91987189372006     -1.42230890256025      0.90868386842937
  C   2.01188594439628     -0.09650710430899     -0.29194991594802
  N   2.95709337708592      0.10372342232163     -0.95968120520586
  N   -0.55696180687766      1.10958457238144     -0.80246402144838
  H   -0.81108801631879      1.74686745250006     -0.05748727965610
  H   -1.26285157325734      1.16251462479464     -1.52538405923859
  C   -1.59698422567003     -0.72393586435087      0.48555052801510
  N   -2.54374228671303     -1.07549266257029      1.08590850580568
