12
Coordinates from ORCA-job run
  C   0.97226537587942     -0.59086401027373      0.04735000476490
  C   -0.52397981560402     -0.39010352621880     -0.24588958738515
  Br  1.24754031247615     -2.02672219390663      1.32776609718809
  H   -0.90553496208675     -1.34495004816163     -0.61944747984052
  H   1.45238302130982     -0.89180836659354     -0.88493584351528
  C   1.57153774370320      0.64566245920372      0.52946768957567
  N   2.01378501700836      1.67269901213498      0.89055111545984
  N   -0.63524106573166      0.59823212007289     -1.30521457651269
  H   -1.55984070357289      0.56903054123678     -1.71735810933894
  H   -0.48699028468029      1.53165410448574     -0.93710484234313
  C   -1.26195526367405     -0.05197673114943      0.98668303673178
  N   -1.88296937502729      0.28014663916967      1.92713249521543
