12
Coordinates from ORCA-job run
  C   0.86852669073587     -0.18856943898829      0.60175207508127
  C   -0.43892578806141     -0.33865428642297     -0.19449847342475
  Br  0.82367425742240      1.40836884471327      1.72140111842498
  H   -0.32123881075869     -1.24629792906868     -0.79867926265367
  H   0.98686994731059     -1.02734445730068      1.29152143583632
  C   2.00822737365120     -0.12906118506503     -0.30272570683726
  N   2.93192738676027     -0.12742210318971     -1.02795522857645
  N   -0.60987441766020      0.77571604193240     -1.10029851788761
  H   -0.87537505730458      1.61131669613207     -0.59342410902329
  H   -1.32847981576886      0.57203554821254     -1.78296716772019
  C   -1.56138252792961     -0.57163699360091      0.73826424481854
  N   -2.48294923839697     -0.73845073735401      1.44760959196210
