12
Coordinates from ORCA-job run
  C   1.02027819595465     -0.45594691990607      0.03952452277042
  C   -0.49221882779531     -0.36942924363431     -0.25673159692892
  Br  1.42099541334593     -2.04039468089114      1.10008383380824
  H   -0.79750084657543     -1.33925682161832     -0.66988187098844
  H   1.54760307974650     -0.57648030568231     -0.90942938834376
  C   1.49457617424780      0.74376089071473      0.71289516340479
  N   1.87330312607625      1.71181227302238      1.26023605447566
  N   -0.69384259765463      0.74370292386534     -1.17541862522898
  H   -0.78945767072030      0.41100744262314     -2.12541112900681
  H   -1.50818430886037      1.29299218410006     -0.93794333197047
  C   -1.23873961198937     -0.16226678197200      0.98669489289683
  N   -1.83681212577574      0.04049903937850      1.97638147511143
