12
Coordinates from ORCA-job run
  C   0.92660012786693     -0.20755718795372      0.49912263313461
  C   -0.49865323782895     -0.30293240395741     -0.07108612606473
  Br  1.23355554181968      1.53484235284703      1.32094611396377
  H   -0.57779065206194     -1.30081965358039     -0.51920675274135
  H   1.06013925673084     -0.93746362105887      1.30084161895477
  C   1.90947699542705     -0.44258919446641     -0.54931063146346
  N   2.70419627947698     -0.67784574671748     -1.38144183120641
  N   -0.68843594278232      0.67042944174830     -1.12359807193048
  H   -0.77504324613045      1.60259782061436     -0.73714536138520
  H   -1.52571682358027      0.46301971095772     -1.65280588066318
  C   -1.47807826035824     -0.23700747585041      1.03388985292837
  N   -2.28925003857932     -0.16567404258272      1.88079443647329
