12
Coordinates from ORCA-job run
  C   1.04728021032235     -0.09971340670988     -0.02304120669647
  C   -0.48891667097096     -0.24691169250265     -0.07180991213522
  Br  1.89777722037853     -1.58202894129989     -0.94746131096448
  H   -0.73946407495756     -1.22235968744754      0.35571716008312
  H   1.34296610231375      0.80716643556917     -0.55708899644905
  C   1.53323547696519     -0.04349612490859      1.34891584513225
  N   1.90297223159945     -0.00181288248865      2.46344386029549
  N   -0.94896394574975     -0.20753653896353     -1.44485217119104
  H   -1.00564393437868      0.74766971021212     -1.77739877523412
  H   -1.86792143179605     -0.62300612355590     -1.52364090616974
  C   -1.08610259178596      0.80148879607329      0.78152392920194
  N   -1.58821859194033      1.66954045602206      1.39469248412732
