12
Coordinates from ORCA-job run
  C   1.04121948141030     -0.14984937865030     -0.03110668964082
  C   -0.50049689299290     -0.23163861289311     -0.03431763775415
  Br  1.80430351290184     -1.76583323750441     -0.79316862349101
  H   -0.78232702337074     -1.14064595898810      0.50552297595211
  H   1.36325019943978      0.67523191789015     -0.67200507165063
  C   1.56172815264260      0.04281349057799      1.31559624405359
  N   1.96092925855761      0.19952259229068      2.40955924862640
  N   -0.99050771213617     -0.32644909252783     -1.39424304469974
  H   -1.92930956134296     -0.70329111542030     -1.40790480193332
  H   -1.01149170832655      0.58657928823013     -1.83281647948201
  C   -1.03275574077149      0.93110486068207      0.70619602223092
  N   -1.48354196601132      1.88245524631302      1.22868785778867
