12
Coordinates from ORCA-job run
  C   0.94525771898603     -0.12349650837742     -0.03308368363650
  C   -0.60976366924098     -0.15545064487346      0.03875211388873
  Br  1.60009136200666     -1.74113677727489     -0.90280263142164
  H   -0.88804102624993     -1.01102646744353      0.66324970972120
  H   1.26626545138225      0.71209134810169     -0.66031162636266
  C   1.54245616945702     -0.01227420380627      1.28915950229937
  N   1.99137025328817      0.07678810674216      2.37168548192821
  N   -1.30753875315397     -0.26440599730982     -1.21964642784445
  H   -1.08586363381891     -1.14037428819005     -1.67494736772910
  H   -1.07511209739003      0.50244401334800     -1.83908691491539
  C   -1.03523123443803      1.07438498058432      0.72367242853080
  N   -1.34389054082831      2.08145643849926      1.24235941554142
