12
Coordinates from ORCA-job run
  C   1.01925922671591     -0.08730053220495     -0.01873337247135
  C   -0.52080776479597     -0.13353130386102     -0.01590515838256
  Br  1.72437416915225     -1.73957377823939     -0.78311550058941
  H   -0.82926265600148     -0.98197328738766      0.61354331367541
  H   1.34180893699663      0.71925777760675     -0.68024003875610
  C   1.55983787546249      0.08613029189894      1.32129109599516
  N   1.97512904175468      0.23177752170016      2.41069962990798
  N   -0.99836230938402     -0.18245635976629     -1.39026786983712
  H   -0.85325809534998     -1.11146910753854     -1.76698645463735
  H   -1.98992662562683      0.02072872426564     -1.42129719435109
  C   -1.01086597151194      1.09766793281165      0.61687171372129
  N   -1.41692582741175      2.08074212071469      1.11413983572513
