12
Coordinates from ORCA-job run
  C   0.88058090492594     -0.21368155446702      0.47175544359758
  C   -0.59667693311230     -0.31767078298603     -0.00732509398830
  Br  1.22776677410822      1.51158537571611      1.30489742527603
  H   -0.69719346653896     -1.32365453127069     -0.43498954533966
  H   1.08981543936290     -0.96886785474710      1.23349981952290
  C   1.76402523375152     -0.39279699017018     -0.67131933013853
  N   2.41479058652581     -0.55159415525813     -1.63685198326826
  N   -1.02569256062774      0.62999089560196     -1.00490428759729
  H   -0.91473858285804      1.58076266038516     -0.67493887084637
  H   -0.50322482866564      0.50922975209120     -1.86405223554406
  C   -1.47666803079859     -0.25298471011849      1.16702482339783
  N   -2.16278453607312     -0.21031810477680      2.11820383492814
