12
Coordinates from ORCA-job run
  C   0.82039439306639     -0.19890406209158      0.57519987786676
  C   -0.54021649483508     -0.37405173139043     -0.16028504361341
  Br  0.80159653984356      1.37617789052131      1.71954071133992
  H   -0.43726721559741     -1.29126741272399     -0.75450654168825
  H   1.01275710813877     -1.05153710213811      1.23126787005180
  C   1.88205809619023     -0.07445497049650     -0.41283252847657
  N   2.68941224835149      0.01228803607160     -1.26239075042213
  N   -0.93935863923667      0.68587095375600     -1.05157900388677
  H   -0.28437673524076      0.77736035381014     -1.81846775570313
  H   -1.00754992440311      1.56854941316009     -0.56019718961251
  C   -1.58744945476862     -0.61690865031497      0.84066287686171
  N   -2.40999992150878     -0.81612271816356      1.65358747728258
