12
Coordinates from ORCA-job run
  C   0.95099076152691     -0.06877290009761     -0.04831531402395
  C   -0.59921701295525     -0.18995398097955      0.03103024801647
  Br  1.68087725365761     -1.58313289380295     -1.03679386541924
  H   -0.82403971989327     -1.10322091441551      0.59228104543958
  H   1.22112987982219      0.82527679239815     -0.61605779273415
  C   1.55487837893801     -0.02181378436572      1.27456966944179
  N   2.00820627456693      0.01006231247340      2.35850076760093
  N   -1.30346766861116     -0.24408261484882     -1.22728326457289
  H   -1.12267687667362      0.57915360795729     -1.78852807824914
  H   -1.03855168078821     -1.06944808540127     -1.74892601431515
  C   -1.08459652956670      0.96020769076371      0.80812304293237
  N   -1.44453306002343      1.90672477031890      1.40239955588338
