12
Coordinates from ORCA-job run
  C   1.02088183579393     -0.06706129705102      0.01420418738813
  C   -0.51661417998134     -0.13767027306983     -0.05624612620058
  Br  1.79276316805025     -1.59038143542056     -0.93180989576622
  H   -0.83239194433552     -1.06665142554726      0.44230753929463
  H   1.35344633743413      0.82595875269671     -0.51864700007554
  C   1.50118238649472     -0.06731958347535      1.38793300534400
  N   1.86639011048814     -0.06554702953468      2.50473451243108
  N   -0.93671747418252     -0.01188065097191     -1.44444890308496
  H   -1.93080096129222      0.17606174765572     -1.49094183552746
  H   -0.75568986776816     -0.88037874029137     -1.93323674227180
  C   -1.05798665921277      0.99122561100673      0.71125542880423
  N   -1.50346275148864      1.89364432400282      1.31589582966449
