12
Coordinates from ORCA-job run
  C   1.01404709964175     -0.12877959503224     -0.05482856491267
  C   -0.52580346883196     -0.10723106500551     -0.00643081592148
  Br  1.62149335785852     -1.76632474508958     -0.92739258805403
  H   -0.85399690756291     -0.97048213096996      0.59213397820732
  H   1.35534312536407      0.69780845843198     -0.68111228874880
  C   1.59804231207635     -0.05585276344975      1.27623314831009
  N   2.04719255745747      0.00416323325446      2.36033057547813
  N   -1.04593157504270     -0.06850043537790     -1.36555057980814
  H   -2.02781151909053      0.17929031315245     -1.35470320193033
  H   -0.95537557884343     -0.98408653883897     -1.78913884633192
  C   -0.93973584649364      1.11271509695520      0.69860579710972
  N   -1.28546355653300      2.08828017196982      1.25285338660210
