12
Coordinates from ORCA-job run
  C   1.03920059292419     -0.41962420959956      0.01326585209071
  C   -0.48566843200086     -0.39514559892109     -0.22896727730201
  Br  1.53498828007559     -1.96346282843595      1.09199833847852
  H   -0.76973546958056     -1.38480042216250     -0.61002119919732
  H   1.53661340000692     -0.54136113844750     -0.95144750717427
  C   1.49275336459162      0.81149799627946      0.64177148516869
  N   1.85106203503130      1.80458104160788      1.15702458942888
  N   -0.76178833862969      0.69380408535742     -1.15709589556038
  H   -1.59679413374875      1.20503224099844     -0.91187845340009
  H   -0.85068746691770      0.34590687253441     -2.10238071593805
  C   -1.19526800787107     -0.18859453652526      1.03648202823015
  N   -1.79567582388101      0.03116649731425      2.02124875517516
