12
Coordinates from ORCA-job run
  C   0.90210890773949     -0.53413824307712      0.22704538123692
  C   -0.46139947212238     -0.11197568094386     -0.34568287465371
  Br  0.98508267046097     -0.20374633437438      2.14758006587047
  H   -0.41246610136378     -0.31828113002970     -1.42163531367422
  H   1.04185584095260     -1.61106671874013      0.10833796947368
  C   1.97832815364691      0.17816968580676     -0.44766945399247
  N   2.85237049490356      0.71144186987473     -1.02290306326043
  N   -0.66239172489513      1.31020499315045     -0.17737184877918
  H   -1.43549698272684      1.62988452556259     -0.74682465655201
  H   -0.86362891221709      1.53060751225902      0.79045801855931
  C   -1.52317401529539     -0.96975243176734      0.22094953922410
  N   -2.40118885908292     -1.61134804772103      0.66571623654753
