12
Coordinates from ORCA-job run
  C   0.95305211983973     -0.02676988412847     -0.03952259718396
  C   -0.59172354919068     -0.21495392733661      0.01599461307777
  Br  1.75613662609558     -1.45943560509837     -1.09025154575543
  H   -0.78461668287368     -1.15935291660355      0.53594945307790
  H   1.19120145721705      0.90439050826722     -0.55987011273536
  C   1.54001083467422     -0.01904759126072      1.29185722562553
  N   1.98017048832177     -0.02056467731441      2.38161599497985
  N   -1.28089415280187     -0.24422496853532     -1.25159392724104
  H   -1.12290898787544      0.60655897978811     -1.77780346674092
  H   -0.97909012250594     -1.03758669354912     -1.80230735670540
  C   -1.13006058044410      0.88231866095123      0.83393557198140
  N   -1.53027745045663      1.79066811482002      1.46099614761966
