12
Coordinates from ORCA-job run
  C   1.03351441119532     -0.47403879561260      0.06210381891500
  C   -0.45841347712507     -0.42678040995138     -0.30850698958203
  Br  1.41470275945134     -1.97141711228216      1.24035368017222
  H   -0.69937696689238     -1.38456326840834     -0.77918383042587
  H   1.59553409615001     -0.63527700407131     -0.85899041378486
  C   1.44943289402277      0.77923338490468      0.67618586053925
  N   1.74021597779605      1.81712780342031      1.14408288101302
  N   -0.63367238416037      0.62851872362965     -1.29182807098950
  H   -0.61932009534522      1.53781799913665     -0.84255836368316
  H   -1.52589369140888      0.52727504159735     -1.76062227172419
  C   -1.29634782864686     -0.28530840671901      0.89808683458963
  N   -2.00137569503672     -0.11258795564383      1.82187686496048
