12
Coordinates from ORCA-job run
  C   0.94686279697341     -0.12140268251713     -0.02212383058547
  C   -0.60960667248327     -0.15486477200521      0.01251522769057
  Br  1.61823932986044     -1.66768972322995     -1.00273313645637
  H   -0.90177093096642     -1.05621054289516      0.56182132626270
  H   1.28324917374293      0.75991591876975     -0.57408003581821
  C   1.51311740053753     -0.11937702116007      1.31815743323530
  N   1.93430960371354     -0.12376516018487      2.41546716168709
  N   -1.27993705782464     -0.16342592161484     -1.26536927159265
  H   -1.04729598637242     -1.00057419941121     -1.78378580181941
  H   -1.03569444811124      0.65011263292704     -1.81676205353395
  C   -1.04972461936920      1.01800708714325      0.78258747774275
  N   -1.36974858970066      1.98027438417839      1.37430550318765
