12
Coordinates from ORCA-job run
  C   1.05344478394094     -0.42884264951023      0.04730012334130
  C   -0.45108029179687     -0.46008530257324     -0.26997693331709
  Br  1.53675902884506     -1.84854145734344      1.28334643400856
  H   -0.66804172089356     -1.44983271608504     -0.68242954382993
  H   1.58997182635086     -0.61423054766274     -0.88435326488844
  C   1.43835414588387      0.86875214227203      0.58454163399017
  N   1.70370463231723      1.93838540519359      0.99215022997689
  N   -0.70414360458957      0.53505010934074     -1.29797130113503
  H   -0.71088086340069      1.46653240177897     -0.89644265994471
  H   -1.60696767152750      0.37467195876246     -1.72791182042234
  C   -1.25186827866563     -0.28868202616475      0.95789662390082
  N   -1.93125198646414     -0.09117731800835      1.89585047831982
