12
Coordinates from ORCA-job run
  C   0.93843381780134     -0.36592688797820      0.36948284371185
  C   -0.44982026628691     -0.25074718891612     -0.28285325500461
  Br  0.98365552806129      0.56832793926388      2.08136984649116
  H   -0.38010002591391     -0.78832417517477     -1.23624935614100
  H   1.15958142588011     -1.41069872385635      0.59955056219218
  C   1.96151485261931      0.17089496806550     -0.51687519233811
  N   2.79416736513918      0.56067710248567     -1.24771026761263
  N   -0.75776987161424      1.13126018949714     -0.57629025230455
  H   -1.54684246947487      1.19376090713070     -1.20671951674089
  H   -0.98339921134971      1.63557467137467      0.27250404998130
  C   -1.44644072535300     -0.95665309414782      0.54950170839990
  N   -2.27298041950860     -1.48714570774428      1.19428882936539
