12
Coordinates from ORCA-job run
  C   0.94882877962378     -0.09351945902841     -0.03072407235274
  C   -0.60568214020036     -0.17519659358085      0.01019896844176
  Br  1.66097446803747     -1.58097691313207     -1.07099105339416
  H   -0.86779138511524     -1.10582243636348      0.52480486589664
  H   1.25434062168187      0.81761637289643     -0.55141824551800
  C   1.52355348016940     -0.12206512971423      1.30562047476187
  N   1.95386033580353     -0.15240772379904      2.39888854894650
  N   -1.28233497308407     -0.15372056981157     -1.26430054432087
  H   -1.06313826550970      0.68672362581467     -1.78498782878780
  H   -1.02999616950895     -0.96389813562583     -1.81512429240749
  C   -1.07557388924199      0.95394353596086      0.82667281912161
  N   -1.41804086265572      1.88732342638353      1.45136035961269
