12
Coordinates from ORCA-job run
  C   0.89927386161903     -0.54926064584966     -0.01598906945617
  C   -0.63341520163761     -0.38255486385915     -0.17836643220040
  Br  1.32937429078242     -2.02491103562809      1.17762948962771
  H   -1.02183233380524     -1.34453824210002     -0.52947377874149
  H   1.32161139623235     -0.81470631495759     -0.98842704779586
  C   1.50500310178063      0.68815683123797      0.45404704009176
  N   1.94871499326826      1.71906712447443      0.80244521878706
  N   -1.01470856161161      0.64431922801415     -1.12324322796004
  H   -0.66984379996155      0.43802619638934     -2.05193549451686
  H   -0.68807920333334      1.55830541107633     -0.83336872649245
  C   -1.24621298126361     -0.09617138944386      1.12500591831364
  N   -1.72988556206973      0.16226770064614      2.16267611034309
