12
Coordinates from ORCA-job run
  C   1.04113221928850     -0.15346294538280     -0.01266461834274
  C   -0.50088854244833     -0.22428368711649     -0.04775558216942
  Br  1.80951905826836     -1.75512263942472     -0.79981095069551
  H   -0.79980263378884     -1.13786595743713      0.47482245502096
  H   1.38211011696173      0.68571871800380     -0.62477004863794
  C   1.53449405935142     -0.00145243919198      1.34952897693077
  N   1.91066987112434      0.11890028049828      2.45606416037238
  N   -0.96637756366995     -0.29674136531617     -1.41754310838688
  H   -1.90377756473977     -0.67447424342197     -1.45402991045391
  H   -0.98067282510697      0.62274711311812     -1.84179902911065
  C   -1.03741876597275      0.93386218367364      0.69709881456656
  N   -1.48998742926773      1.88317498199741      1.22185884090637
