12
Coordinates from ORCA-job run
  C   0.94401471503805     -0.14570094861419     -0.00418261089957
  C   -0.61318932240297     -0.13737921690985      0.01692933518130
  Br  1.58477524210903     -1.76148099217071     -0.88788732079499
  H   -0.93321393321202     -0.99344417398391      0.62050022936322
  H   1.30826606363261      0.69419304920647     -0.60105980226081
  C   1.49647002598896     -0.08225602262957      1.34027150882692
  N   1.90441626376889     -0.03796477876149      2.44180622527088
  N   -1.27408711292169     -0.21078320725118     -1.26372211272941
  H   -1.05978968988977     -1.08516195124438     -1.72547345138464
  H   -1.00470790744975      0.55928396162007     -1.86387833379858
  C   -1.02747620906549      1.09457385320729      0.70480257136779
  N   -1.32547813559586      2.10512042753147      1.22289376185791
