12
Coordinates from ORCA-job run
  C   0.93587862492573     -0.40938852977565      0.38170705189242
  C   -0.44243301122773     -0.23657291865480     -0.29412599145493
  Br  0.86300046315056     -0.08620261227291      2.29294930207318
  H   -0.29454414197267     -0.55471929765261     -1.34030937224143
  H   1.28045750609396     -1.43829282854793      0.25404690617748
  C   1.88144206448793      0.50540052519146     -0.24495370329074
  N   2.59601115342610      1.25304073645397     -0.80275673048860
  N   -0.90908429107656      1.12982912932270     -0.15029711836172
  H   -0.41679041374866      1.73457837164696     -0.79722850540659
  H   -1.90048116299012      1.19461340527906     -0.34090067165135
  C   -1.40453999124376     -1.16877282382614      0.30093451807820
  N   -2.18891679982478     -1.92351315716411      0.73993431467408
