12
Coordinates from ORCA-job run
  C   1.02237357011686     -0.03212789353297     -0.01596632268885
  C   -0.51339260822931     -0.15424029084647     -0.03560564486997
  Br  1.81564167278990     -1.55715907892319     -0.94160955904006
  H   -0.78296628784878     -1.07489499284078      0.50379180632403
  H   1.30952850853527      0.85519185509291     -0.58360352634220
  C   1.54327164617970      0.02170274386805      1.34189543515213
  N   1.94070157532585      0.06435869429953      2.44680131927191
  N   -0.98034141891451     -0.08953434235259     -1.41284873379000
  H   -0.78192671721751     -0.96623249774336     -1.87945812154704
  H   -1.98168440244224      0.06008586077834     -1.43329884049021
  C   -1.06718578583139      0.98312452767549      0.71046827488075
  N   -1.52301975246385      1.89072541452502      1.29943391313952
