12
Coordinates from ORCA-job run
  C   1.05394876451794     -0.42993007369774      0.03878475820623
  C   -0.44962319685783     -0.45216598455712     -0.28430643457726
  Br  1.53444711173059     -1.88272021112673      1.23633288486423
  H   -0.66439872821556     -1.42779437002228     -0.73028620529982
  H   1.59274926807271     -0.58887927141927     -0.89655541408474
  C   1.43712954671253      0.85336901358695      0.61107712717956
  N   1.70119670094221      1.91319501215632      1.04412973493426
  N   -0.70013196352844      0.57562444122366     -1.28016362331135
  H   -1.60006633968989      0.42761026353074     -1.72013722102484
  H   -0.70928456228581      1.49383043760436     -0.84965315588118
  C   -1.25560339560930     -0.32225170030694      0.94498901147621
  N   -1.94036320578915     -0.15988755697194      1.88578853751871
