12
Coordinates from ORCA-job run
  C   0.91016320730866     -0.30272914851192      0.48018157586948
  C   -0.47515678499225     -0.29174014507742     -0.18787657277180
  Br  1.06723048882714      1.14042185456016      1.78348487845026
  H   -0.47015335723009     -1.12111990366305     -0.90555994622870
  H   1.04625640842131     -1.22617687304721      1.04758035576224
  C   1.95873591301389     -0.18160095982009     -0.52289551286385
  N   2.80928351903365     -0.12946184091667     -1.33108792601588
  N   -0.66897258993903      0.93392865691982     -0.93030799465731
  H   -0.83011527000324      1.71128124905461     -0.30152007841117
  H   -1.46436979959601      0.85217115121908     -1.55058161589330
  C   -1.51268139235911     -0.58883921885689      0.82208660785489
  N   -2.36922034248491     -0.79813482186043      1.59849622890514
