12
Coordinates from ORCA-job run
  C   0.91768997724627     -0.51617184944859     -0.03917010686671
  C   -0.62534723579929     -0.40912242307673     -0.14373159072077
  Br  1.44877543207886     -1.94483939108981      1.17058735124759
  H   -0.99136044176388     -1.39314390639988     -0.45569196467363
  H   1.31163778769766     -0.78966178542290     -1.02123330101750
  C   1.49476486899159      0.75402310478659      0.37668846805647
  N   1.91174942393667      1.80896389432428      0.68383010769398
  N   -1.08174210378065      0.57876162355794     -1.09667108141654
  H   -0.77436467841325      1.51065536716943     -0.84489103310372
  H   -0.76990478092901      0.35872715630050     -2.03391499978887
  C   -1.19561548311011     -0.11251628102881      1.17672317247674
  N   -1.64528276615485      0.15432449032797      2.22747497811295
