12
Coordinates from ORCA-job run
  C   0.83481055971750     -0.32710513921511      0.48888600071476
  C   -0.51700784911527     -0.32978957183428     -0.28284831937048
  Br  0.72645326678450      0.77547205528231      2.08973582751202
  H   -0.36056902169279     -0.98788208468040     -1.14741167548248
  H   1.08289766452079     -1.33582824121559      0.82844432139040
  C   1.88051766213979      0.18045982981182     -0.38745216691061
  N   2.67358321698063      0.59108644991711     -1.15129032267711
  N   -0.98793335314707      0.93996232927054     -0.77564108574741
  H   -0.34591645336322      1.32106410921967     -1.45965561043213
  H   -1.10646369582665      1.60281029843963     -0.01961647560169
  C   -1.53953568057835     -0.95815009740933      0.56412478857983
  N   -2.33983631641987     -1.47209993758637      1.25172471802492
