12
Coordinates from ORCA-job run
  C   1.01485695119745     -0.51677108409303     -0.02554195522666
  C   -0.50793175201608     -0.42556929464728     -0.22023883708903
  Br  1.47731065141225     -1.94631830975357      1.20747642877423
  H   -0.84030789313753     -1.40105116154948     -0.58738827874665
  H   1.45557354046230     -0.76745708795934     -0.99157063988679
  C   1.54955499361327      0.75418714766041      0.44260006760393
  N   1.93356159186486      1.80633131632557      0.79822406538513
  N   -0.76040046269051      0.56656202176246     -1.25159889175897
  H   -1.70617604907086      0.47543059766627     -1.60211607762657
  H   -0.65622993660828      1.50290857073389     -0.87604473788378
  C   -1.18849309179158     -0.16115279640509      1.06228607050746
  N   -1.77131854323529      0.11290008025919      2.04491278594771
