12
Coordinates from ORCA-job run
  C   1.00570493143028     -0.53110023735680     -0.00028620453688
  C   -0.51521087693060     -0.42613413937714     -0.20077583360795
  Br  1.44657121268842     -1.91352740266561      1.29274692028064
  H   -0.86212416512427     -1.41149851553565     -0.52567572639291
  H   1.44388833807195     -0.82857667246521     -0.95409929587219
  C   1.56025534611256      0.75067768458120      0.41220489409590
  N   1.97600294026633      1.80954793050915      0.70664634684681
  N   -0.75227563775189      0.52384086757349     -1.27464219314498
  H   -0.63443505389550      1.47420724232152     -0.94035321275637
  H   -1.69895658095312      0.43140276999360     -1.62239447357379
  C   -1.19286905961232     -0.09754165164905      1.06847396083068
  N   -1.77655139430184      0.21770212407050      2.03815481783104
