12
Coordinates from ORCA-job run
  C   0.91995769251372     -0.41697455708809      0.41035935012258
  C   -0.46135518480018     -0.24293416705453     -0.25848652740252
  Br  0.90758670944726      0.12069814151754      2.27430420500065
  H   -0.35379178435293     -0.68293966034439     -1.26473941951493
  H   1.20511960500547     -1.47150346483435      0.39428236969568
  C   1.89989578189324      0.36766251916554     -0.32980145752981
  N   2.64010193001355      1.01016155122011     -0.97787040266882
  N   -0.85060622651825      1.15488225500881     -0.26089677736944
  H   -1.83965404945035      1.25312459692305     -0.45004755813681
  H   -0.33486925271586      1.65777889503590     -0.97366634938833
  C   -1.45928736279000     -1.04742138148748      0.45271392467935
  N   -2.27409785824566     -1.70353472806210      0.98484864251242
