12
Coordinates from ORCA-job run
  C   0.91039192894218     -0.52931175607291     -0.02685179724529
  C   -0.63005053721743     -0.40106348755248     -0.14564566269835
  Br  1.41110010689831     -1.95311611565863      1.20153580278987
  H   -1.00765569645487     -1.38256239617562     -0.45172287954409
  H   1.30825239544559     -0.81891178308703     -1.00262883095563
  C   1.50205833995969      0.73647937015474      0.38170725891675
  N   1.93152480523374      1.78766092331770      0.68456235994605
  N   -1.06360193747232      0.58439666724720     -1.11173957897653
  H   -0.74720786666009      1.51437472769085     -0.86434928847322
  H   -0.74424212864150      0.35265302175333     -2.04363717971978
  C   -1.20752315023035     -0.08440797497788      1.16693388985292
  N   -1.66304625980294      0.19480880336072      2.21183590610730
