15

C	0.0	0.0	0.0
C	-0.570509	0.224623	-1.389506
Br	1.94797	0.0	0.0
H	-0.522004	-0.726381	-1.915251
H	-1.640088	0.463101	-1.191072
N	-0.359165	1.209324	0.932072
O	-0.196847	1.004786	2.132041
O	-0.77864	2.242062	0.43572
N	-0.552583	-1.18502	0.496952
H	-1.593953	-0.96719	0.406939
H	-0.29832	-1.272486	1.475131
N	0.055112	1.218893	-2.290946
O	0.726382	2.144206	-1.844317
O	-0.192293	1.054726	-3.489298
F	-2.7798	0.0	0.0
