15

C	0.0	0.0	0.0
C	-0.536416	-0.068539	-1.422236
Br	1.946303	0.0	0.0
H	-0.180405	0.769837	-2.009139
H	-1.635203	-0.087422	-1.264974
N	-0.307308	1.487838	0.485734
O	-0.326018	2.392202	-0.33964
O	-0.467297	1.62141	1.691069
N	-0.566575	-0.942858	0.829402
H	-1.611247	-0.77557	0.658202
H	-0.31747	-0.748351	1.791993
N	-0.086891	-1.296447	-2.117136
O	-0.590377	-2.369131	-1.791564
O	0.75177	-1.159956	-3.01598
F	-2.792994	0.0	0.0
