15

C	0.0	0.0	0.0
C	-0.54507	0.31539	-1.392012
Br	1.947249	0.0	0.0
H	-0.364196	-0.557769	-2.023731
H	-1.636867	0.410509	-1.203502
N	-0.408044	1.137695	0.959169
O	-0.399819	0.890187	2.153999
O	-0.65615	2.222162	0.448149
N	-0.5533	-1.186419	0.518101
H	-0.293293	-1.960749	-0.083165
H	-1.594543	-0.972777	0.429576
N	-0.074449	1.473875	-2.206259
O	-0.715555	1.641142	-3.245263
O	0.888127	2.155661	-1.871707
F	-2.771497	0.0	0.0
