15

C	0.0	0.0	0.0
C	-0.511824	0.036822	-1.442521
Br	1.948396	0.0	0.0
H	-0.195254	0.925022	-1.975587
H	-1.615928	-0.024695	-1.275348
N	-0.375782	1.387093	0.598623
O	-0.661206	1.43131	1.782048
O	-0.304738	2.35106	-0.157595
N	-0.525065	-0.977744	0.854469
H	-0.327402	-1.878996	0.434317
H	-1.561259	-0.780457	0.7473
N	-0.035008	-1.117334	-2.231748
O	0.407207	-0.884521	-3.359219
O	-0.129602	-2.249941	-1.754465
F	-2.743299	0.0	0.0
