13
Coordinates from ORCA-job run
  C   0.75987760755012     -0.01426919836804     -0.46140374636837
  C   -0.46862838415027      0.06291921809447      0.47957879510606
  Cl  0.68291087558854     -1.50504776779887     -1.43608007347662
  H   -0.43529179744861      1.01334638403586      1.02640755156054
  C   1.94774056675208     -0.06610613054901      0.39843023204700
  N   2.87972569972049     -0.09077216432241      1.11497212803512
  C   0.86307991876230      1.15870692673178     -1.33363598725726
  N   1.02052482768973      2.09252838682184     -2.02970795915894
  C   -0.47697855214670     -1.05174262087611      1.41662710267537
  N   -0.44967930610147     -1.94547048348391      2.17863140391184
  N   -1.79153322062231      0.09377216715067     -0.28207968325528
  O   -1.75592877979085      0.48477974041364     -1.43889143426808
  O   -2.77481945580304     -0.23164445784989      0.36615167044861
