16

C	0.0	0.0	0.0
C	-0.635846	0.006039	-1.386681
Br	1.957022	0.0	0.0
H	-1.805442	0.012616	-1.002182
C	-0.400799	1.280558	0.73209
H	-0.0396	1.237161	1.762625
H	-1.495848	1.304837	0.730444
H	0.005369	2.17369	0.252628
N	-0.473334	-1.209056	0.623085
H	-0.185065	-1.209379	1.597394
H	-1.503116	-1.104058	0.598793
C	-0.34811	-1.191048	-2.158466
N	-0.130685	-2.138172	-2.821836
C	-0.351997	1.201848	-2.156387
N	-0.15382	2.190702	-2.764967
H	-2.882027	0.0	0.0
