15

C	0.0	0.0	0.0
C	-0.473473	0.496569	-1.369542
Br	1.969952	0.0	0.0
H	-1.543879	0.271119	-1.400728
H	0.029729	-0.097508	-2.137084
N	-0.532374	0.811128	1.049484
H	-1.552343	0.807286	0.898598
H	-0.359356	0.369372	1.946158
C	-0.305154	-1.442044	0.125688
N	-0.497473	-2.597321	0.228931
C	-0.251725	1.986832	-1.585555
H	0.795279	2.265861	-1.450835
H	-0.855656	2.565853	-0.888785
H	-0.554485	2.254395	-2.601473
Cl	-3.585031	0.0	0.0
