15

C	0.0	0.0	0.0
C	-0.453474	0.46939	-1.387337
Br	1.97049	0.0	0.0
H	-1.520784	0.239884	-1.442271
H	0.072721	-0.135265	-2.13119
N	-0.504928	0.847328	1.033689
H	-1.525687	0.856102	0.900311
H	-0.325005	0.424229	1.938433
C	-0.317865	-1.434538	0.161799
N	-0.515885	-2.585447	0.291595
C	-0.226633	1.95546	-1.628994
H	-0.853198	2.547954	-0.964742
H	0.816833	2.237507	-1.469804
H	-0.495761	2.199472	-2.660696
Cl	-3.523031	0.0	0.0
