17
Coordinates from ORCA-job run
  C   0.80821538363331      0.34460516552569     -0.04756449436494
  C   -0.30170696657068     -0.70799775614991      0.03346974754450
  Br  2.26804115130608     -0.35631293422055      1.36150463011726
  H   0.11531717903905     -1.66588209275601     -0.27776605167315
  N   0.39008108133302      1.63354931450222      0.27873266197167
  H   1.15794155910089      2.29160424853866      0.30832208004858
  H   -0.11882123609347      1.64559195703442      1.15314903744226
  N   1.38927010236638      0.28995882161593     -1.33303809459766
  H   1.96630997228789      1.10012733225866     -1.51997381882725
  H   1.94369813650128     -0.54720271371940     -1.45299355386553
  C   -1.51142691316424     -0.32464869242953     -0.80646086882380
  H   -1.97041197729883      0.58572678608058     -0.42356105973721
  H   -1.18703085780080     -0.15206676154516     -1.83169546093631
  H   -2.24294534875231     -1.13572117425870     -0.78937713893002
  N   -0.76606309282582     -0.94124591824971      1.43735211288989
  O   -0.82032519463030     -2.10304098200955      1.82384276666411
  O   -1.12214297843145      0.04395539978235      2.08505750507759
