17
Coordinates from ORCA-job run
  C   0.66669025561780      0.52468932135669      0.06350382078771
  C   -0.51477816812974     -0.44477095738781     -0.12498523900614
  Br  0.49436356133171      1.56698135892752      1.72308478750183
  H   -0.42011874554062     -0.82672389271782     -1.14683541937595
  N   0.55286892373581      1.49957406508592     -1.01416102766843
  H   0.89576171076485      1.07161915263082     -1.86966989798511
  H   1.12248268249973      2.31336128229621     -0.81479617117782
  N   1.87837332220263     -0.23373310659658      0.18816043156171
  H   1.96080994836880     -0.93106311347608     -0.54356814960866
  H   2.69146833737403      0.36820955691290      0.20072733260100
  C   -1.88967760383224      0.14196496671305      0.09761913953756
  H   -2.65252618579879     -0.56982691373028     -0.22545946375174
  H   -1.97952349040724      1.05714497071715     -0.48641374934931
  H   -2.04285853045498      0.36517939254491      1.15109283727119
  N   -0.30974001613096     -1.66257836719737      0.72614910014988
  O   -0.67361272210362     -1.61029698118812      1.89570890848480
  O   0.22001672050283     -2.63073073489108      0.17984276002749
