17
Coordinates from ORCA-job run
  C   0.78313117117669      0.35897271824648     -0.26862834398445
  C   -0.36757026069399     -0.65391508107651     -0.24707278839088
  Br  1.16677676536909      0.57186512841819     -2.28239306073761
  H   -0.10270347359254     -1.46796454486275     -0.91976348770504
  N   1.98296669235851     -0.23820348277299      0.25054048040401
  H   2.80670532587160      0.21728687974874     -0.11875107897377
  H   1.96293278191258     -0.15948465438419      1.26157495425018
  N   0.44275853823015      1.58996555377856      0.32055530897505
  H   1.23166696338022      2.22306468123964      0.34178511148877
  H   -0.34875427770509      2.04390585676349     -0.11579382652056
  C   -1.74129704878029     -0.09020362033759     -0.56764324860063
  H   -1.71948761627353      0.42604608975352     -1.52835961644852
  H   -2.06393810143058      0.60057921480374      0.21452871825245
  H   -2.46481037319305     -0.90329855052758     -0.62895431866164
  N   -0.47425490361094     -1.33220482382475      1.09989328074766
  O   -0.04694599385083     -0.76770388560940      2.10321011870673
  O   -1.04617618916801     -2.41870747935660      1.08527179719824
