15

C	0.0	0.0	0.0
C	-0.480986	-0.044302	-1.452906
Br	1.967271	0.0	0.0
H	-0.141259	-0.967147	-1.930344
H	-1.580731	-0.05838	-1.410781
N	-0.476128	1.221978	0.589787
H	-1.497099	1.196275	0.495351
H	-0.264413	1.219895	1.582358
C	-0.428556	-1.273209	0.723141
H	-0.023129	-2.167353	0.242519
H	-0.075002	-1.246851	1.757243
H	-1.521953	-1.302312	0.715029
C	-0.037698	1.092502	-2.254539
N	0.292075	1.980544	-2.947551
Cl	-3.665194	0.0	0.0
