15

C	0.0	0.0	0.0
C	-0.466017	0.160564	-1.459607
Br	1.972334	0.0	0.0
H	-0.086826	-0.652391	-2.084902
H	-1.564219	0.105791	-1.421317
N	-0.465557	1.033851	0.881303
H	-0.264616	1.946854	0.485967
H	-1.483819	0.927585	0.926361
C	-0.449974	-1.35059	0.531323
H	-0.085041	-1.473928	1.55151
H	-0.064813	-2.161223	-0.091057
H	-1.543673	-1.368798	0.527473
C	-0.069467	1.437945	-2.040941
N	0.235113	2.469266	-2.51239
Cl	-3.665868	0.0	0.0
