15

C	0.0	0.0	0.0
C	-0.193131	-0.132893	-1.550687
Br	1.975181	0.0	0.0
H	0.320377	0.723626	-2.000915
H	0.360817	-1.018238	-1.877841
N	-0.526798	1.179298	0.595508
H	-1.540408	1.029234	0.678302
H	-0.383112	1.978207	-0.012497
C	-0.476908	-1.22451	0.750644
H	-1.56631	-1.261851	0.657532
H	-0.206828	-1.130405	1.804079
H	-0.030978	-2.133121	0.342403
C	-1.496881	-0.208606	-2.222882
N	-2.308287	-0.291359	-3.069597
Cl	-3.633767	0.0	0.0
