15

C	0.0	0.0	0.0
C	-0.463394	0.166104	-1.460491
Br	1.972026	0.0	0.0
H	-0.081059	-0.644013	-2.087695
H	-1.561347	0.110051	-1.427442
N	-0.467804	1.030715	0.88453
H	-1.485418	0.918752	0.930373
H	-0.272473	1.943978	0.487237
C	-0.450788	-1.353052	0.523932
H	-1.544025	-1.374902	0.509444
H	-0.096917	-1.475819	1.548297
H	-0.055805	-2.162521	-0.093851
C	-0.067783	1.447336	-2.034992
N	0.227763	2.488771	-2.489961
Cl	-3.669837	0.0	0.0
