15

C	0.0	0.0	0.0
C	-0.474055	0.113073	-1.461156
Br	1.971336	0.0	0.0
H	-0.166184	1.079226	-1.871967
H	-1.572468	0.088274	-1.413348
N	-0.4752	1.088701	0.812789
H	-1.491613	0.973363	0.871374
H	-0.289405	1.970146	0.345228
C	-0.442592	-1.314783	0.616952
H	-0.049358	-2.164815	0.056368
H	-0.083922	-1.36506	1.646515
H	-1.535543	-1.341178	0.60838
C	0.003358	-0.948012	-2.342325
N	0.37549	-1.803608	-3.055127
Cl	-3.672747	0.0	0.0
