18

C	0.0	0.0	0.0
C	-0.250827	0.042808	-1.548808
Br	2.023072	0.0	0.0
H	0.315148	-0.795548	-1.94955
N	-0.323576	1.134534	0.82486
H	0.021558	0.903314	1.75191
H	0.159762	1.945868	0.464921
N	-0.677267	-1.19913	0.484851
O	-0.670396	-1.353008	1.738889
O	-0.676689	-2.180465	-0.329159
N	0.337506	1.254215	-2.206794
O	0.07212	2.36719	-1.749681
O	0.958523	1.067275	-3.25232
C	-1.6778	-0.0243	-2.100005
H	-1.629378	-0.039225	-3.201995
H	-2.126795	-0.952732	-1.751752
H	-2.261727	0.838179	-1.780006
H	-1.847908	0.0	0.0
