18

C	0.0	0.0	0.0
C	-0.597887	-0.188035	-1.399289
Br	1.924621	0.0	0.0
H	-1.677014	-0.3417	-1.17272
N	-0.632805	1.099125	0.558291
H	-1.686479	0.84495	0.446904
H	-0.417437	1.144778	1.549424
N	-0.285599	-1.308323	0.850296
O	-0.301411	-2.384287	0.268388
O	-0.42728	-1.140847	2.055164
N	-0.143456	-1.375002	-2.187991
O	1.024898	-1.403174	-2.578818
O	-0.998256	-2.203211	-2.494554
C	-0.389777	1.037344	-2.269718
H	-0.826288	0.856848	-3.256223
H	0.673126	1.257558	-2.388367
H	-0.890055	1.886456	-1.808247
H	-2.947467	0.0	0.0
