19

C	-0.406586	0.015284	-1.502385
C	0.0	0.0	0.0
F	-0.381597	-1.33096	-1.886926
H	1.092297	0.0	0.0
C	-1.815032	0.517161	-1.752198
H	-2.045228	0.349569	-2.804788
H	-2.533076	-0.025013	-1.133128
H	-1.897434	1.584326	-1.538901
N	0.534605	0.688521	-2.351832
H	1.465912	0.34494	-2.113757
H	0.543084	1.667107	-2.087557
C	-0.536659	-1.158103	0.806971
H	-0.236559	-1.052209	1.850009
H	-1.625415	-1.229947	0.764738
H	-0.098086	-2.073516	0.412062
N	-0.425491	1.306379	0.582771
O	0.041181	2.330165	0.079356
O	-1.247388	1.30933	1.50248
Br	3.502729	0.0	0.0
