19

C	-0.402733	-0.042571	-1.503032
C	0.0	0.0	0.0
F	-0.368042	-1.402592	-1.836573
H	1.092496	0.0	0.0
C	-1.814118	0.439251	-1.776209
H	-2.528324	-0.09209	-1.145827
H	-1.908865	1.510077	-1.595476
H	-2.038009	0.23867	-2.823581
N	0.538615	0.605046	-2.37215
H	1.471207	0.285854	-2.110955
H	0.531688	1.593887	-2.153566
C	-0.536063	-1.127675	0.849585
H	-0.235892	-0.982848	1.88753
H	-1.62451	-1.201445	0.81023
H	-0.097229	-2.056595	0.489139
N	-0.427859	1.326993	0.532029
O	0.02852	2.332623	-0.015999
O	-1.241785	1.363007	1.45629
Br	3.50767	0.0	0.0
