19

C	-0.331378	-0.037853	-1.497304
C	0.0	0.0	0.0
F	-1.689698	-0.349492	-1.682121
H	1.09174	0.0	0.0
C	-0.101197	1.286039	-2.202331
H	-0.786242	2.056272	-1.844339
H	0.926875	1.612449	-2.038802
H	-0.275222	1.140544	-3.272418
N	0.434856	-1.134456	-2.032473
H	0.446922	-1.073696	-3.043977
H	1.397489	-1.063852	-1.70228
C	-0.549687	-1.186387	0.760095
H	-0.254163	-1.122371	1.809306
H	-1.634918	-1.227388	0.691791
H	-0.123246	-2.092043	0.330872
N	-0.487234	1.276002	0.592478
O	0.258064	2.253888	0.547355
O	-1.629021	1.291869	1.062425
Br	3.514516	0.0	0.0
