19

C	-0.482245	-0.041245	-1.465087
C	0.0	0.0	0.0
F	-0.192958	1.227254	-1.977055
H	1.090665	0.0	0.0
C	0.334941	-1.04624	-2.249126
H	0.116124	-2.070032	-1.934079
H	1.398181	-0.851622	-2.093874
H	0.079328	-0.939013	-3.304886
N	-1.890884	-0.244321	-1.679386
H	-2.416188	0.280658	-0.988543
H	-2.117532	-1.225208	-1.583912
C	-0.484001	-1.171826	0.834087
H	-0.060166	-2.095087	0.434935
H	-0.116353	-1.065343	1.85695
H	-1.572086	-1.239573	0.853578
N	-0.494003	1.266103	0.612207
O	-1.71587	1.34504	0.809004
O	0.305299	2.153677	0.875263
Br	3.581301	0.0	0.0
