19

C	-0.374693	-0.032784	-1.485813
C	0.0	0.0	0.0
F	0.114609	-1.291052	-1.938736
H	1.091917	0.0	0.0
C	-1.854286	-0.041738	-1.812608
H	-2.350842	0.828228	-1.386301
H	-1.980069	-0.034933	-2.899812
H	-2.318187	-0.949687	-1.423599
N	0.306665	1.038576	-2.112062
H	0.260832	0.94175	-3.118532
H	1.281798	1.043273	-1.819678
C	-0.551845	-1.12136	0.845618
H	-1.641101	-1.099687	0.898424
H	-0.14927	-1.03504	1.857655
H	-0.213667	-2.070637	0.428061
N	-0.427656	1.327288	0.556622
O	0.422533	2.20316	0.668955
O	-1.616657	1.462407	0.86712
Br	3.600641	0.0	0.0
