19

C	-0.476958	-0.054243	-1.467099
C	0.0	0.0	0.0
F	-0.223141	1.222802	-1.979121
H	1.09066	0.0	0.0
C	0.373041	-1.033272	-2.248819
H	1.428992	-0.798193	-2.09903
H	0.109461	-0.943194	-3.30433
H	0.196492	-2.063195	-1.925134
N	-1.878471	-0.298613	-1.684613
H	-2.076164	-1.286997	-1.592608
H	-2.421177	0.210235	-0.995809
C	-0.480072	-1.169522	0.840172
H	-1.5681	-1.240624	0.860698
H	-0.112102	-1.057644	1.862413
H	-0.053806	-2.09349	0.444676
N	-0.505794	1.265328	0.602601
O	-1.731069	1.337651	0.782605
O	0.286281	2.157795	0.873641
Br	3.580733	0.0	0.0
