13
Coordinates from ORCA-job run
  C   -0.38520284449030     -0.30555869236228      0.09383059565116
  C   0.82555992580512     -0.08716547943102     -0.79850130955253
  Br  -0.65411110255662     -2.13313789759944      0.54459187092268
  H   0.71685554510338     -0.69145308366029     -1.70027714006959
  H   0.85442491541529      0.96514500368901     -1.09115719675662
  N   -0.23894809634442      0.58852374814405      1.33502170981675
  O   -0.15488531398609      1.77589871258738      1.04283311881473
  O   -0.20069600635988      0.08157939229430      2.44023908659420
  N   -1.65092779058663      0.20910908687457     -0.59137407170704
  O   -1.59959852137993      0.33438943196247     -1.80734768953434
  O   -2.60279384544471      0.41867154940813      0.14407916771755
  C   2.05109827768288     -0.44108877987503     -0.09004270776177
  N   3.04022485714191     -0.71491299203187      0.47910456586481
