13
Coordinates from ORCA-job run
  C   -0.48683473299181     -0.38849394160354      0.18416297279468
  C   0.87146788865537     -0.73401391149451     -0.40837820930242
  Br  -1.45264180269691     -1.97376991912941      0.62821304622532
  H   0.71704541310318     -1.28322722329624     -1.33896608799591
  H   1.38149372373379     -1.39037545251358      0.30227683148221
  N   -0.24891040886214      0.48160854383816      1.42627508413908
  O   -0.31116317486999      1.68920368907787      1.24222879657484
  O   0.07847913200423     -0.11093889043246      2.44096487722951
  N   -1.34297622862817      0.43885040029700     -0.76989408666136
  O   -2.41888874684339      0.81151754184355     -0.33181499191419
  O   -0.87431376519355      0.63782435639027     -1.88418493138858
  C   1.69446687109731      0.44729226239878     -0.65688731764937
  N   2.39177583149210      1.37452254462411     -0.83399598353380
