13
Coordinates from ORCA-job run
  C   -0.49276404520728     -0.38324994225835      0.17668005451819
  C   0.87411164355713     -0.74348846780305     -0.38673704943653
  Br  -1.48573898054826     -1.95875570526860      0.59577311499924
  H   1.36020039361135     -1.40664324603001      0.33443304337617
  H   0.73444450440990     -1.29016268261683     -1.32114732701410
  N   -0.27217893463041      0.48274028981849      1.42480966573543
  O   -0.30648624391505      1.69103843343012      1.23774290748962
  O   0.01657299115283     -0.11422547927552      2.44858403529813
  N   -1.31971430909903      0.45373928385712     -0.79434342059977
  O   -2.39571149291690      0.84654739083196     -0.37439980256395
  O   -0.83190276375738      0.63750448972664     -1.90289151859211
  C   1.71467934462861      0.42872102791221     -0.61904149868425
  N   2.40548789271450      1.35623460767583     -0.81846220452607
