13
Coordinates from ORCA-job run
  C   -0.43731010127037     -0.37361684249977      0.30065344530074
  C   0.85736015790739     -0.75407546984603     -0.40269911755712
  Br  -1.35413618835009     -1.93156461281536      0.91426391300188
  H   0.60329604983282     -1.46982067522559     -1.18959982968529
  H   1.51426746794447     -1.24713787130565      0.31622445638830
  N   -0.20137615011162      0.54035730775320      1.49910031478195
  O   -1.20392034865411      0.94913682645236      2.06143302113943
  O   0.96786776153833      0.76402220955888      1.78808246602112
  N   -1.29555646969790      0.41969667200765     -0.69441985122992
  O   -1.90828477226588     -0.23846581238719     -1.51866667205850
  O   -1.19250586522458      1.63644958084363     -0.62313153562304
  C   1.53974766882669      0.39719514624620     -0.98886909300012
  N   2.10955078952485      1.30682354121767     -1.46337151747943
