13
Coordinates from ORCA-job run
  C   -0.32521747103522     -0.30253133497960      0.21254259076584
  C   1.12470951034165      0.05141046715141     -0.08284416194456
  Br  -0.66090386027489     -2.17008956292325      0.20980815397454
  H   1.20518722772113      1.13879402480866     -0.14682823009314
  H   1.72885800003778     -0.29509510801219      0.76208211218883
  N   -0.67390146194516      0.34907385748754      1.56386753137114
  O   -0.93240659971202     -0.35710863892926      2.52083766200520
  O   -0.61462561106636      1.57297718956173      1.52367691487772
  N   -1.28365453779281      0.38074413066296     -0.76657847547390
  O   -0.77764107014127      0.96176401183726     -1.71671552897414
  O   -2.46889968680437      0.28623948485418     -0.48823038818188
  C   1.61972154131154     -0.56074766828115     -1.30983802152930
  N   2.05777401936000     -1.05443085323829     -2.27978015898635
