13
Coordinates from ORCA-job run
  C   -0.31969623286051     -0.30454958248749      0.21910409194889
  C   1.12316351609926      0.05136599514337     -0.10661481721968
  Br  -0.65345511960706     -2.17239726794233      0.21971192707239
  H   1.74454959877912     -0.29394519323729      0.72625944079377
  H   1.20157554680542      1.13876693325465     -0.17285209236101
  N   -0.63995447376320      0.34421336528927      1.57903206121003
  O   -0.88250754866784     -0.36372079579294      2.53883854457778
  O   -0.57781108511642      1.56802405111254      1.54095218613110
  N   -1.30009064403848      0.37992682626084     -0.73719528037742
  O   -2.47874822692443      0.28420077849425     -0.43276101103568
  O   -0.81553791880967      0.96326012400798     -1.69701225610115
  C   1.59346869294317     -0.55948885182889     -1.34388729630028
  N   2.00604389516066     -1.03565638227395     -2.33357549833874
