13
Coordinates from ORCA-job run
  C   -0.38942787420956     -0.29138977931628      0.12175665984558
  C   0.83395843760265     -0.18296757754511     -0.77348577185591
  Br  -0.68211200648457     -2.05512086368834      0.76857872533156
  H   0.73191360650324     -0.88359943255800     -1.60342281273476
  H   0.87463469293406      0.82969572008054     -1.18167972391122
  N   -0.24900333597741      0.73354645787116      1.25802338706764
  O   -0.22726199752314      0.35184121085425      2.41294738994471
  O   -0.15080765972318      1.88068847988493      0.83735295976769
  N   -1.64181325892721      0.15530950949750     -0.63317275869807
  O   -1.57594027743599      0.13822964773584     -1.85470928294412
  O   -2.59847390983068      0.45938896782071      0.06173195059166
  C   2.04752668267258     -0.46214564483899     -0.01309923390804
  N   3.02680690039921     -0.67347669579821      0.59817851150327
