13
Coordinates from ORCA-job run
  C   -0.23892124999887     -0.21374923759195      0.38137703644910
  C   1.12336117867179      0.01967403097905     -0.25037148953289
  Br  -0.42587307669867     -1.95477340440619      1.12205920182718
  H   1.89719492491239     -0.15277578831120      0.49906821939564
  H   1.18178586615159      1.06258195897627     -0.57079138013765
  N   -0.49155920341046      0.80668506752600      1.49203180073734
  O   -1.65927424370482      0.96097317939541      1.81323074678795
  O   0.49678866734997      1.34723667869814      1.96927044397831
  N   -1.31868525898470      0.09578983145947     -0.66738299987272
  O   -1.24865212306334      1.24834718864576     -1.07829023125975
  O   -2.09821867427129     -0.77578054373248     -1.00301266382292
  C   1.31388899791246     -0.86693814219027     -1.39333603801294
  N   1.46816419513396     -1.57727081944801     -2.31485264653665
