13
Coordinates from ORCA-job run
  C   -0.48076502082762     -0.39824462411373      0.17871449688861
  C   0.86123683416255     -0.71019198800870     -0.46732692698308
  Br  -1.42953107146603     -2.00740138910736      0.57210214460561
  H   1.39189195225830     -1.39799787768529      0.19700329605551
  H   0.68194318761438     -1.21515271850754     -1.41830838602210
  N   -0.21029050380424      0.41161855575890      1.45419412228909
  O   -0.27981414869344      1.62645295600654      1.33042131745817
  O   0.14687131725257     -0.22756802692544      2.42973638958585
  N   -1.36550976222368      0.47037761751216     -0.70994828507108
  O   -0.92831721455603      0.72517762084417     -1.82559684241182
  O   -2.42996730876452      0.81698391416649     -0.22484131754874
  C   1.67502099340211      0.48399996083955     -0.68195928002527
  N   2.36523074564564      1.42094599922026     -0.83419072882075
