13
Coordinates from ORCA-job run
  C   -0.42799854903508     -0.38118281210187      0.30516616022886
  C   0.85348247495634     -0.74147034099185     -0.43192233334140
  Br  -1.32627909358048     -1.95534901199050      0.90445068556218
  H   0.58704482008911     -1.44125994935555     -1.22902251626411
  H   1.52567867395344     -1.24766448293414      0.26344000755969
  N   -0.17090361611379      0.50999886643074      1.51621345510561
  O   -1.16276233433954      0.89585080527866      2.11271891747945
  O   1.00303341068623      0.74112915059319      1.77932595282941
  N   -1.30971480697609      0.42884732049267     -0.65531721537620
  O   -1.21439732637150      1.64440934496385     -0.55714251341684
  O   -1.93260868051857     -0.21445209268079     -1.48369604035469
  C   1.51842087805595      0.42418630509216     -1.00946724393553
  N   2.05600414919398      1.33695689720343     -1.51474731607642
