13
Coordinates from ORCA-job run
  C   -0.27472834069781     -0.28151472880750      0.30953525564569
  C   1.14198367555687      0.02518567191392     -0.14671257215269
  Br  -0.56092262871440     -2.12977829427341      0.65097191743180
  H   1.84478839352036     -0.33593617707384      0.60555191341082
  H   1.25233192248268      1.10926112258085     -0.22739933314973
  N   -0.60336290888483      0.49690774356255      1.58381830042388
  O   -1.79141263319156      0.61706608034142      1.83856266912808
  O   0.34940688893364      0.89784655344545      2.23831442821133
  N   -1.25167097243939      0.27923557297448     -0.73580073384195
  O   -2.01568404660460     -0.47368194554933     -1.30975167013083
  O   -1.12348795069914      1.48876119475536     -0.88747411996896
  C   1.40853452955305     -0.60025735021156     -1.43780291211755
  N   1.62422407118512     -1.09309544365837     -2.48081314288990
