13
Coordinates from ORCA-job run
  C   -0.30736327026458     -0.27146194511757      0.27099402425585
  C   1.11418775823792      0.03508838682225     -0.17640160575667
  Br  -0.63672390827186     -2.12277621043732      0.52373601303389
  H   1.18501789312360      1.10528632858847     -0.38223930359787
  H   1.78213749990925     -0.20596890835426      0.65704369495153
  N   -0.55188500199688      0.54344673545296      1.55548569116950
  O   -0.73094731518973     -0.03903494474299      2.60897174208211
  O   -0.50285533348559      1.75275695845835      1.36006529309859
  N   -1.34081944660179      0.29305586680935     -0.70757226886542
  O   -0.91042590183627      0.75450863990482     -1.75549368107110
  O   -2.50080300470249      0.23904970144575     -0.33020110411982
  C   1.51717062373182     -0.73047369088580     -1.34952480803316
  N   1.88230940734659     -1.35247691794400     -2.27486368714743
