13
Coordinates from ORCA-job run
  C   -0.39217728434594     -0.29292180164450      0.10498312698802
  C   0.83079270613644     -0.14436801430806     -0.78476443378420
  Br  -0.70527367537280     -2.08903495034191      0.64338150274037
  H   0.88432130524355      0.89140808885381     -1.12850357456817
  H   0.71776804080027     -0.78979622813179     -1.65705918827520
  N   -0.23844445690346      0.65915784036063      1.30169401435810
  O   -0.12658193217841      1.82845088200721      0.95170280015518
  O   -0.22231552123708      0.20738320631525      2.43110648105885
  N   -1.64036558798537      0.21459467126302     -0.61828719226150
  O   -1.57528922109069      0.27633032877838     -1.83843770260404
  O   -2.59349659303934      0.48265969755754      0.09610150100994
  C   2.04214479522198     -0.48824658771662     -0.04740049125387
  N   3.01991742475085     -0.75461713299298      0.54448315643650
