13
Coordinates from ORCA-job run
  C   -0.35545362304261      0.32045784186017     -0.14756393364660
  C   0.79023734007678     -0.55445377793938     -0.62845615460877
  Br  -0.46268178903493      1.97822849800062     -1.07178829721048
  H   0.68505332103413     -0.72196845317331     -1.70136230439196
  H   0.72368726749031     -1.52027783638573     -0.12188680587974
  N   -1.68869326642340     -0.40927104228403     -0.31697003166687
  O   -2.61676346051919      0.02332537411294      0.34801640475341
  O   -1.70562831878963     -1.33318322093516     -1.11878157436973
  N   -0.21871693755750      0.50467439355438      1.37218395760760
  O   -0.08960430384827      1.62313048568181      1.83294381150458
  O   -0.24045699409732     -0.56403039875087      1.97189231933419
  C   2.07223202937130      0.07659345357489     -0.33247794507282
  N   3.10578873534035      0.57577468268369     -0.08774944635280
