13
Coordinates from ORCA-job run
  C   -0.34688480930040     -0.29735199147179      0.18005999360427
  C   1.11796225592081     -0.05544223395993     -0.15213178618714
  Br  -0.90329580038033     -2.08662692261628     -0.12021138401901
  H   1.32214918445697      1.01164100209037     -0.03970673572456
  H   1.71862662143296     -0.60386803615768      0.58103097209726
  N   -0.55093924592329      0.13752129625700      1.64359443550518
  O   -0.30118458023880      1.32542091610194      1.81732889995553
  O   -0.90136874747045     -0.68238245659692      2.47163744769700
  N   -1.26530219872268      0.64820674656904     -0.59847434788044
  O   -2.43088722933565      0.66053274487066     -0.23486870297930
  O   -0.74929614207745      1.30048294087500     -1.49546792018017
  C   1.47954597623324     -0.49612586583626     -1.49373186854155
  N   1.81187471540509     -0.86100814012515     -2.55805900334706
