13
Coordinates from ORCA-job run
  C   -0.26661283706219     -0.28025622757647      0.31790473270353
  C   1.13827278867487      0.02756083953579     -0.17315961726823
  Br  -0.53852977392049     -2.12698325237198      0.67920941884769
  H   1.24366354836621      1.11140708211493     -0.26285523807716
  H   1.85952446333156     -0.32722343712182      0.56453195192681
  N   -0.56807981208850      0.50630641232130      1.59398895358665
  O   -1.75019391360090      0.62473011062888      1.87564662307791
  O   0.39845969424135      0.91523838301141      2.22280568686591
  N   -1.26910256772765      0.26952130450289     -0.70857682022997
  O   -1.14842056888585      1.47826570534918     -0.87218172245150
  O   -2.04344854022288     -0.49008468021428     -1.25941529444443
  C   1.37583070666796     -0.60489271795011     -1.46651239211693
  N   1.56763681222650     -1.10358952222973     -2.51138628242029
