13
Coordinates from ORCA-job run
  C   -0.29499061681483     -0.28218627071300      0.28960894703669
  C   1.12284811544710     -0.11189967872275     -0.23015033737852
  Br  -0.83092550388132     -2.10282710127141      0.40173584193499
  H   1.80689918174205     -0.67054501764624      0.41031109309896
  H   1.38723415811886      0.94681505834202     -0.17445252310622
  N   -0.43092254923596      0.34294122710955      1.67824979197532
  O   0.60697924979997      0.50996854984629      2.30416813664049
  O   -1.57131583954110      0.58881007813072      2.03858510842441
  N   -1.23697655669596      0.55225663525868     -0.59285363901316
  O   -0.94083063471278      1.74162275497226     -0.59041746749768
  O   -2.13474881851015      0.00206181411366     -1.20212717808673
  C   1.21859686644943     -0.57752724790544     -1.60990289680125
  N   1.29815294783468     -0.94149080151436     -2.72275487722731
