13
Coordinates from ORCA-job run
  C   -0.24523584901679     -0.23469957442414      0.36645040001856
  C   1.12622364466813      0.02140126361274     -0.23597020009970
  Br  -0.45857002785870     -2.01511390938967      0.99787271436438
  H   1.19961685423457      1.08152620140523     -0.49008159886989
  H   1.89033728953332     -0.20634514278406      0.50869241258385
  N   -0.50053391644476      0.72040478375691      1.53300466372893
  O   0.48640641046319      1.23000080923096      2.04593679536906
  O   -1.66940242030307      0.85768962368886      1.85777448904243
  N   -1.30943304490366      0.14947350790422     -0.67354508275191
  O   -2.09073609500703     -0.69302415837988     -1.07325333047738
  O   -1.22548210008775      1.32506268723879     -1.01014471465612
  C   1.31900329443914     -0.79358388593645     -1.43072500993969
  N   1.47680596028339     -1.44379220592351     -2.39501153831251
