13
Coordinates from ORCA-job run
  C   -0.36269612856746     -0.30088413430928      0.16477729771325
  C   0.83225236417455     -0.20160621632986     -0.76884758267179
  Br  -0.50341954038991     -1.99636146951847      1.01334198991675
  H   0.76541574623519     -0.99186293910671     -1.51789285377660
  H   0.79069517664821      0.76225369059643     -1.28175046939723
  N   -0.28462171691292      0.85489715844657      1.17463761084894
  O   -0.20935074061025      0.60988477430596      2.36390703696169
  O   -0.28827738764998      1.95073885535365      0.62561127906446
  N   -1.65965230871456     -0.04120414189389     -0.60261290012447
  O   -2.62674659076379      0.25789951395993      0.07975222532085
  O   -1.61290199631656     -0.18723272314987     -1.81631971496675
  C   2.07788169850095     -0.31442505509112     -0.01760367662393
  N   3.08242142436652     -0.40209731326335      0.58299975773482
