13
Coordinates from ORCA-job run
  C   -0.47263300710978     -0.41007942812881      0.16863827083101
  C   0.88373483995789     -0.69028039747833     -0.46203924293659
  Br  -1.39127207508307     -2.04098856744725      0.54363491341786
  H   0.72714750600021     -1.19188717548532     -1.41879682326048
  H   1.41985412628506     -1.37197294686139      0.20411024463225
  N   -0.23471463476256      0.39813612664830      1.45182755426171
  O   -0.34506843666632      1.61104199154482      1.33993179088629
  O   0.13932873580636     -0.23884993236497      2.42261914605323
  N   -1.36468340554814      0.44372662182149     -0.72707857238826
  O   -0.91714086869787      0.71767271119125     -1.83415598583541
  O   -2.44469220911356      0.76037459186047     -0.25616389351197
  C   1.67335351668515      0.52352250726702     -0.65552494530062
  N   2.32578591224664      1.49158389743272     -0.77600245684901
