13
Coordinates from ORCA-job run
  C   -0.37314547734591      0.31951403802491      0.02367798001987
  C   0.78778218669308     -0.27198521524109     -0.76180162099931
  Br  -0.59639041159353      2.18397964956978     -0.25125412660884
  H   0.89406454997123     -1.32132556142553     -0.47754989467265
  H   0.52740695023380     -0.22195850886043     -1.82429468607424
  N   -1.62861139803506     -0.48091094477716     -0.37010269688082
  O   -2.53173068553034      0.07587609408498     -0.96637038523823
  O   -1.55292067452909     -1.66119040005882     -0.04728546526202
  N   -0.23712779476500      0.04721422507354      1.52383371443507
  O   0.81889459534945     -0.44180033062000      1.90079256885014
  O   -1.21366111025714      0.33675435549246      2.19741420090066
  C   2.04246488143990      0.43663637162821     -0.54098425936074
  N   3.06397438836860      0.99719622710915     -0.40407532910891
