13
Coordinates from ORCA-job run
  C   -0.49560628820076     -0.33162958635815      0.25651632245583
  C   0.78959348758557     -0.83190928614575     -0.38655791830991
  Br  -1.52607819656419     -1.79175979552093      0.92795113744838
  H   1.30747368218976     -1.44774848558490      0.35412782718483
  H   0.53165285517211     -1.46007364601053     -1.24120270620780
  N   -0.11007046676919      0.63850441837942      1.38125498477364
  O   -0.10530170367949      1.82277420193098      1.07508581221267
  O   0.25105790262395      0.12893574587569      2.42910346847771
  N   -1.36594931214625      0.45496564486994     -0.71902733808014
  O   -0.97180616541498      0.50375987387973     -1.87787749696126
  O   -2.37881232531103      0.94743217544537     -0.25017259103330
  C   1.66597446510353      0.25624093717102     -0.81377845540304
  N   2.40587206541098      1.10850780206810     -1.13542304655761
