13
Coordinates from ORCA-job run
  C   -0.35355926857930     -0.26348588111077      0.21882944970383
  C   0.79624616635498     -0.20123650384688     -0.77539349546677
  Br  -0.45703250962378     -1.91296432816046      1.15039608252551
  H   0.83034280105292      0.80576292005737     -1.19695254252328
  H   0.57684411316803     -0.91016110049712     -1.58047518330254
  N   -0.28605662624597      0.88274769447831      1.23190000237303
  O   0.72377832584950      1.57286377328132      1.21535671624536
  O   -1.26534378565306      1.00110108826417      1.95172282024375
  N   -1.64115197602973      0.03960385655844     -0.57206201467483
  O   -2.49327539937747     -0.82199026057119     -0.68435837804124
  O   -1.64265390018006      1.16880763701829     -1.04955203566413
  C   2.08229461529316     -0.53711001695260     -0.17632197996467
  N   3.12956744397079     -0.82393887851887      0.26791055854597
