13
Coordinates from ORCA-job run
  C   -0.40783896951962     -0.39585682804648      0.31364864587161
  C   0.86841360919314     -0.71102450902744     -0.45287097644427
  Br  -1.23856666655835     -2.00093716117313      0.92864082624958
  H   1.57288247727865     -1.19530785894080      0.22586174001912
  H   0.60790334572319     -1.41759975024329     -1.24590382203112
  N   -0.15361647020207      0.50082851936371      1.52134139841243
  O   1.01750843433638      0.77109914871155      1.75834901213943
  O   -1.14412090211014      0.85160349300561      2.14126228892400
  N   -1.33780437111915      0.38503886260846     -0.62496915003968
  O   -1.95432207935326     -0.27814774978176     -1.44227922401849
  O   -1.28447953779945      1.60286365653752     -0.52437777362582
  C   1.47974422374659      0.47787725837867     -1.04211755910785
  N   1.97429690638409      1.40956291860740     -1.55658540634895
