13

C	-0.3429	0.094396	-1.463835
C	0.0	0.0	0.0
F	-1.713414	0.062078	-1.698298
H	1.092556	0.0	0.0
H	0.092342	-0.796192	-1.931991
C	0.216328	1.265313	-2.158743
N	0.618466	2.119432	-2.856075
C	-0.46146	-1.245197	0.567813
N	-0.76315	-2.30439	0.97989
N	-0.41778	1.131044	0.804468
O	-0.542925	2.223755	0.235237
O	-0.476506	0.96137	2.028414
H	2.386956	0.0	0.0
