13

C	-0.319283	-0.00374	-1.472001
C	0.0	0.0	0.0
F	-1.686274	-0.000191	-1.725367
H	1.09283	0.0	0.0
H	0.085508	-0.942668	-1.865085
C	0.295163	1.088228	-2.245167
N	0.731846	1.867952	-3.005669
C	-0.471319	-1.200894	0.648267
N	-0.74889	-2.233096	1.139221
N	-0.413583	1.191882	0.709681
O	-0.597011	1.09946	1.930306
O	-0.404818	2.255878	0.075792
H	2.385344	0.0	0.0
