13

C	-0.348504	-0.044056	-1.464685
C	0.0	0.0	0.0
F	-1.720677	-0.018841	-1.689513
H	1.095435	0.0	0.0
H	0.026957	-1.0025	-1.839737
C	0.271426	1.013406	-2.280025
N	0.717741	1.764916	-3.063139
C	-0.471246	-1.17616	0.691795
N	-0.802721	-2.186785	1.19409
N	-0.404266	1.212526	0.681158
O	-0.505964	1.166464	1.913927
O	-0.47426	2.246988	0.003213
H	2.382069	0.0	0.0
