13

C	-0.35919	0.063945	-1.462811
C	0.0	0.0	0.0
F	-1.733337	0.092368	-1.673982
H	1.092865	0.0	0.0
H	0.019346	-0.86358	-1.906501
C	0.250523	1.183247	-2.198623
N	0.716961	2.040091	-2.850389
C	-0.467296	-1.228059	0.597227
N	-0.786712	-2.277171	1.024114
N	-0.40576	1.153718	0.779246
O	-0.465116	2.242551	0.191124
O	-0.513603	1.003039	2.002097
H	2.385039	0.0	0.0
