13

C	-0.340635	-0.043674	-1.466319
C	0.0	0.0	0.0
F	-1.711684	-0.02886	-1.697952
H	1.095594	0.0	0.0
H	0.04428	-0.998546	-1.840729
C	0.274766	1.019634	-2.277847
N	0.716581	1.774786	-3.060383
C	-0.469701	-1.179466	0.687389
N	-0.804444	-2.192781	1.182263
N	-0.408939	1.209746	0.682283
O	-0.516922	1.160201	1.914583
O	-0.476754	2.245836	0.006455
H	2.380731	0.0	0.0
