13

C	-0.473434	-0.018089	-1.446011
C	0.0	0.0	0.0
F	0.339443	0.756933	-2.245509
H	1.091724	0.0	0.0
H	-1.483481	0.396615	-1.520958
C	-0.475449	-1.385978	-1.994904
N	-0.516748	-2.449374	-2.490754
C	-0.443438	-1.141471	0.763022
N	-0.764406	-2.106445	1.355941
N	-0.387551	1.228653	0.66198
O	-0.677628	2.205411	-0.051249
O	-0.249212	1.268547	1.893325
H	2.357616	0.0	0.0
