14
Coordinates from ORCA-job run
  C   -0.70451533148802      0.16680128389972     -0.50495877388751
  C   0.57098356210688      0.68720214505244      0.15874173444551
  H   -0.52098525667780     -0.15440654550154     -1.53215020664492
  H   0.31455650422326      1.01669517915603      1.16872187057279
  H   0.88919847573688      1.57011303298191     -0.40336209105568
  C   -1.78516536627986      1.14749129462878     -0.46736036498532
  N   -2.62495119512276      1.96768294149495     -0.45157086442526
  N   -1.14434772801760     -1.07808593447863      0.23005952506130
  O   -1.53340470319985     -0.92473439862700      1.38175481763251
  O   -1.01787387343003     -2.14143861995520     -0.36840725998480
  C   1.67343138115777     -0.36512350700056      0.18825815544575
  H   2.59449516597412      0.07049677965148      0.57913383385743
  H   1.40747459438880     -1.20581308724576      0.83198475081997
  H   1.88110377062822     -0.75588056405662     -0.81084512685178
