14
Coordinates from ORCA-job run
  C   -0.81196609427167      0.01220145325888     -0.57869272731766
  C   0.70753472782284     -0.13233749450816     -0.70629206008941
  H   -1.30742445270353     -0.29177386499126     -1.50401091365146
  H   0.90632472627227     -1.14770836199067     -1.05852511137639
  H   1.03094740791809      0.55747940865292     -1.49141412893291
  C   -1.21798477122240      1.36613009814898     -0.21602013468490
  N   -1.51366911515748      2.47837541191222      0.01569188461418
  N   -1.28961836381691     -0.97127648266724      0.46753526576422
  O   -1.25316361073585     -2.14687248825655      0.12044442315645
  O   -1.61322206535823     -0.54205306953037      1.56858635508620
  C   1.44342467628565      0.15104293133681      0.59763883830199
  H   1.21396586598349      1.14916158945646      0.97674538507578
  H   1.18466360142049     -0.57461120602307      1.37114607672139
  H   2.52118746756323      0.09124207520105      0.43616684733253
