14
Coordinates from ORCA-job run
  C   -0.75473310026762      0.22987222462942     -0.39586981356746
  C   0.62253395630561      0.64873824741295      0.11985034559896
  H   -0.72409013125778     -0.03340307358500     -1.45502436414019
  H   0.91054403071584      1.54999676014124     -0.42924070961572
  H   0.51880975738361      0.92511585953310      1.17202589757617
  C   -1.76684845004249      1.25488760684225     -0.15808042403242
  N   -2.55263355039716      2.10937220442377      0.01720594269069
  N   -1.16112874170221     -1.03744300053117      0.31958010648025
  O   -1.38646310312237     -0.93938188990733      1.52010507935368
  O   -1.17191931801592     -2.06555864472261     -0.34974392043005
  C   1.66204460336123     -0.45172255050419     -0.05858138450901
  H   1.43618867287904     -1.32076640365126      0.56247863490052
  H   2.64727774969530     -0.08500882033819      0.23431885096865
  H   1.71941762446493     -0.78369851974296     -1.09802424127408
