14
Coordinates from ORCA-job run
  C   -0.72855213345058      0.10949022122755     -0.27212411029601
  C   0.66161834224376     -0.48117777043592     -0.02841802008384
  H   -0.76402465064198      0.65500561183608     -1.21747614871122
  H   0.87693532874300     -1.15618453470796     -0.86240603231597
  H   0.61909348726930     -1.07778671846982      0.88672625440683
  C   -1.15993687662449      0.97292640697390      0.82276535704516
  N   -1.45791770437322      1.69562292599332      1.69868615499740
  N   -1.70625343537243     -1.03070508305974     -0.42870295844739
  O   -1.97886855248879     -1.34990183697004     -1.58147497292663
  O   -2.08966963948917     -1.58036623517467      0.59707272659815
  C   1.72440619555540      0.60631285584040      0.07608470783980
  H   1.75570197341617      1.21757543682168     -0.82919518335966
  H   2.70997495217375      0.15690395794670      0.20959608794179
  H   1.53749271303929      1.26328476217851      0.92786613731158
