14
Coordinates from ORCA-job run
  C   -0.74561244840559      0.07221820683465     -0.23413821780591
  C   0.68883884304348     -0.43578271920839     -0.07708290299639
  H   -0.85899555603067      0.65375862795206     -1.15158614724797
  H   0.72731282569525     -1.06934394378050      0.81317582767158
  H   0.90772237885317     -1.06248444970990     -0.94706663660143
  C   -1.17964515359713      0.85984940231548      0.91550882413293
  N   -1.48214752213870      1.52559196065776      1.83395441191237
  N   -1.65556589598314     -1.12184214273932     -0.39908815390709
  O   -1.96235579446144     -1.73329468410116      0.61759738922688
  O   -1.95367051878380     -1.41388965334709     -1.55284038543459
  C   1.68388750075393      0.71413194055476      0.02601530319977
  H   1.63693233924641      1.35825555824022     -0.85552656720008
  H   2.70122197159726      0.32639187189603      0.10169999358961
  H   1.49207703021095      1.32644002443541      0.90937726146030
