14

C	0.0	0.0	0.0
C	-0.659507	0.034384	-1.365915
Br	1.961585	0.0	0.0
H	-0.486217	-0.912577	-1.889005
H	-1.781135	0.086876	-1.050269
C	-0.34663	1.217429	0.748542
N	-0.536491	2.197409	1.368475
C	-0.493381	-1.231882	0.74665
H	-0.102763	-1.255001	1.76521
H	-1.593158	-1.147348	0.747332
H	-0.173708	-2.132158	0.213871
C	-0.273403	1.151062	-2.203865
N	0.017097	2.050275	-2.902832
H	-3.056951	0.0	0.0
