14

C	0.0	0.0	0.0
C	-0.273185	0.051701	-1.528079
Br	1.96522	0.0	0.0
H	0.250897	-0.786242	-2.00002
H	0.189436	0.970104	-1.914079
C	-0.715384	1.088331	0.653353
N	-0.735691	2.119063	1.255725
C	-0.260002	-1.37904	0.645021
H	-1.322061	-1.593199	0.695104
H	0.248587	-2.150415	0.062106
H	0.164201	-1.378804	1.652367
C	-1.683993	0.035945	-1.946829
N	-2.5876	0.059424	-2.711446
H	-2.083914	0.0	0.0
