14

C	0.0	0.0	0.0
C	-0.26653	0.023944	-1.52595
Br	1.965359	0.0	0.0
H	0.316597	-0.782854	-1.965564
H	0.143379	0.965001	-1.919589
C	-0.699042	1.099564	0.658727
N	-0.698115	2.169535	1.191077
C	-0.264543	-1.37838	0.660601
H	-1.330263	-1.594121	0.697436
H	0.144018	-1.357319	1.677602
H	0.249858	-2.161667	0.096387
C	-1.649698	-0.090979	-2.005963
N	-2.597418	-0.01585	-2.70884
H	-2.092371	0.0	0.0
