14

C	0.0	0.0	0.0
C	-0.513231	-0.05792	-1.437967
Br	1.962609	0.0	0.0
H	-0.196651	0.827972	-1.996003
H	-1.630994	-0.05217	-1.27622
C	-0.41367	1.249282	0.641004
N	-0.567521	2.291548	1.1648
C	-0.424311	-1.231952	0.790882
H	0.011808	-2.118977	0.32401
H	-0.068679	-1.162563	1.820489
H	-1.520193	-1.251455	0.753639
C	-0.051262	-1.253753	-2.124705
N	0.3243	-2.210913	-2.694083
H	-2.931458	0.0	0.0
