18

C	-0.219833	0.016376	-1.513223
C	0.0	0.0	0.0
Br	-2.219979	0.054588	-1.882578
H	1.101854	0.0	0.0
N	0.357722	1.201444	-2.066841
H	0.456854	1.065654	-3.067301
H	1.288725	1.303706	-1.661014
N	0.258451	-1.17591	-2.16792
H	-0.073784	-1.961891	-1.614347
H	1.271764	-1.150296	-2.046285
N	-0.44844	-1.273318	0.555565
H	0.16419	-1.523542	1.32234
H	-1.390808	-1.174231	0.917161
C	-0.514858	1.225225	0.736747
H	-0.194612	2.146289	0.248604
H	-0.127192	1.219507	1.759757
H	-1.609044	1.219317	0.772094
Cl	3.409808	0.0	0.0
