18

C	-0.416406	-0.041996	-1.482901
C	0.0	0.0	0.0
Br	-0.169792	1.742532	-2.316906
H	1.095736	0.0	0.0
N	0.426218	-0.938447	-2.25699
H	1.395454	-0.641794	-2.139531
H	0.353275	-1.835862	-1.780588
N	-1.81119	-0.378747	-1.600395
H	-1.986737	-0.589047	-2.577491
H	-1.91765	-1.239164	-1.067763
N	-0.39156	-1.326238	0.543842
H	-1.103584	-1.205521	1.254869
H	0.422156	-1.72696	0.995341
C	-0.575131	1.137031	0.822462
H	-0.204426	2.102678	0.482412
H	-0.275032	1.01039	1.866782
H	-1.668145	1.140447	0.755224
Cl	3.463766	0.0	0.0
