18

C	-0.426925	0.037971	-1.468497
C	0.0	0.0	0.0
Br	0.112167	-1.823947	-2.2616
H	1.09435	0.0	0.0
N	-1.811075	0.241811	-1.602528
H	-2.293793	-0.402294	-0.986268
H	-2.100627	0.11105	-2.562963
N	0.297166	0.955386	-2.29538
H	0.013677	1.893606	-2.034556
H	1.292578	0.846106	-2.109113
N	-0.635364	-1.12843	0.688362
H	-0.158405	-1.975101	0.396953
H	-0.449427	-1.024062	1.680367
C	-0.432267	1.286708	0.701357
H	0.015646	1.306178	1.699541
H	-1.519129	1.346646	0.789486
H	-0.064635	2.168291	0.174457
Cl	3.50392	0.0	0.0
