17

C	-0.397146	0.060319	-1.49205
C	0.0	0.0	0.0
Br	0.079946	-1.644802	-2.360678
H	1.096512	0.0	0.0
C	-1.842756	0.209326	-1.655385
N	-3.001573	0.37832	-1.772012
C	0.362708	1.174855	-2.209383
H	1.428809	1.054442	-1.999254
H	0.183078	1.12558	-3.284028
H	0.025997	2.148428	-1.844928
C	-0.532263	-1.18825	0.657231
N	-0.983423	-2.101263	1.24361
C	-0.447487	1.252424	0.766849
H	-1.529455	1.403919	0.712566
H	-0.161546	1.139411	1.814128
H	0.070203	2.132178	0.383697
Br	3.465543	0.0	0.0
