16

C	-0.378734	0.054949	-1.471987
C	0.0	0.0	0.0
Br	-0.329404	-1.857531	-2.267992
H	1.095028	0.0	0.0
H	-0.304777	0.980851	0.391205
N	-1.767599	0.430682	-1.679501
H	-2.01962	0.283395	-2.65066
H	-1.807175	1.431118	-1.497789
N	0.546354	0.889048	-2.134
H	1.504759	0.692557	-1.845906
H	0.46069	0.845573	-3.140926
C	-0.622202	-1.106526	0.828837
H	-0.466368	-0.902138	1.891485
H	-1.695682	-1.177646	0.637245
H	-0.161894	-2.067939	0.603259
Cl	3.531301	0.0	0.0
