16

C	-0.464296	0.012651	-1.447773
C	0.0	0.0	0.0
Br	0.001017	-1.717963	-2.316976
H	1.093629	0.0	0.0
H	-0.302275	0.982504	0.399537
N	-1.896105	0.1424	-1.535441
H	-2.197256	0.881965	-0.909033
H	-2.136286	0.394632	-2.488034
N	0.221594	1.0163	-2.251864
H	0.046157	1.909706	-1.794386
H	1.22534	0.852166	-2.171443
C	-0.554007	-1.1083	0.882715
H	-1.646793	-1.131377	0.875628
H	-0.187912	-2.078054	0.544128
H	-0.208219	-0.964556	1.909839
Cl	3.5424	0.0	0.0
