16

C	-0.267841	-0.063185	-1.491847
C	0.0	0.0	0.0
Br	-2.3459	-0.647871	-1.746512
H	1.097103	0.0	0.0
H	-0.366229	0.94592	0.411751
N	-0.051513	1.152605	-2.112991
H	-0.179662	1.099533	-3.112613
H	-0.531367	1.930843	-1.68935
N	0.442178	-1.073029	-2.225231
H	1.431385	-0.910906	-2.019919
H	0.194916	-1.987405	-1.869384
C	-0.472391	-1.176159	0.838368
H	-0.164996	-2.124739	0.391601
H	-0.000176	-1.120951	1.822069
H	-1.556196	-1.191848	0.959464
Cl	3.481797	0.0	0.0
