16

C	-0.29069	0.024111	-1.484916
C	0.0	0.0	0.0
Br	-2.333773	0.799514	-1.647902
H	1.097354	0.0	0.0
H	-0.320275	0.954816	0.422563
N	0.466778	0.973378	-2.248094
H	0.292156	1.899669	-1.878912
H	1.448194	0.753061	-2.056332
N	-0.198588	-1.20505	-2.097679
H	-0.746156	-1.936282	-1.672388
H	-0.313735	-1.14712	-3.098306
C	-0.580905	-1.167199	0.774826
H	-0.109521	-2.106459	0.474594
H	-1.663915	-1.24126	0.635984
H	-0.382631	-1.041999	1.840817
Cl	3.467263	0.0	0.0
