16

C	-0.248652	-0.000277	-1.499198
C	0.0	0.0	0.0
Br	-2.253485	-0.110028	-1.848351
H	1.100262	0.0	0.0
H	-0.34888	-0.949724	0.413059
N	0.177269	1.196884	-2.201341
H	-0.309113	2.01048	-1.841798
H	1.171803	1.299967	-1.990428
N	0.359626	-1.158415	-2.058635
H	0.499748	-1.004312	-3.050335
H	1.262021	-1.297285	-1.60872
C	-0.539987	1.181518	0.780101
H	-0.251219	1.089245	1.829658
H	-0.117624	2.122328	0.419026
H	-1.630104	1.241228	0.724637
Cl	3.471564	0.0	0.0
