16

C	0.0	0.0	0.0
C	-0.69221	0.171221	-1.350097
Br	1.936128	0.0	0.0
H	-0.085502	-0.339236	-2.109296
H	-0.302214	0.784964	0.695847
N	-0.379234	-1.26836	0.591979
O	-0.332507	-2.274843	-0.356133
O	0.038207	-1.467576	1.801581
C	-0.959978	1.623727	-1.690159
H	-1.358233	1.731741	-2.704297
H	-1.696819	2.00731	-0.982662
H	-0.040546	2.207614	-1.618116
N	-1.956891	-0.590728	-1.236907
H	-1.596634	-1.575999	-0.926568
H	-2.551346	-0.525899	-2.05692
F	-3.124231	0.0	0.0
