16

C	0.0	0.0	0.0
C	-0.547023	0.141311	-1.413694
Br	1.924559	0.0	0.0
H	-1.635376	0.011485	-1.173641
H	-0.351433	0.835056	0.591756
N	-0.445038	-1.224301	0.747217
O	-0.586151	-2.273537	0.129364
O	-0.560406	-1.10016	1.961532
C	-0.036751	-0.837227	-2.457092
H	1.035559	-0.708703	-2.653018
H	-0.213868	-1.86868	-2.155167
H	-0.574799	-0.650129	-3.392491
N	-0.302357	1.542722	-1.78355
H	0.433641	1.600138	-2.479081
H	-1.15194	1.920886	-2.182623
F	-2.701437	0.0	0.0
