16

C	0.0	0.0	0.0
C	-0.257396	0.14647	-1.514421
F	1.394026	0.0	0.0
H	0.194313	1.096201	-1.81572
H	-0.3339	-0.974152	0.358764
N	-0.553368	1.019942	0.809922
H	-0.538898	1.91458	0.336209
H	-1.523512	0.785816	1.014876
C	-1.672225	0.017708	-2.023788
H	-1.674459	0.122698	-3.113062
H	-2.320486	0.775355	-1.588975
H	-2.111446	-0.93654	-1.739006
N	0.575637	-0.882163	-2.221384
O	0.417253	-2.055651	-1.89117
O	1.335441	-0.497483	-3.110118
Cl	-4.187987	0.0	0.0
