16

C	0.0	0.0	0.0
C	-0.490082	0.064153	-1.442292
F	1.414549	0.0	0.0
H	-1.533604	0.399181	-1.396684
H	-0.30432	-0.956656	0.427883
N	-0.489209	1.048774	0.789743
H	-0.176043	0.990434	1.745669
H	-0.316807	1.953884	0.381119
C	-0.355274	-1.264468	-2.149213
H	-1.064862	-1.953052	-1.686926
H	0.660148	-1.653769	-2.058218
H	-0.600938	-1.17561	-3.207343
N	0.301006	1.129716	-2.145391
O	0.140983	2.290083	-1.761697
O	1.074819	0.803454	-3.043634
Cl	-3.764358	0.0	0.0
