14
Coordinates from ORCA-job run
  C   0.73653410456409     -0.60965304260612     -0.06662765278308
  C   -0.64423369101522      0.01389468946901     -0.12641431534728
  H   1.01678481118430     -0.67417990177375      0.98699678747180
  H   -0.94942492063294      0.17819984922577     -1.16296607608090
  H   0.66156388324910     -1.63181051828603     -0.45843085270192
  N   1.67871776034954      0.21921581572266     -0.80642491155706
  H   1.96810245169171     -0.22386732871727     -1.66581068307016
  H   2.49966531637938      0.42229998201242     -0.25672059147920
  N   -0.52798498068641      1.42733432444637      0.42269510944375
  O   -1.17783857691208      2.29452607399953     -0.15562488940464
  O   0.15524998371821      1.59279808133814      1.42664664868999
  N   -1.60425967108981     -0.68158379854346      0.67451529717373
  H   -2.51570197901119     -0.72413946484430      0.24617218616278
  H   -1.29617449178868     -1.60403476144299      0.94199394348218
