14
Coordinates from ORCA-job run
  C   0.78780605368537     -0.62281770439517     -0.01124514628282
  C   -0.60340240461388     -0.04293644011858     -0.13597016872868
  H   0.71876111951395     -1.67091207239817     -0.32079735673117
  H   -0.89532441560714     -0.01082166240770     -1.19161840522944
  H   1.07858581335150     -0.60034197495250      1.04556802187889
  N   1.69536815212321      0.07128261481270     -0.91648166380540
  H   2.04832067619790      0.90163048214267     -0.45974702541667
  H   2.48415486320325     -0.51915122218216     -1.14174529830279
  N   -0.60513062354960      1.41600682729934      0.27085175344965
  O   0.35764916457365      1.87154869237927      0.88295502632907
  O   -1.62643950575836      2.03483956577710     -0.01484514349493
  N   -1.54011164495245     -0.67830384964873      0.75724791490246
  H   -2.49119485151303     -0.47029533097742      0.48254870309621
  H   -1.40804239665436     -1.68072792533066      0.75227878833563
