14
Coordinates from ORCA-job run
  C   0.97185649704648      0.08673760962848     -0.12895004217334
  C   -0.54379305012684      0.18422377759338     -0.14188177434076
  H   1.39332878354540      0.79778389262867     -0.84791307105100
  H   -0.94136064414862     -0.01447324222108     -1.14825815057257
  H   1.30986618199960      0.37966635126555      0.86566985330352
  N   1.33565332573711     -1.31153222081803     -0.36529990880555
  H   1.33273387609550     -1.51258329291726     -1.35772559874697
  H   2.27116531821552     -1.48801494181281     -0.02480637880578
  N   -0.99512924508640      1.59906952227089      0.13313126986590
  O   -2.19877116197575      1.79866968288475     -0.01026109709264
  O   -0.16933017602684      2.43206837480609      0.49685374232995
  N   -1.09992905910018     -0.63196197553410      0.89940230315147
  H   -0.58490547474835     -1.50525998081300      0.89897466564064
  H   -2.08038517142663     -0.81439355696153      0.73106418729714
