14
Coordinates from ORCA-job run
  C   0.67003792090062     -0.44415328818390     -0.75466555842740
  C   -0.75547269459108     -0.17196479504937     -0.29189420366178
  H   0.70983763357084     -1.49815587148104     -1.03587395068569
  H   -1.46220747747094     -0.27418340329870     -1.11928689556320
  H   0.88336209877877      0.16290259281490     -1.63940055960912
  N   1.57797403808513     -0.21319974642654      0.36719269216605
  H   2.40083297419680     -0.79381493477749      0.28701065827185
  H   1.88425096856444      0.75137733258732      0.38373077148827
  N   -0.81087663476437      1.34211877493919      0.02615241267665
  O   -1.07427843075190      1.68565493515113      1.17427101613040
  O   -0.57162476616673      2.10113265931534     -0.91093044876952
  N   -1.09664709554175     -0.99340665498732      0.80198826367245
  H   -0.36857719054920     -0.91761091891436      1.50231936082748
  H   -1.98561134426063     -0.73769668168918      1.20838644148356
