14
Coordinates from ORCA-job run
  C   0.49208031140510     -0.43022392809021     -0.81926790753416
  C   -0.77607024364409      0.00878269207789     -0.08922674730064
  H   0.28432221921944     -1.42796158981689     -1.21726467204595
  H   -1.66055293564164     -0.16213482820389     -0.70603312030799
  H   0.66988454615349      0.23894626499820     -1.67137775961793
  N   1.60930019117846     -0.53927137077721      0.11037879943633
  H   2.35856514618434     -1.07849055873616     -0.30100157727789
  H   1.95466264335894      0.38579475711875      0.32897569839836
  N   -0.75928472058240      1.52785803790270      0.06363771840813
  O   0.32501954848222      2.06610518298838      0.28676984023004
  O   -1.84011632016812      2.10467525709481      0.00393446563461
  N   -0.90776107883220     -0.54925269455907      1.21259943589926
  H   -0.04133255268059     -0.99524273717054      1.48642676939861
  H   -1.70971675443294     -1.14858448482676      1.31244905667923
