18

C	-0.557102	0.073318	-1.413967
C	0.0	0.0	0.0
Cl	0.061714	1.551343	-2.278058
H	1.095689	0.0	0.0
N	-0.189184	-1.06271	-2.215647
H	-0.222531	-1.908399	-1.662541
H	-0.790893	-1.153141	-3.023306
C	-2.029951	0.252572	-1.380022
N	-3.205243	0.3049	-1.344423
C	-0.421338	-1.301716	0.684689
H	-1.503222	-1.495177	0.658055
H	-0.115182	-1.239532	1.731597
H	0.115533	-2.163117	0.276237
C	-0.446887	1.188555	0.842585
H	-1.516543	1.171616	1.087343
H	-0.215	2.134356	0.350845
H	0.126741	1.16782	1.771027
F	2.626861	0.0	0.0
