18

C	-0.482473	0.009148	-1.448667
C	0.0	0.0	0.0
Cl	0.248888	-1.383419	-2.336775
H	1.095888	0.0	0.0
N	-1.926417	-0.078952	-1.687767
H	-2.35599	0.711388	-1.216942
H	-2.252678	-0.919244	-1.219798
C	-0.009129	1.226145	-2.132404
N	0.349042	2.20952	-2.66498
C	-0.475668	-1.228995	0.760343
H	-1.558004	-1.234178	0.962762
H	0.044308	-1.247469	1.7218
H	-0.209065	-2.151422	0.240171
C	-0.431988	1.274266	0.717267
H	-0.010836	1.253101	1.726209
H	-0.027068	2.163946	0.227915
H	-1.52412	1.385229	0.815017
F	2.624892	0.0	0.0
