18

C	-0.076367	-0.061774	-1.544918
C	0.0	0.0	0.0
Cl	-0.101204	1.736282	-2.26238
H	1.098607	0.0	0.0
N	1.040158	-0.775871	-1.973421
H	1.883681	-0.514828	-1.394425
H	1.178084	-0.770596	-2.974078
C	-1.340406	-0.582453	-2.087371
N	-2.36659	-1.020686	-2.461079
C	-0.496785	-1.323183	0.572468
H	-1.58726	-1.424636	0.502482
H	-0.214236	-1.381864	1.62793
H	-0.029861	-2.163203	0.055745
C	-0.654528	1.18796	0.669161
H	-1.714124	1.280238	0.398695
H	-0.150569	2.119501	0.415541
H	-0.595438	1.057069	1.754741
F	2.74638	0.0	0.0
