18

C	-0.07785	0.094135	-1.532836
C	0.0	0.0	0.0
Cl	-1.679352	0.848353	-2.137112
H	1.100591	0.0	0.0
N	1.023222	0.889688	-1.964211
H	1.850375	0.640511	-1.361428
H	1.217616	0.758456	-2.948204
C	-0.111146	-1.240231	-2.164735
N	-0.076632	-2.286607	-2.702393
C	-0.643022	-1.231446	0.599459
H	-1.717919	-1.27561	0.381754
H	-0.522041	-1.209036	1.686761
H	-0.177493	-2.149469	0.235433
C	-0.460023	1.290088	0.658735
H	-0.062985	2.150512	0.118296
H	-1.551974	1.370476	0.697378
H	-0.068717	1.322368	1.680132
F	2.730094	0.0	0.0
