14
Coordinates from ORCA-job run
  C   -0.46068641362513      0.05790470228262     -0.08833875236751
  C   0.77849625281513      0.23806696674938      0.40629010012062
  N   -1.42585402418697      1.15331714711283      0.15050885013897
  O   -2.08557991653003      1.50524109990003     -0.82375895397751
  O   -1.50088829408358      1.60518999444650      1.29032092850228
  C   -1.00656887314559     -1.08009627266569     -0.87102418242402
  H   -1.74921183429123     -1.60943613796226     -0.26573543576240
  H   -1.50961585521088     -0.68866904899923     -1.75602508975674
  H   -0.23357769400681     -1.78708229600647     -1.15861825804394
  C   1.25346707052373      1.39124864667012      1.08957468137143
  N   1.69708010659830      2.32382171525808      1.65514384726483
  N   1.82059212384867     -0.78853826370427      0.17962524854182
  O   2.90391443223798     -0.36607487927475     -0.20922244124075
  O   1.51743291905640     -1.95589337380688      0.40225945763292
