14
Coordinates from ORCA-job run
  C   -0.42028834241134     -0.07388987249536     -0.11609521942603
  C   0.87391106397734      0.06222636336761      0.21857754568358
  N   -1.19924486428812      1.12143602520752     -0.47824176762897
  O   -1.35135605916147      1.97112778103129      0.39256953687408
  O   -1.67005893585074      1.11833480731671     -1.61021960062474
  C   -1.20155768105119     -1.33610914258670     -0.14843048173031
  H   -0.59780950436196     -2.18621306275623      0.16783441004662
  H   -2.07260859844739     -1.24808896993284      0.50752031320350
  H   -1.56249184243904     -1.50487060653700     -1.16603952450322
  C   1.68274984154627     -1.03471329586774      0.62532155209931
  N   2.33124959521810     -1.96221395547612      0.94957602805264
  N   1.55758778832693      1.37382411843436      0.21679936844439
  O   2.34561221559847      1.55784186439403      1.13704882240117
  O   1.28430532334412      2.14230794590048     -0.69622098289203
