14
Coordinates from ORCA-job run
  C   -0.40820524848326     -0.06758606134124     -0.15268145512668
  C   0.84818210811433      0.05332958645288      0.30776609037389
  N   -1.11319415610391      1.12662189040660     -0.64590754113275
  O   -1.45864873748020      1.08490746935818     -1.82142703574638
  O   -1.33870860429934      2.01485166979090      0.16870414575800
  C   -1.21444758996468     -1.31365140729362     -0.21597602100560
  H   -0.67004240332362     -2.16111866769381      0.19933174459237
  H   -2.14632359537429     -1.17642580042823      0.34027604204684
  H   -1.47208568521280     -1.51942453050161     -1.25773489295701
  C   1.57978032571444     -1.04405559317745      0.84049954774054
  N   2.16418776518031     -1.97988888254304      1.25099023232170
  N   1.56336608377428      1.34754819312438      0.32195798396888
  O   2.26306563177146      1.55163421696465      1.30737532766032
  O   1.40107410568728      2.08325791688141     -0.64317416849411
