14
Coordinates from ORCA-job run
  C   -0.42667705722246      0.06183369060174     -0.19072973137274
  C   0.76949421146422      0.31099276147988      0.37453354687164
  N   -1.14460096120608      1.23131313321496     -0.74338775496816
  O   -1.60958426483213      1.08744210791899     -1.87086153193331
  O   -1.23207609692702      2.23067510338329     -0.03436112608608
  C   -1.13286788854992     -1.23127117722131     -0.37613992504599
  H   -0.52257756060869     -2.07770665641059     -0.07458960040926
  H   -1.42151724775457     -1.32607502255175     -1.42362499387536
  H   -2.04619726301222     -1.23136214077428      0.22740486690031
  C   1.41739156008406      1.57470669465330      0.45081996495676
  N   1.99429730555242      2.59786472145089      0.53382350315856
  N   1.58064777536625     -0.80455986081533      0.91225408574451
  O   1.01395322047537     -1.61449567514693      1.63784068167354
  O   2.76031426717076     -0.80835767978285      0.57801801438559
