14
Coordinates from ORCA-job run
  C   -0.42072492144865     -0.07084745712345     -0.11112167625102
  C   0.85804791106855      0.05426357671015      0.28160224549366
  N   -1.19930077842973      1.14238138637364     -0.41461888946721
  O   -0.77956315624327      1.86234021893518     -1.31481098711183
  O   -2.23293660610674      1.28134037953946      0.23097475912536
  C   -1.17230354730309     -1.33724700235061     -0.30759235016620
  H   -0.54498289373935     -2.20622779373622     -0.11217203137003
  H   -2.03530572599302     -1.34690882390837      0.36237511249398
  H   -1.54488226949151     -1.38512417016331     -1.33525671341887
  C   1.70029715861361     -1.06385699456459      0.52878658516866
  N   2.37004015357003     -2.00983417735531      0.73608782292847
  N   1.50454181624145      1.37365087438903      0.44521471505587
  O   0.84765814156486      2.24807957400391      0.99537915625868
  O   2.64941471769685      1.45599040925049      0.01615225126048
