14
Coordinates from ORCA-job run
  C   -0.38051152315988     -0.08762731287254     -0.20427876825830
  C   0.80131925378322      0.09718031655746      0.40756295626052
  N   -1.11940039009419      1.07896677899657     -0.71402734698148
  O   -1.51944157582583      1.88845092986763      0.11543705110484
  O   -1.31294702388677      1.09066652433453     -1.92443496709418
  C   -1.07143303417993     -1.38353337316911     -0.42787184565179
  H   -0.50921067527005     -2.21276479412735      0.00033706368745
  H   -1.19515263081918     -1.54131141644763     -1.50202281886538
  H   -2.06675111191960     -1.35141675589676      0.02484864372054
  C   1.55260554144283     -0.97472147620060      0.96451317004888
  N   2.15435228914008     -1.88731145624862      1.40135756989126
  N   1.40383952485719      1.43706707111096      0.57529275549106
  O   1.98005366576009      1.62600658506941      1.64044406203085
  O   1.28167769017199      2.22234837902604     -0.35615752538428
