14
Coordinates from ORCA-job run
  C   -0.40215381469823     -0.06344469190285     -0.14687511327683
  C   0.86082794457734      0.09205268563136      0.28880311622170
  N   -1.16335193806978      1.07348791190768     -0.68666585425219
  O   -1.70715391856640      1.79906883141395      0.13684268320384
  O   -1.24748655856873      1.12000489345402     -1.90710067787831
  C   -1.18349184451407     -1.32810489146660     -0.15108053415955
  H   -1.46294703468538     -1.57228473337542     -1.18000396286043
  H   -2.10308413059324     -1.18215004173148      0.42416109520608
  H   -0.61785936600116     -2.15344599506821      0.27796482071572
  C   1.60457974619087     -0.99206337077927      0.83538501672475
  N   2.18027684292250     -1.92239434447249      1.26848173457329
  N   1.56964402315404      1.39147802853381      0.27822520420540
  O   2.56462338315377      1.45846528428705      0.99079960561558
  O   1.10757666569849      2.27733043356845     -0.42793713403906
