14
Coordinates from ORCA-job run
  C   -0.41534392991654     -0.06664931950355     -0.13222171644669
  C   0.84994600109952      0.05131290317866      0.30406311599508
  N   -1.20639580523395      1.14920551933015     -0.38530464883010
  O   -2.21221756527897      1.27590657763671      0.30391992133408
  O   -0.82139005204189      1.88233724937491     -1.28968876598082
  C   -1.14117287628224     -1.32932671062751     -0.42273067367939
  H   -2.02385873384149     -1.38942952943612      0.21842725749460
  H   -0.50747067051174     -2.19975673835233     -0.25656127447811
  H   -1.48172234625373     -1.32501669269289     -1.46246133834404
  C   1.69599646412337     -1.07150778035510      0.51821958762482
  N   2.35973358515899     -2.02566170002053      0.70524540512719
  N   1.47604489507248      1.36484096800389      0.56611908962132
  O   0.76683465944892      2.22837469151060      1.06659503241142
  O   2.66101637445729      1.45437056195312      0.26537900815064
