14
Coordinates from ORCA-job run
  C   -0.43103025886607     -0.06630783835155     -0.09452500452749
  C   0.87244406157036      0.04267376224915      0.21284426412662
  N   -1.18918138925518      1.15589854665250     -0.41113997136105
  O   -2.21305768897805      1.32524903475242      0.24333935243635
  O   -0.76125407576561      1.86207006215978     -1.31836574235923
  C   -1.22520759623035     -1.31947785186723     -0.16450168986391
  H   -2.03837398737673     -1.26769931443057      0.56296386970602
  H   -0.60560274036879     -2.19186764779137      0.04155130751877
  H   -1.67069228154110     -1.42049391856063     -1.15830496247076
  C   1.69753153413352     -1.08179137643021      0.48862853837179
  N   2.35465012163016     -2.02869371747025      0.72936267989442
  N   1.56219113334693      1.34999586835927      0.27282285528759
  O   0.99524053748332      2.24787997049466      0.88218334526729
  O   2.65134263021759      1.39456442023400     -0.28685884202642
