14
Coordinates from ORCA-job run
  C   -0.41644622969039     -0.03468511770218     -0.11267029649795
  C   0.88181173405062      0.05531215797417      0.22919007658145
  N   -1.22390973075132      1.16536925092273     -0.38076093821924
  O   -1.78936095853014      1.65663453819983      0.58734165788252
  O   -1.31961972835161      1.48931629722799     -1.55705917460203
  C   -1.19808410670800     -1.29055569578196     -0.26281307543066
  H   -1.57767489456310     -1.35467792288263     -1.28661966239695
  H   -2.05653583376875     -1.26067383638039      0.41455743366919
  H   -0.59506670245220     -2.17064384912019     -0.04404138319386
  C   1.66166207672590     -1.10631552150422      0.49986020876410
  N   2.25607673753238     -2.09972700348577      0.71266128688364
  N   1.60874935485285      1.33775455790590      0.36433217741232
  O   2.76258058600169      1.25370250096194      0.77108776107288
  O   1.00581769565208      2.35918964366478      0.06393392807459
