14
Coordinates from ORCA-job run
  C   -0.41972068941424     -0.06443932790434     -0.11997328760555
  C   0.85938744180613      0.04844666421866      0.27556931845895
  N   -1.20416037275150      1.15411835672715     -0.37800565020776
  O   -2.20137686914910      1.29513107639315      0.32101106569941
  O   -0.82547965355626      1.87505662751711     -1.29466915898033
  C   -1.16894392272958     -1.32559622958959     -0.35364646046572
  H   -2.02672998922021     -1.36146181225747      0.32216653253762
  H   -0.53839901520172     -2.19890864420625     -0.18989296387822
  H   -1.54778262290671     -1.34244330582035     -1.37975701646389
  C   1.69592672847606     -1.07947581558156      0.50136016696955
  N   2.35674519306836     -2.03432635390400      0.69462745040700
  N   1.50913488786215      1.36066589458467      0.48235495587369
  O   2.67616629972914      1.43406980500798      0.11507149060919
  O   0.83423258398752      2.23916306481482      1.00378355704608
