14
Coordinates from ORCA-job run
  C   -0.47046406701093      0.03143475064285      0.01732633946131
  C   0.83376555503420      0.17838231818819      0.31733604195498
  N   -1.43094544782744      0.47046277804530      1.05334855905909
  O   -2.33455493948979     -0.31944794791569      1.31314742624156
  O   -1.25940917687204      1.58080696896964      1.55015358680965
  C   -1.10106755851369     -0.53665171849697     -1.20142041103853
  H   -1.85505689020063     -1.26453785569841     -0.89923314664129
  H   -1.60366859228618      0.26430401381132     -1.75285827619620
  H   -0.37286564023733     -1.00008750027498     -1.86095032576466
  C   1.36451432924576      0.66995347960606      1.54179457441894
  N   1.84710813386316      1.05688364612455      2.54368572150530
  N   1.86918833225240     -0.26701209286111     -0.64249938092788
  O   2.78744092427109     -0.92366998008324     -0.16400027808733
  O   1.72601503777141      0.06017913994247     -1.81583043079492
