14
Coordinates from ORCA-job run
  C   -0.49207887551237     -0.01110455477992      0.04996468332811
  C   0.79760216110877      0.12193017798603      0.41271497417185
  N   -1.52510526619807      0.31106938976420      1.05294405462617
  O   -2.59687890085454      0.70704131276643      0.59885395359105
  O   -1.24385989414959      0.17514917379638      2.24110633550465
  C   -1.00643787649564     -0.41570025565169     -1.28459481767490
  H   -1.71023195650908     -1.24207128524849     -1.17160984680252
  H   -1.54574266248138      0.41556148687168     -1.74166483821771
  H   -0.20138233395573     -0.72208587350433     -1.94867916585075
  C   1.33726314235934      0.53888527804155      1.65853233186317
  N   1.89425375069097      0.92526664497918      2.62192332302043
  N   1.83976152180069     -0.19191293190044     -0.59067655201142
  O   1.94980947649493      0.58419872495603     -1.53331492125975
  O   2.50402771370168     -1.19622728807661     -0.36349951428838
