14
Coordinates from ORCA-job run
  C   -0.41887507156707     -0.07663438828864     -0.13746467071398
  C   0.84522885832326      0.04798664200211      0.30071452851975
  N   -1.11866273727934      1.12362753454350     -0.63218833649799
  O   -1.54184554938257      1.04368558586653     -1.77987820563006
  O   -1.23065304995752      2.06827271788893      0.13991648766085
  C   -1.22405194914458     -1.32163109344658     -0.20084539394497
  H   -1.45797036351099     -1.54419998561574     -1.24450327937886
  H   -2.17151287252547     -1.17808613771648      0.32583082028155
  H   -0.68769178767112     -2.16244628418860      0.23806003680789
  C   1.59794708685650     -1.03782046248571      0.82867170268219
  N   2.23342299653592     -1.95002763730709      1.21883835857459
  N   1.54605496646707      1.34977916538966      0.30920140069259
  O   1.46768656979094      2.03042177843146     -0.70448140217265
  O   2.15992290306499      1.60807256492666      1.33812795311910
