14
Coordinates from ORCA-job run
  C   -0.41238412199153     -0.05470460327191     -0.14779014151736
  C   0.85412625119036      0.02694375041838      0.29318268605541
  N   -1.11308675958622      1.17405715222108     -0.55709153576015
  O   -1.30791992006150      2.01826873987024      0.31045290459401
  O   -1.48556539467807      1.20294549438738     -1.72473630504777
  C   -1.23238063501649     -1.28775461189392     -0.27025974476309
  H   -1.51995949162468     -1.42116367578729     -1.31623383915610
  H   -2.14670757751614     -1.17949463544761      0.32057511425276
  H   -0.68496944517509     -2.16533862191784      0.07254749492028
  C   1.58413380296036     -1.10769282133164      0.74301342876682
  N   2.16544670575990     -2.07108999553481      1.08899161742797
  N   1.58324204043251      1.31143082758574      0.37264431937535
  O   2.30458041464985      1.44500752732489      1.35478023721654
  O   1.41044413065673      2.10758547337731     -0.54107623636467
