14
Coordinates from ORCA-job run
  C   -0.36935912540636     -0.08181571378390     -0.23087308676161
  C   0.77544570886882      0.07751441543379      0.45434295691199
  N   -1.10620046916461      1.11234224771500     -0.67629929824577
  O   -1.47521410694799      1.89715988083598      0.19129488889490
  O   -1.32318176003307      1.17857863224847     -1.88159820512566
  C   -1.01325523944895     -1.36943693269502     -0.59682589292798
  H   -1.08443698968687     -1.43588141933428     -1.68491188789711
  H   -0.44754864648472     -2.21871042993265     -0.21515755121504
  H   -2.02880282193495     -1.40141164349715     -0.19164526381253
  C   1.52476214963212     -1.01753822763014      0.96563550042620
  N   2.12587463350942     -1.94701492998236      1.36629505667116
  N   1.33385268180841      1.41293247722082      0.75626771096715
  O   1.32959720391006      2.23495685461868     -0.15095730644257
  O   1.75946678137869      1.55832478878276      1.89643237855687
