14
Coordinates from ORCA-job run
  C   -0.45406500021235      0.02477785094507     -0.01575211871853
  C   0.83363933204093      0.14764759048195      0.34929172146456
  N   -1.44168372004673      0.55042650932028      0.94487448182317
  O   -1.54921395035560      1.77009596259156      1.02148016373944
  O   -2.08922362771821     -0.30155583074929      1.54388784504845
  C   -1.07713206629381     -0.55852275148762     -1.23178362321704
  H   -1.44668390403871     -1.56322575392451     -1.00909644897367
  H   -0.37443382709900     -0.62357847000017     -2.05783959192878
  H   -1.93170450319415      0.06108802537344     -1.51685092607119
  C   1.27960859548382      0.76070275188645      1.55286352100162
  N   1.66645999446712      1.21776620534219      2.56677250748146
  N   1.92003687917962     -0.36738065080746     -0.51041596746730
  O   1.69053204336751     -1.38259975065886     -1.15915252652936
  O   2.97086375441955      0.26335831168697     -0.48027903765283
