15

C	-0.398175	0.033178	-1.460561
C	0.0	0.0	0.0
F	-1.778987	0.030897	-1.613522
H	1.090685	0.0	0.0
H	-0.051391	-0.896318	-1.919461
N	0.129339	1.236792	-2.023109
H	0.183927	1.14951	-3.029518
H	1.064985	1.407573	-1.664574
N	-0.448696	-1.231904	0.7066
O	-0.506241	-1.177493	1.929829
O	-0.641854	-2.234058	0.021661
N	-0.55193	1.185493	0.706455
O	0.203523	2.140134	0.855463
O	-1.735578	1.138866	1.033175
Cl	3.192255	0.0	0.0
