15

C	-0.507774	0.027387	-1.435566
C	0.0	0.0	0.0
F	-0.122379	-1.19291	-2.007964
H	1.087959	0.0	0.0
H	0.056068	0.803766	-1.952847
N	-1.894663	0.282541	-1.543715
H	-2.157069	0.418968	-2.509973
H	-2.417494	-0.483344	-1.141168
N	-0.497921	-1.16048	0.788152
O	0.165352	-1.473992	1.769138
O	-1.542845	-1.710347	0.429496
N	-0.465165	1.24252	0.684881
O	-0.094652	2.286103	0.161695
O	-1.173303	1.141893	1.683003
Cl	3.214281	0.0	0.0
