15

C	-0.400292	0.019277	-1.461298
C	0.0	0.0	0.0
F	-1.779912	0.095372	-1.607581
H	1.090474	0.0	0.0
H	-0.112285	-0.94082	-1.896471
N	0.198789	1.170108	-2.061497
H	0.293154	1.028823	-3.057532
H	1.122656	1.331963	-1.671046
N	-0.45231	-1.218524	0.727034
O	-0.719075	-2.211587	0.057194
O	-0.444092	-1.161825	1.950688
N	-0.546234	1.200127	0.690061
O	-1.710877	1.139324	1.078921
O	0.192747	2.176699	0.761973
Cl	3.190632	0.0	0.0
