15

C	-0.439333	-0.032999	-1.451678
C	0.0	0.0	0.0
F	0.0009	1.166787	-2.028376
H	1.087758	0.0	0.0
H	-1.525087	-0.043896	-1.559994
N	0.15553	-1.180157	-2.022328
H	1.162986	-1.160761	-1.876331
H	-0.04993	-1.246332	-3.009312
N	-0.532795	-1.21513	0.68396
O	-1.749898	-1.221663	0.885726
O	0.24873	-2.112788	0.961969
N	-0.544244	1.156776	0.761354
O	-1.404196	1.859887	0.235888
O	-0.100433	1.293087	1.898288
Cl	3.238568	0.0	0.0
