15

C	-0.440666	-0.049253	-1.451313
C	0.0	0.0	0.0
F	0.013061	1.135774	-2.046084
H	1.087795	0.0	0.0
H	-1.526929	-0.048154	-1.55732
N	0.138562	-1.20998	-2.008999
H	1.146258	-1.199804	-1.865978
H	-0.06948	-1.282315	-2.995612
N	-0.535928	-1.200891	0.706506
O	-1.749846	-1.192251	0.92603
O	0.24086	-2.102581	0.985381
N	-0.537529	1.170916	0.745458
O	-1.380597	1.882533	0.204565
O	-0.107962	1.306659	1.887467
Cl	3.234687	0.0	0.0
