15

C	-0.446361	-0.089479	-1.466663
C	0.0	0.0	0.0
F	-0.430708	1.220517	-1.928178
H	1.087945	0.0	0.0
H	-1.471073	-0.458117	-1.54132
N	0.42859	-0.872064	-2.267336
H	0.228212	-1.85167	-2.121778
H	1.395019	-0.69621	-1.997311
N	-0.441884	-1.197685	0.771946
O	-0.487581	-1.087223	1.991896
O	-0.686874	-2.224649	0.138864
N	-0.612291	1.172515	0.671458
O	0.121788	2.037043	1.132697
O	-1.845653	1.181564	0.683797
Cl	3.214619	0.0	0.0
