11
Coordinates from ORCA-job run
  C   1.08158579299836     -0.14193253153375     -0.53050097560986
  C   -0.03253071406955     -0.34378079807483      0.47859847149052
  Br  2.63967918064003     -1.23585335784359     -0.11415596226881
  H   -0.31539805377499     -1.39983586662322      0.49607261276867
  H   0.76935620867656     -0.42641428315433     -1.53560114814934
  H   1.42934922283392      0.89128562972826     -0.54334259995855
  H   0.33734575755609     -0.09660030336637      1.47742997795360
  C   -1.24264746109899      0.52234008326211      0.13330239651290
  H   -1.63974028978183      0.27273485151654     -0.85397012891631
  H   -2.04405459200263      0.37599760197411      0.86067617793213
  H   -0.98294505197695      1.58405897411506      0.13349117824504
