11
Coordinates from ORCA-job run
  C   1.22008705419723     -0.26261240322129     -0.25763777200619
  C   -0.12917225147518     -0.49349708255923      0.39805316707138
  Br  1.10281269132529     -0.24124831490416     -2.20615034536669
  H   -0.54191103506430     -1.44395238318110      0.04765442357777
  H   1.92652667539058     -1.05544458544212     -0.01392692667637
  H   1.64646776103438      0.69916169409742      0.02982887062632
  H   0.06055494304019     -0.60709609869118      1.47287960362781
  C   -1.12912917830805      0.63396932894815      0.17291051255784
  H   -2.05736257155245      0.44145739021496      0.71516752720148
  H   -0.72710674647290      1.58791109736627      0.52516280155323
  H   -1.37276734211480      0.74035135737227     -0.88494186216659
