15
Coordinates from ORCA-job run
  C   0.59491053783230     -0.58880266673953      0.24477527264764
  C   -0.44562182739773      0.30375340662663     -0.47112523535807
  Cl  -0.21778112544565     -1.65525979872107      1.42544704220858
  H   0.13152073973202      0.92460065487817     -1.17050803389527
  N   1.51823711213163      0.25561901692922      0.96872448479826
  H   2.14412966522918     -0.31534254863340      1.52618803473179
  H   2.07852564579859      0.78674807843419      0.30861049911314
  C   1.25780795281982     -1.45924612126400     -0.74456780735314
  N   1.85585684126290     -2.08738586426580     -1.53879643795859
  C   -1.22066609929865      1.21188458876346      0.48525219910942
  H   -1.86811443764404      0.62331100214381      1.13443051609130
  H   -0.52418429631619      1.78108686955841      1.09874760416729
  H   -1.84177665400280      1.89809777220786     -0.09290572494858
  C   -1.35261862631947     -0.52027761967757     -1.27099426376321
  N   -2.10922542838190     -1.15778677024039     -1.90327814959058
