15
Coordinates from ORCA-job run
  C   0.65104581060821     -0.69162523264033     -0.01126380044960
  C   -0.59073173575113      0.02835837349315     -0.58846728253291
  Cl  0.63337258900335     -2.40542516264863     -0.68467654019252
  H   -0.59894719597131     -0.15317725821404     -1.66743938513747
  N   0.65903214900143     -0.63167175835978      1.40245903010062
  H   1.50187419776013     -1.03102927556029      1.79552714346891
  H   -0.15322694798082     -1.09555092118953      1.79438798374636
  C   1.86767994395093     -0.06795756885823     -0.54057944580776
  N   2.83029331257470      0.45143789228973     -0.96859794053460
  C   -0.57059127582445      1.53266946139065     -0.30202611240181
  H   0.29559783464908      1.99532794815201     -0.77804408942837
  H   -0.52549065306448      1.71441818941574      0.77118051481328
  H   -1.47363873365301      1.99450301442905     -0.70490655792565
  C   -1.78745462078413     -0.58856965422429     -0.01318169045000
  N   -2.73881467451851     -1.05270804747522      0.49562817273150
