15
Coordinates from ORCA-job run
  C   0.56251269277418     -0.80379589052903     -0.03203261004257
  C   -0.61615307897481      0.02046908510909     -0.59157650765749
  Cl  0.40720721335067     -2.49305354536818     -0.59557531575096
  H   -0.58286601992926     -0.07447427764173     -1.68264387400979
  N   0.52859991883963     -0.81146151555525      1.40901614397952
  H   1.19854355857848     -1.47914357408007      1.77317513084829
  H   0.76452306111757      0.10671086853963      1.76955141361211
  C   1.81883967768515     -0.27461661473141     -0.59967047138914
  N   2.81877691434867      0.19951130644636     -0.99733611506847
  C   -0.52976478426792      1.50083624310791     -0.20366624067910
  H   -1.33045057647201      2.05236048310962     -0.69852551707074
  H   -0.65724607347714      1.63273848658951      0.87206399841918
  H   0.42429408056566      1.92951438106737     -0.51725180386799
  C   -1.88075096525179     -0.55267362113477     -0.12737880911153
  N   -2.92706561888710     -0.95292181492904      0.22285057778867
