15
Coordinates from ORCA-job run
  C   0.55238912097208     -0.80125310509593     -0.08258124809581
  C   -0.63346645632229      0.05669923133884     -0.57103541360202
  Cl  0.37040402348498     -2.45973608593029     -0.72348767369132
  H   -0.63061949237157      0.01208862486916     -1.66580553010998
  N   0.55532111530781     -0.87876853802345      1.35704803627556
  H   0.80348656191152      0.02033919149065      1.75535391543749
  H   1.23272145098390     -1.56445282039292      1.67087224104481
  C   1.79968449735816     -0.25521742873767     -0.65572563589311
  N   2.81260418427586      0.18785449861954     -1.05631459560647
  C   -0.52177619679716      1.51706331395898     -0.11893533054125
  H   0.42832969960603      1.95073169404182     -0.43772126908157
  H   -0.61983631894646      1.60179141275717      0.96459294386258
  H   -1.32892890798369      2.09825847524661     -0.56709142581776
  C   -1.89085869639260     -0.52815512730036     -0.10168614439432
  N   -2.93045458508656     -0.95724333684215      0.23451713021318
