15
Coordinates from ORCA-job run
  C   0.69291298316730     -0.58085347957361      0.08690805284270
  C   -0.70145043846820     -0.00153884547618     -0.24188278505694
  Cl  1.44202251215774     -1.08794803910237     -1.52210277150210
  H   -1.25111182087676     -0.80531919062033     -0.74807410137786
  N   0.58178173714578     -1.64840051907877      1.00613894936825
  H   -0.00686324632262     -2.39049059635130      0.64722870799052
  H   1.48302800956851     -2.02256827039850      1.27424274521548
  C   1.57078177686510      0.45721065343356      0.63407105506347
  N   2.26316940915275      1.30036054939475      1.06949677730955
  C   -0.67185868806395      1.23891588475095     -1.13735246447974
  H   -1.69260615109283      1.58127768834765     -1.31377739956812
  H   -0.11947792943790      2.04669268218452     -0.65371876915336
  H   -0.20858554436125      1.01237163693931     -2.09660355551969
  C   -1.39527191491978      0.30357947739521      1.01286121745810
  N   -1.98647069451388      0.59871036815512      1.98356434140975
