15
Coordinates from ORCA-job run
  C   0.73175902437089     -0.64724817171653     -0.04551379408602
  C   -0.66491927307290      0.00812201321568     -0.25464799905133
  Cl  1.30308189290504     -1.18224152422827     -1.66330613113222
  H   -1.28034270271668     -0.75546748655836     -0.74631468114781
  N   0.75820169394591     -1.79158680532231      0.82345207700393
  H   0.09656655065421     -2.49235553862072      0.50889653679649
  H   0.54479466737610     -1.52212383228818      1.77771159235374
  C   1.66715045286108      0.35973452809488      0.47042073557185
  N   2.37640459163769      1.19369910721267      0.89627321457909
  C   -0.65615100764730      1.28793993849637     -1.09188705150872
  H   -0.05381726112592      2.05968471519600     -0.60941599299686
  H   -1.67457004475124      1.66460250635905     -1.20010485239764
  H   -0.25223668707003      1.08893973559685     -2.08408604152602
  C   -1.23329392939495      0.26021047294441      1.07181308220502
  N   -1.66162796797190      0.46809034161845      2.14570930533648
