15

C	0.0	0.0	0.0
C	-0.328798	-0.105193	-1.511262
Cl	1.763145	0.0	0.0
H	0.391723	-0.792669	-1.957189
H	-1.321718	-0.529031	-1.613557
C	-0.714431	1.088983	0.658159
N	-0.703958	2.146502	1.210298
N	-0.373021	-1.302105	0.706927
O	-0.394396	-2.322483	0.020993
O	-0.442714	-1.269684	1.93118
C	-0.270065	1.265153	-2.170429
H	-1.069232	1.89758	-1.779797
H	0.682277	1.767467	-1.986526
H	-0.401282	1.166365	-3.252622
H	-2.151586	0.0	0.0
