15

C	0.0	0.0	0.0
C	-0.34118	0.057072	-1.518349
Cl	1.761274	0.0	0.0
H	-1.300974	0.557449	-1.605599
H	0.432188	0.69739	-1.958076
C	-0.634845	1.140865	0.661368
N	-0.636083	2.221339	1.158048
N	-0.365254	-1.241511	0.797274
O	-0.293153	-2.332314	0.233418
O	-0.497644	-1.087588	2.008186
C	-0.410544	-1.248207	-2.29774
H	0.478096	-1.865081	-2.171143
H	-0.515748	-1.002285	-3.360255
H	-1.277436	-1.826499	-1.983824
H	-2.142131	0.0	0.0
