15

C	0.0	0.0	0.0
C	-0.345566	0.107949	-1.516276
Cl	1.761011	0.0	0.0
H	0.437322	0.746981	-1.940631
H	-1.295629	0.628013	-1.586008
C	-0.600818	1.136315	0.696337
N	-0.621426	2.206827	1.20855
N	-0.374745	-1.254085	0.762757
O	-0.317996	-2.330607	0.167601
O	-0.483493	-1.133671	1.981331
C	-0.436502	-1.174639	-2.329624
H	-0.565767	-0.899515	-3.383143
H	0.455825	-1.793779	-2.239851
H	-1.295889	-1.762918	-2.012297
H	-2.145674	0.0	0.0
