17

C	-0.536782	-0.005469	-1.434255
C	0.0	0.0	0.0
Br	0.426526	1.222325	-2.542007
H	1.096555	0.0	0.0
N	-0.409864	-1.393113	-2.051673
O	-1.425746	-1.889429	-2.529697
O	0.706381	-1.877753	-2.025989
N	-2.036523	0.316288	-1.445616
O	-2.691631	-0.279484	-0.600901
O	-2.477382	1.094359	-2.277121
N	-0.425837	-1.190204	0.68496
H	0.281269	-1.460856	1.353416
H	-1.333508	-1.082476	1.113377
N	-0.482518	1.259935	0.604982
H	-0.408266	1.131504	1.608051
H	0.194325	1.981922	0.371642
Br	3.508686	0.0	0.0
