17

C	-0.381954	0.008522	-1.473829
C	0.0	0.0	0.0
Br	0.538842	-1.385114	-2.445353
H	1.09649	0.0	0.0
N	-1.88872	-0.129631	-1.711104
O	-2.577948	0.505896	-0.923832
O	-2.300204	-0.856325	-2.604833
N	0.009777	1.345827	-2.095418
O	-0.870152	1.993625	-2.649713
O	1.183872	1.646106	-1.98687
N	-0.607658	-1.194996	0.588704
H	-0.055076	-2.015679	0.360249
H	-0.591616	-1.088046	1.59525
N	-0.41371	1.231736	0.603646
H	0.156516	1.437493	1.415182
H	-1.397981	1.227386	0.837647
Br	2.756402	0.0	0.0
