17

C	-0.575567	0.010674	-1.416534
C	0.0	0.0	0.0
Br	-2.499426	0.098383	-1.416138
H	1.096189	0.0	0.0
N	-0.065289	1.165268	-2.271466
O	0.726872	1.939565	-1.749527
O	-0.480127	1.205679	-3.424764
N	-0.102638	-1.236541	-2.159412
O	1.0493	-1.146818	-2.564286
O	-0.851695	-2.192859	-2.25048
N	-0.412976	-1.23925	0.609057
H	0.291375	-1.532429	1.271816
H	-1.314127	-1.138615	1.059257
N	-0.492957	1.177871	0.728007
H	0.061031	1.970991	0.418826
H	-0.226932	1.018326	1.694
Br	3.532972	0.0	0.0
