17

C	-0.512633	-0.006027	-1.44223
C	0.0	0.0	0.0
Br	0.41316	-1.30454	-2.495839
H	1.096518	0.0	0.0
N	-2.023323	-0.256589	-1.500094
O	-2.670177	0.216988	-0.574896
O	-2.484426	-0.851038	-2.46326
N	-0.310197	1.370036	-2.067587
O	-1.317078	1.981209	-2.410029
O	0.843926	1.745508	-2.150642
N	-0.476997	-1.258531	0.609109
H	-0.63412	-1.068528	1.591963
H	0.287725	-1.922934	0.563924
N	-0.407988	1.214083	0.653186
H	0.285827	1.475943	1.339081
H	-1.333524	1.151591	1.050207
Br	3.495491	0.0	0.0
