17

C	-0.447698	0.013489	-1.415375
C	0.0	0.0	0.0
Br	0.475675	1.442354	-2.39571
H	1.102646	0.0	0.0
N	-0.05257	-1.207421	-2.248546
O	-0.627162	-1.395319	-3.329574
O	1.060332	-1.661321	-1.947415
N	-1.948958	0.126159	-1.721219
O	-2.632864	-0.716512	-1.110046
O	-2.337755	0.734616	-2.717808
N	-0.440723	-1.215559	0.657066
H	-1.418025	-1.140415	0.919847
H	0.100123	-1.295983	1.513478
N	-0.439972	1.193192	0.720671
H	-0.052707	2.030074	0.303452
H	-1.45459	1.267183	0.719127
Br	2.882226	0.0	0.0
