17

C	-0.5507	-0.01126	-1.424037
C	0.0	0.0	0.0
Br	-2.46295	-0.279284	-1.453112
H	1.091478	0.0	0.0
N	-0.192644	1.302894	-2.115974
O	-1.05406	2.148607	-2.287585
O	0.993679	1.37993	-2.402579
N	0.064411	-1.090526	-2.305873
O	0.790133	-1.915864	-1.771823
O	-0.232445	-1.024842	-3.494545
N	-0.426354	-1.216997	0.677665
H	-1.119772	-1.000033	1.383495
H	0.38321	-1.63599	1.121653
N	-0.384319	1.271361	0.578887
H	-1.31888	1.246603	0.96969
H	0.286946	1.52001	1.29457
Br	3.465642	0.0	0.0
