17

C	-0.474932	0.002352	-1.471096
C	0.0	0.0	0.0
Br	0.604823	-1.111658	-2.576407
H	1.091713	0.0	0.0
N	-1.945094	-0.418521	-1.546839
O	-2.652519	0.080185	-0.67381
O	-2.327724	-1.162828	-2.432773
N	-0.440966	1.405521	-2.060633
O	-1.461711	1.821908	-2.604527
O	0.614701	2.004084	-1.935028
N	-0.442928	-1.28072	0.534032
H	-1.262149	-1.119393	1.110798
H	0.298611	-1.627286	1.133574
N	-0.408661	1.149161	0.775505
H	-1.339173	1.467863	0.549905
H	0.267791	1.894029	0.680036
Br	3.521178	0.0	0.0
