17

C	-0.482508	-0.043152	-1.46595
C	0.0	0.0	0.0
Br	0.162057	1.462554	-2.437332
H	1.097087	0.0	0.0
N	-0.059782	-1.297454	-2.228156
O	0.567181	-2.150686	-1.612601
O	-0.405774	-1.357963	-3.400581
N	-2.008127	-0.102636	-1.479043
O	-2.621675	0.95202	-1.396537
O	-2.490231	-1.231017	-1.477032
N	-0.594822	-1.107545	0.749875
H	-0.201043	-1.034085	1.683068
H	-0.245849	-1.979913	0.369485
N	-0.412957	1.259638	0.572902
H	-1.253448	1.135668	1.121531
H	0.336202	1.632056	1.138032
Br	3.494263	0.0	0.0
