15
Coordinates from ORCA-job run
  C   1.09756117839254      0.09067347859821     -0.18623315793545
  C   -0.34013508006918      0.41359523888502      0.29807025236826
  H   1.49521801161101      0.95818551230224     -0.72795645548830
  H   -0.25033683368353      1.33861034697915      0.89021590238383
  C   1.10281570575035     -1.06096778900673     -1.09427771888975
  N   1.09396667292016     -1.94853829570177     -1.86187340234399
  C   1.96516623566056     -0.15946907357651      0.96988614760701
  N   2.60927433650173     -0.32457671849022      1.93745573592440
  N   -0.81734853125107     -0.72597653081533      1.06142856371732
  H   -0.40360124233545     -0.74771829193841      1.98627568165118
  H   -1.82290225110013     -0.68454496992995      1.16920497025022
  C   -1.25425924992782      0.66522995629486     -0.88960658516019
  H   -2.23631508464206      0.99559894413704     -0.54134635607475
  H   -1.38359382982987     -0.25308558521600     -1.46636356899595
  H   -0.85351003799723      1.44298377747839     -1.54388000901384
