15
Coordinates from ORCA-job run
  C   0.88932560595321     -0.44528154115966     -0.42448308193117
  C   -0.30538415366481      0.09124188927474      0.41747526576127
  H   0.46817970793414     -0.93799721881989     -1.30932868939128
  H   0.12066407941102      0.51246001874910      1.33441357108723
  C   1.63776295607073     -1.44261570807713      0.34462178816959
  N   2.23307968942257     -2.21971164656681      0.99175291939148
  C   1.78528416209441      0.62733813946456     -0.87035940846273
  N   2.46817017860156      1.51293571400632     -1.22750435391625
  N   -1.12929262766932     -1.06109547921657      0.74973246307498
  H   -1.98718462098115     -1.06480097672957      0.21452149950840
  H   -1.35968823788650     -1.08880093564274      1.73164113548193
  C   -1.05501082675622      1.17747103941191     -0.34467627264599
  H   -1.46948009698896      0.76808778282899     -1.27309490859268
  H   -0.41310691629420      2.02307028835801     -0.60009363611989
  H   -1.88431889924648      1.54769863411874      0.26338170858512
