15
Coordinates from ORCA-job run
  C   1.04214631628876     -0.39493580983462      0.25941793354348
  C   -0.37582694143181      0.19180017115625      0.50456063389192
  H   1.33591095098062     -0.96483987537394      1.14966479342790
  H   -0.26139936104227      0.92002606349284      1.32202108429770
  C   2.02554934813115      0.67498505287192      0.06020833227952
  N   2.77645367685821      1.56641041005389     -0.08013271935780
  C   1.03709077456428     -1.31392156784263     -0.88334224878066
  N   1.02913539195729     -2.03570668708237     -1.80870290763468
  N   -1.23905219926541     -0.92918072045195      0.84141475133081
  H   -2.20785518648305     -0.69957621798271      0.66093613914979
  H   -1.15450323266219     -1.17620565435773      1.81989871516881
  C   -0.89784082481273      0.90568285691030     -0.73019453586090
  H   -1.85590825054404      1.38195765125332     -0.50650295214327
  H   -0.20801140044876      1.68330761035818     -1.06333512885714
  H   -1.04788906209005      0.19119671682925     -1.54291189045548
