15
Coordinates from ORCA-job run
  C   1.04495059533958     -0.41052347658373      0.22473929793134
  C   -0.36002752524509      0.18655783487206      0.51662871603030
  H   1.35472717251483     -0.99978852117357      1.09669051365299
  H   -0.21599603838526      0.90105934640944      1.34142784588767
  C   2.03399569774207      0.65317867884338      0.02073407650183
  N   2.78792889644373      1.54207053206411     -0.11895700754047
  C   1.00133374298189     -1.30735525436356     -0.93457350876343
  N   0.96196061213916     -2.01047627367034     -1.87346019849165
  N   -1.22557830102983     -0.93053791823171      0.86029417504848
  H   -2.19611417883540     -0.69023061880305      0.70465728459435
  H   -1.12107252526722     -1.18976224681741      1.83366891791227
  C   -0.90722715494373      0.92466670135126     -0.69270328664332
  H   -1.85536387041146      1.40450952094446     -0.43667671136844
  H   -0.21990798146012      1.70259651505861     -1.03044209443712
  H   -1.08360914158314      0.22503518010006     -1.51302802031479
