14
Coordinates from ORCA-job run
  C   0.99985822544061      0.39823170116827     -0.15143817172601
  C   -0.44590567384389      0.18434797998671     -0.58769601999069
  Br  2.18039028727919     -0.00915640443006     -1.64790935277692
  H   -0.63940976126240      0.51527228024071     -1.60583129091486
  H   1.13043428851834      1.47414996850735      0.00980227963323
  N   1.33180113507481     -0.45733261784470      0.95326640118903
  H   2.31522026197052     -0.37510280960953      1.17692175837137
  H   0.78484861567284     -0.18274613582299      1.76230561516995
  N   -1.40620343848529      0.92689474258895      0.29815945159522
  O   -2.53077418117695      1.08042751907300     -0.16405210954715
  O   -1.00742226850975      1.30044731603262      1.39827564165481
  N   -0.82500392104134     -1.26905451163089     -0.50024304223518
  O   -0.52519875629104     -1.94342912679091     -1.47515595955952
  O   -1.36163481334565     -1.64394990146852      0.53359479913670
