14
Coordinates from ORCA-job run
  C   0.98595205297164      0.42616577469571      0.01504956154469
  C   -0.37755198801403      0.20488381801525     -0.61185642368139
  Br  2.30397661109189     -0.35284733081661     -1.30418021567590
  H   -0.46282905312340      0.69378454954009     -1.57995930970861
  H   1.19447064965190      1.49319483596746     -0.04168010131931
  N   1.06628814691168     -0.01687954626318      1.33880386052978
  H   0.94368111709937     -1.01505967042489      1.43377841000624
  H   1.90182368280771      0.30167987894365      1.80743404767077
  N   -1.41396978766775      0.83189817575597      0.29431711415636
  O   -2.20964387098611      0.10262081190182      0.86628723067174
  O   -1.32572841952085      2.05011950107773      0.37156484461061
  N   -0.75937532756574     -1.22529619048951     -0.81406224731852
  O   -1.51007123448616     -1.43832687280494     -1.76034441554103
  O   -0.33502257917014     -2.05393773509855     -0.01515235594542
