14
Coordinates from ORCA-job run
  C   0.87448679667734      0.47614149220742      0.17294730077144
  C   -0.59086675783009      0.05853691904710      0.14014482874528
  Br  1.59165137997934      0.84678613991173     -1.59268559548746
  H   -0.98319453007395      0.03524005973090      1.15938173817364
  H   0.91813721024263      1.44175757769179      0.68437276719284
  N   1.61823390256197     -0.60713738375704      0.76819577434862
  H   2.61152457038446     -0.41978956251146      0.72386090091545
  H   1.35224407966470     -0.72648901756613      1.74059295169027
  N   -0.76534578257838     -1.32388198280257     -0.39597205848697
  O   -0.50224476793272     -1.51352227908410     -1.57415977729677
  O   -1.13599392658160     -2.15708851721770      0.42826831573438
  N   -1.44893364128593      1.04761547333000     -0.59754905381464
  O   -1.26255073114765      2.21238686072290     -0.26420879764296
  O   -2.27614780208012      0.62744422029717     -1.39218929484311
