14
Coordinates from ORCA-job run
  C   0.81276822781691      0.47109058399765      0.38248609610116
  C   -0.59484236651995     -0.03629270359207      0.10242291343426
  Br  1.79282229284957      0.70134230641632     -1.34965201463151
  H   -1.02130454130753     -0.44217747421879      1.02033055905728
  H   0.73368268823739      1.49142088530609      0.75386518664624
  N   1.45149131237521     -0.35481983051163      1.33182133898232
  H   1.57072455722869     -1.30225872556466      0.99605584021887
  H   2.34569615257029      0.02741770421085      1.60868890245154
  N   -0.58788834224544     -1.16452536812407     -0.89556294977663
  O   -0.02644133929030     -2.17502687006282     -0.48201532520945
  O   -1.10851112361424     -0.99991725776086     -1.98537029879383
  N   -1.54816643335906      1.01676073880596     -0.37450283001491
  O   -2.71766498466484      0.65200671913104     -0.41906750793276
  O   -1.10436610007669      2.11497929196700     -0.68949991053258
