14
Coordinates from ORCA-job run
  C   0.96593096778582      0.50903041532691      0.06768902634819
  C   -0.52719348273596      0.16757049454130      0.18872273448071
  Br  1.50918825991031      0.70990010831072     -1.79017090651942
  H   -0.85951618638268      0.35741880087751      1.21052892468565
  H   1.07958655287787      1.50296904344025      0.50190412550027
  N   1.83763444906210     -0.40568948292129      0.73511507800086
  H   1.75995479043204     -1.34832847441876      0.37733367175194
  H   1.72039718914774     -0.38477349246770      1.73989967897964
  N   -0.83048066738786     -1.26975814189638     -0.07213213789340
  O   -1.55864114053246     -1.81543098795961      0.75559062366688
  O   -0.33055970693059     -1.78858841475349     -1.06354777304800
  N   -1.38665990382300      1.03367760916111     -0.68569630369499
  O   -1.26342512998619      2.23081997822356     -0.45618960368780
  O   -2.11621599143714      0.50118254453588     -1.50904713857054
