14
Coordinates from ORCA-job run
  C   0.98812404243605      0.42048828377328      0.01522989064513
  C   -0.37468103600851      0.20276534332606     -0.61441849871287
  Br  2.30597442655418     -0.37505890225022     -1.29462181776219
  H   -0.45405977434335      0.68551192935550     -1.58609135601400
  H   1.20340458185295      1.48578015932762     -0.04865164562504
  N   1.06173214474547     -0.01409772231114      1.34212741588626
  H   0.93294803575560     -1.01097386104588      1.44284068011788
  H   1.89780705131424      0.30262416480754      1.81109163292480
  N   -1.41028948628119      0.84184266366447      0.28417956264605
  O   -2.21044426828607      0.12060913499146      0.86022750608724
  O   -1.31664386368827      2.06024463541641      0.35209791825812
  N   -0.76407608699279     -1.22661614637695     -0.80786225268657
  O   -1.51309803432140     -1.44190979747927     -1.75503501128112
  O   -0.34669773273691     -2.05220988519887     -0.00211402448369
