13
Coordinates from ORCA-job run
  C   0.85220935571681     -0.25089799562808      0.16414189460921
  C   -0.65083702234904      0.01333197682558      0.25602618654414
  Cl  1.22461968690211     -0.76879797962695     -1.54010246144824
  H   -0.88879586000641      0.18827537896427      1.30919024907969
  H   1.07979742427810     -1.11592377979380      0.78506003050519
  N   1.55252615216739      0.88991332230786      0.62121583723441
  H   2.53570188310600      0.69202764024085      0.75026575194249
  H   1.45465654648994      1.67448627834875     -0.01291174683872
  N   -1.41768709669214     -1.23118033969266     -0.13030468576062
  O   -2.24450627831852     -1.15377929498239     -1.02769145311755
  O   -1.13083640030184     -2.22382063241912      0.52849555028082
  C   -1.05352969602253      1.15730753506569     -0.54870346182766
  N   -1.31231869496989      2.12905789038999     -1.15468169120317
