13
Coordinates from ORCA-job run
  C   0.77932664772370      0.38334760875207      0.29503477491759
  C   -0.57598790624554     -0.32841930041569      0.31769015873034
  Cl  1.49315804109432      0.16063204340758      1.95756574304236
  H   -0.44344472318235     -1.39531658430978      0.50894189767765
  H   0.62081107852314      1.45501800759600      0.18273268366996
  N   1.55580032110530     -0.10964498667242     -0.77444700196729
  H   1.83694301465047     -1.07284232958136     -0.63991743669816
  H   2.37167277086626      0.46093763223603     -0.94731365192588
  N   -1.16122624571898     -0.20914120900299     -1.07157245126330
  O   -1.44817883456387      0.92379554433152     -1.43593472797325
  O   -1.26590210486143     -1.24637502560849     -1.71240915067699
  C   -1.50522711808205      0.25600548761588      1.27532469344095
  N   -2.25874494130897      0.72400311165166      2.04430446902600
