13
Coordinates from ORCA-job run
  C   0.91664680072223     -0.08789614360922      0.47809004964324
  C   -0.61209961622267     -0.22936705890165      0.50242359170785
  Cl  1.65030823843873     -1.71106816864411      0.74658281811511
  H   -0.90716552948345     -0.86647476197406      1.33655475202744
  H   1.18555582589655      0.47278619560019      1.38035987775959
  N   1.36577328155697      0.46625557718681     -0.75055002607322
  H   2.27032460190854      0.90489336043604     -0.66640860609287
  H   0.69948501489099      1.08321419748644     -1.19300748996144
  N   -1.10086519487668     -0.92309857758470     -0.74920345162251
  O   -1.27564963930459     -2.13112306879704     -0.66166149368568
  O   -1.25683853176057     -0.22096677151952     -1.74296624344091
  C   -1.23597267364917      1.08565155704698      0.60018464504603
  N   -1.69950257811689      2.15819366327384      0.71860157657735
