13
Coordinates from ORCA-job run
  C   0.90853998347885     -0.06820557085146      0.46081475627937
  C   -0.61835973260062     -0.24954100981407      0.50784448161434
  Cl  1.71372545248394     -1.64217743090058      0.70402942786129
  H   -0.88377625553877     -0.91115536305679      1.33357009662238
  H   1.17366262293811      0.51921392561000      1.34894502888174
  N   1.30397543355387      0.47421493206258     -0.80304206306244
  H   2.29170069599320      0.69226726476438     -0.80540795439012
  H   0.77244618665319      1.30507271672845     -1.03653160650877
  N   -1.10286102294599     -0.92371330132911     -0.75465724930406
  O   -1.39675990084137     -0.19672124525960     -1.69556064393234
  O   -1.12996353069132     -2.14734187246165     -0.72496463344875
  C   -1.26952425710344      1.04798327761277      0.64975204108371
  N   -1.76180567537965      2.10110367689506      0.81720831830367
