13
Coordinates from ORCA-job run
  C   0.87165521922937     -0.23482555030404      0.03535490393263
  C   -0.62291019873417     -0.06843295811724      0.31124125856622
  Cl  1.09213592251167     -0.40033177704278     -1.76349231832443
  H   -0.76229005333859     -0.10914340831489      1.39534047850905
  H   1.18633775574285     -1.18956373229944      0.45384963224590
  N   1.57645125256011      0.83189295999996      0.64009065815444
  H   2.57337107976995      0.66281232463609      0.64065825151664
  H   1.39183837882184      1.71701189487334      0.18227643434468
  N   -1.38401236766806     -1.25320363316666     -0.23935633526956
  O   -1.00248150022908     -2.33774793242753      0.18479636701260
  O   -2.29709365240918     -1.04741025842065     -1.02600376558033
  C   -1.13797394085233      1.18635241083597     -0.21675404363715
  N   -1.48502789540437      2.24158965974785     -0.59700152147070
