13
Coordinates from ORCA-job run
  C   0.84704529097143      0.00762296332564      0.55592809804469
  C   -0.67834362693721     -0.10255814983544      0.46398587297243
  Cl  1.45395297051080     -1.72158195167849      0.73551368213724
  H   -1.06296145213074     -0.60330758925386      1.35315203615197
  H   1.07734426559015      0.46398327874323      1.51936709372854
  N   1.41693000542114      0.76125861681883     -0.47903487914423
  H   1.24278903685910      0.37343964542148     -1.39551614145932
  H   2.40188736672382      0.93038261047907     -0.33470727101789
  N   -1.10101046065151     -0.98466817708394     -0.69119972891809
  O   -1.85412997777366     -1.91102380552048     -0.42446098453193
  O   -0.65865348347036     -0.69211737416530     -1.79748449401751
  C   -1.29744033967174      1.20813676809963      0.29920700871156
  N   -1.78640959544122      2.27043316464962      0.19524970734255
