13
Coordinates from ORCA-job run
  C   0.88844737180488      0.08485751164407      0.47953523613883
  C   -0.61027689895510     -0.23193953346996      0.50962217763085
  Cl  1.73608904866566     -1.54847883359655      0.45070312305347
  H   -0.83642861218176     -0.84790116182252      1.38068278014815
  H   1.14824602213589      0.49492243172411      1.45624091840166
  N   1.24875450565190      0.98925518265611     -0.52937141453846
  H   1.04091149941330      0.65022425569481     -1.45820072206665
  H   2.21248254641990      1.28174336839998     -0.45528880613406
  N   -1.02171516821928     -1.07468900011778     -0.67842519698816
  O   -1.61237218353605     -2.11696682166493     -0.43053934951488
  O   -0.73400026552873     -0.63912823843552     -1.78868046176534
  C   -1.41183714297307      0.98705387528660      0.51499164573632
  N   -2.04830072269756      1.97304696370158      0.54873006989827
