13
Coordinates from ORCA-job run
  C   0.89574606289881     -0.07577559564460      0.48134460919515
  C   -0.63268609688759     -0.25206501470861      0.49284555413335
  Cl  1.68997173712574     -1.65405922611419      0.73022947320757
  H   -0.91921102956768     -0.91873778258220      1.30735334783050
  H   1.14269489030470      0.50420246716411      1.37954869105446
  N   1.32065819905824      0.47476821545387     -0.76947147512363
  H   2.31003681250266      0.68438433543156     -0.74992708931477
  H   0.80135924141326      1.31294115035898     -1.00448911057288
  N   -1.09120633896036     -0.91567145344036     -0.78492477202321
  O   -1.36355577360867     -0.18141013460914     -1.72657702179721
  O   -1.12119248350935     -2.13946297050828     -0.76463689142100
  C   -1.28006811312066      1.04793791446971      0.62870790162995
  N   -1.75154710764911      2.11294809472915      0.77999678320171
