13
Coordinates from ORCA-job run
  C   0.73541540954036      0.53192124723233      0.13094257417132
  C   -0.51636350713544     -0.29662144432404      0.43214936713091
  Cl  1.53884562593435      0.83393852180229      1.73919882223911
  H   -0.24223337923987     -1.25467610551733      0.87862619489828
  H   0.43668145873547      1.51181889913984     -0.23902480710311
  N   1.52418132121467     -0.13295375897407     -0.83092752959704
  H   2.25204952426847      0.46079316427592     -1.20338771927872
  H   1.93135165287521     -0.98951734736664     -0.47695025908835
  N   -1.16736981591126     -0.61131936483877     -0.89601151990555
  O   -1.16392948585600     -1.78506090367233     -1.24222812687638
  O   -1.60941473961395      0.34713042426131     -1.51603612589617
  C   -1.47268468977347      0.40974164206662      1.27392003965734
  N   -2.24852937503855      0.97380502591486      1.95072908964837
