13
Coordinates from ORCA-job run
  C   0.83650414417411      0.01250554444444      0.57401298315823
  C   -0.68695063979474     -0.08926481790181      0.44973619777360
  Cl  1.43000916279399     -1.71608188258467      0.79281452179897
  H   -1.09573881403110     -0.57039475780013      1.33891952439733
  H   1.04870073998156      0.48314645641763      1.53482603868637
  N   1.43308441029394      0.74752815295028     -0.46039375148923
  H   2.41650274823076      0.90942438746676     -0.29750847375582
  H   1.27679943406030      0.34409147879923     -1.37353792279248
  N   -1.08935726062581     -0.98951048085667     -0.69864010793728
  O   -1.84960406543485     -1.90977311636688     -0.43091389491135
  O   -0.62356951451647     -0.71746659314636     -1.80055725576338
  C   -1.29422972244833      1.22181068748809      0.24760187996867
  N   -1.80215062268336      2.27298494109009      0.12364026086637
