13
Coordinates from ORCA-job run
  C   0.87381471402939     -0.22903634021083      0.02009665040748
  C   -0.62360454913783     -0.10200642469873      0.30070155953815
  Cl  1.10482277015006     -0.23245097363980     -1.78514232955297
  H   -0.76940463660039     -0.24077690627799      1.37582260671995
  H   1.19615033088815     -1.21403777998927      0.35398629561176
  N   1.56519231684647      0.78647620115752      0.72057332877202
  H   1.37361255412919      1.70690230758691      0.34213866220855
  H   2.56379694144128      0.62766342059729      0.71122827247237
  N   -1.37026425204559     -1.23959925911126     -0.35926588738759
  O   -2.28191564259862     -0.97195501711764     -1.12882953641233
  O   -0.97945210122136     -2.35426883735123     -0.03321817354564
  C   -1.14795940710702      1.19046611316573     -0.11582810893832
  N   -1.50278903877370      2.27262349588929     -0.40126333989343
