13
Coordinates from ORCA-job run
  C   0.92050911224402     -0.23670966939306      0.18367976958716
  C   -0.60864406209119     -0.01166780301728      0.15456271599602
  Cl  1.40609131896889     -0.86446260398838     -1.41086395077198
  H   -0.92684191433401      0.26195142835359      1.16551838861229
  H   1.11587397232308     -1.02261420893996      0.91421158116174
  N   1.68454139239885      0.92301031071971      0.50497184953747
  H   1.58330885574496      1.18829563238242      1.47542910509011
  H   1.48387291926950      1.70424116602869     -0.10662297329787
  N   -1.31899173418906     -1.31265361345027     -0.13753829252896
  O   -2.02195473272784     -1.38892791709526     -1.13521273966185
  O   -1.09884037568183     -2.19674637868939      0.68367150382701
  C   -0.98774519669203      1.02960018925447     -0.78786129194264
  N   -1.23217955523335      1.92668346783471     -1.50494566560850
