13
Coordinates from ORCA-job run
  C   0.90015966462892     -0.06013739327685      0.47462262547826
  C   -0.62762016228016     -0.23834760276882      0.50530262857046
  Cl  1.69912063119745     -1.62893799626392      0.76475963972329
  H   -0.90518533558267     -0.88235212295415      1.34090246644952
  H   1.15418823737894      0.54786565054035      1.35205873247241
  N   1.31297603576910      0.45180427557358     -0.79654003324938
  H   0.79095326773384      1.28222701783817     -1.05201065884581
  H   2.30244922715673      0.66197662350634     -0.79288955745150
  N   -1.09707155092762     -0.93807243219822     -0.74901224451738
  O   -1.38170235235077     -0.23051402836964     -1.70739104292876
  O   -1.12295175469322     -2.16091416976887     -0.69497585898555
  C   -1.27703052864836      1.06351436172118      0.61202120653179
  N   -1.74928537938219      2.13088781642085      0.74215209675266
