13
Coordinates from ORCA-job run
  C   0.81024347803012      0.35525198244681      0.24250068123048
  C   -0.58423094012515     -0.26605996174114      0.35857123402098
  Cl  1.56245024433259      0.21664761339350      1.89717052097007
  H   -0.51093199052590     -1.32112691665801      0.63054592997354
  H   0.71273959441576      1.42292387762818      0.05046678181631
  N   1.52059050525542     -0.26585472115011     -0.80581754629631
  H   1.74748617002172     -1.23168089020588     -0.60462347330766
  H   2.36288822165562      0.23809143964257     -1.04597412591870
  N   -1.20528482878008     -0.21866110489195     -1.01915073870945
  O   -1.43370057251219      0.89827032793727     -1.46490300552623
  O   -1.39227156512016     -1.29415420704236     -1.57223344441583
  C   -1.44509060297090      0.44771086118455      1.29223195465465
  N   -2.14488771367687      1.01864169945656      2.04221523150815
