13
Coordinates from ORCA-job run
  C   0.94462227803441     -0.02571878855703      0.50886353296915
  C   -0.59248917038184     -0.25425897845933      0.49644224251357
  Cl  1.69025025208736     -1.65424432608288      0.53387705858329
  H   -0.89728119039121     -0.82888157699463      1.37235087354237
  H   1.16941175160952      0.43095764763682      1.47520758440374
  N   1.50254980252150      0.77462410013615     -0.52017404734481
  H   1.15617949915066      0.52189320688239     -1.43553846355318
  H   1.36104724699619      1.76031892394788     -0.34640329254718
  N   -1.00372000137748     -1.08242437684370     -0.69374727884512
  O   -1.51757386752939     -2.16812269752986     -0.45870057582714
  O   -0.76820041536655     -0.60379234330633     -1.79999723249785
  C   -1.27512359279313      1.03152939907992      0.44189139903153
  N   -1.76867259256003      2.09711981009058      0.42492819957161
