13
Coordinates from ORCA-job run
  C   0.86548924325115      0.25404283871119      0.43975151730992
  C   -0.59184282154494     -0.25981933568543      0.34994326064708
  Cl  1.42188413848520     -0.17981478739255      2.08490101147935
  H   -0.62469362709438     -1.33328687650719      0.54464825247182
  H   0.85075964931906      1.34267141120113      0.37944109055069
  N   1.74440984322071     -0.25843178195344     -0.54835404695453
  H   1.68394227481831      0.24402731643127     -1.42214978894280
  H   1.66813785485384     -1.25636027401291     -0.68895814375095
  N   -1.01895089053656     -0.07017425202359     -1.08159666678780
  O   -1.12525016552107      1.08970783336055     -1.46623093202609
  O   -1.14509261224887     -1.08550122751485     -1.75778332228858
  C   -1.50323568035705      0.46135110037297      1.22613090350527
  N   -2.22555720664540      1.05158803501286      1.93925686478661
