13
Coordinates from ORCA-job run
  C   0.93040557962941     -0.02756021138326      0.53438531973397
  C   -0.60497473650336     -0.26139266033607      0.47798862729262
  Cl  1.68126731287507     -1.65336002208576      0.56375082485966
  H   -0.93137844118940     -0.84593654786258      1.33942310996005
  H   1.12706150726166      0.42125917583167      1.51056345676739
  N   1.51301229183143      0.78488260144038     -0.47125802032125
  H   1.19345868328073      0.53967303861248     -1.39831754202124
  H   1.36301369147613      1.76822414523042     -0.29173316748546
  N   -0.98053602836956     -1.07906583185224     -0.73113417129583
  O   -1.49642293670912     -2.16886312258782     -0.52098830320616
  O   -0.71719725390642     -0.58855239029680     -1.82581320146040
  C   -1.29041580902876      1.02260142032378      0.41761563909604
  N   -1.78629386064781      2.08709040496579      0.39751742808061
