13
Coordinates from ORCA-job run
  C   0.78380992879662      0.43592170195948      0.19111025313703
  C   -0.55336663625550     -0.28159482356120      0.39506877853788
  Cl  1.58072387759987      0.49014953649364      1.82975506439596
  H   -0.38932929638865     -1.30213155597973      0.74722208539342
  H   0.59670510489818      1.47371019008957     -0.08107315026106
  N   1.51872457479177     -0.20957763265960     -0.82489155871411
  H   2.31127058615423      0.33866652295089     -1.12876742406525
  H   1.82824766491285     -1.13485306270662     -0.55508192703166
  N   -1.20582598988783     -0.39457137832819     -0.96417407814717
  O   -1.31706580460611     -1.52256333951756     -1.42544142732633
  O   -1.53328591930377      0.66107055417367     -1.49023723290336
  C   -1.44810525265219      0.43610876431889      1.29317312627494
  N   -2.17450283805947      1.00966452276675      2.01533749070971
