13
Coordinates from ORCA-job run
  C   0.76942606283385      0.47363194205626      0.15907274475354
  C   -0.55239440308479     -0.25637942017186      0.41247856865553
  Cl  1.53644611722704      0.70806770919814      1.79595619593533
  H   -0.36824861660749     -1.23310573406695      0.86476483760997
  H   0.56087349968303      1.47464081423635     -0.21610172113349
  N   1.53734399667507     -0.24754851973587     -0.77868435296172
  H   1.86319620767034     -1.13511025903571     -0.41729831684008
  H   2.32165414943715      0.28857642323558     -1.12275935560969
  N   -1.17889556126572     -0.51790376256872     -0.93840599096514
  O   -1.52391049992351      0.47263101114125     -1.56946842703366
  O   -1.25370214081769     -1.68795569123754     -1.28907630053114
  C   -1.48037642182017      0.51987036839973      1.22399320565188
  N   -2.23341239000710      1.14058511854935      1.87652891246865
