13
Coordinates from ORCA-job run
  C   0.87224965453567     -0.10436463879298      0.61642626844779
  C   -0.67218726756018     -0.11519880883265      0.44401239043409
  Cl  1.35674068774521     -1.80961884516915      0.87305248818961
  H   -1.14848360310454     -0.54690345535875      1.32556509990754
  H   1.06251798448273      0.41523785447790      1.55803808997250
  N   1.64772447972279      0.49780866916481     -0.40670397766156
  H   1.64105382193935      1.50620857324665     -0.33689649545599
  H   1.36248765412931      0.20322395809961     -1.33066713588399
  N   -1.07864474161679     -0.99773223769568     -0.70812165365648
  O   -1.77242726298019     -1.96970738159688     -0.43993104867962
  O   -0.66042052971631     -0.67561335387515     -1.81704594904825
  C   -1.14384591030670      1.24058903535664      0.19617387388717
  N   -1.46676496727036      2.35707063097563      0.02709804954718
