13
Coordinates from ORCA-job run
  C   0.89164719395544     -0.07299617517705      0.48945248179734
  C   -0.63621148548808     -0.25311852730690      0.48788338473015
  Cl  1.68768172127580     -1.64902054786693      0.74738614285921
  H   -0.92812718382847     -0.92006405174497      1.30020897037887
  H   1.12940994730157      0.50869002204280      1.38900786777517
  N   1.32608484689348      0.47686147167715     -0.75837052311634
  H   2.31419287331152      0.69126235965916     -0.72995063717503
  H   0.80478671891237      1.31172524765084     -1.00056907984616
  N   -1.08191947805245     -0.91921855040683     -0.79355054381791
  O   -1.10829001139933     -2.14302861006540     -0.77275773988205
  O   -1.34926472532523     -0.18645785305921     -1.73783168673288
  C   -1.28827899509928      1.04535123558860      0.61619525805040
  N   -1.76271142245735      2.11001397900873      0.76089610497923
