13
Coordinates from ORCA-job run
  C   0.87373538915224      0.08535033856843      0.50927191187580
  C   -0.62624707147764     -0.22531419968155      0.48892521383325
  Cl  1.71635316729176     -1.55023421148184      0.51794685878083
  H   -0.88553882554862     -0.83440845739154      1.35560170232945
  H   1.10072706724153      0.49996835592602      1.49224056190035
  N   1.27130453348459      0.98365939685547     -0.49155427220370
  H   2.23420220187629      1.27013003973301     -0.38802635670999
  H   1.09257874001028      0.64006445594371     -1.42486506384777
  N   -0.99911024864416     -1.07471027032042     -0.70740051388814
  O   -1.59989075051673     -2.11425879731535     -0.47316912834307
  O   -0.67293404457805     -0.64621721451168     -1.80978137576942
  C   -1.42379010072491      0.99588046279597      0.45783342138830
  N   -2.08039005756658      1.96909010087977      0.47097704065411
