13
Coordinates from ORCA-job run
  C   0.94831814209974     -0.15766092128631     -0.11546066495954
  C   -0.55901386407296     -0.17324442329690      0.22704667321541
  Cl  1.10294924171852      0.13277123429830     -1.86607592681704
  H   -0.66120071648693     -0.46512943514305      1.27706500292147
  H   1.33306485794541     -1.15899660052471      0.08143770479557
  N   1.71099206589407      0.80470554983920      0.60855138835998
  H   1.81262212405379      0.55364966704078      1.58275902591325
  H   1.34567239586898      1.74388860294660      0.51296712478715
  N   -1.25660565017118     -1.26415979941753     -0.55043467502986
  O   -2.15570245285610     -0.95639539295152     -1.32005876797388
  O   -0.82332809974180     -2.39012479180215     -0.32899522297860
  C   -1.18070398903413      1.12353454353398      0.00712516310350
  N   -1.61606405521742      2.20716176676331     -0.11492682533741
