13
Coordinates from ORCA-job run
  C   0.88560510204297     -0.13542853439625     -0.11299705837246
  C   -0.57202789841859     -0.21513929329380      0.34179053682806
  Cl  0.89475034749568      0.18647007864982     -1.90389500998311
  H   -0.57225059637530     -0.54442819918456      1.38483114156575
  H   1.32901767042852     -1.12288002500077      0.00519433710148
  N   1.56759955293231      0.81632349407846      0.68058452337422
  H   2.56760688429460      0.76631769042190      0.53961248463410
  H   1.25440321535613      1.76162213225784      0.49228639151823
  N   -1.29233028893469     -1.30105630631359     -0.42531613775747
  O   -2.30980919119767     -1.00864019830946     -1.03698499573046
  O   -0.77066073353203     -2.40671768995419     -0.34188321668855
  C   -1.25218841364178      1.06539248439467      0.21605299396760
  N   -1.73071565045014      2.13616436664992      0.16172400954263
