13
Coordinates from ORCA-job run
  C   0.93844922326940     -0.14926030692058     -0.18704603336328
  C   -0.55334339229127     -0.20394820534117      0.21526322238077
  Cl  1.02777300866126      0.46837158138063     -1.85502842445274
  H   -0.61844302933890     -0.69030249560320      1.19376230720372
  H   1.30495114609551     -1.17638420611962     -0.20166169169904
  N   1.75507411066888      0.64352735217597      0.67150971437275
  H   1.41213868358980      1.59076497136763      0.77032206428606
  H   1.88757334330464      0.21070838492487      1.57571147621791
  N   -1.31107983968670     -1.11350718222154     -0.72296747135966
  O   -2.23403879243639     -0.64850250964457     -1.37665722261061
  O   -0.89785027458372     -2.26826493111801     -0.74099352412871
  C   -1.14971527681377      1.12152593918531      0.27524169522799
  N   -1.56048891043873      2.21627160793428      0.38254388792485
