13
Coordinates from ORCA-job run
  C   0.89322439703628     -0.05581525054044      0.48813230829572
  C   -0.63350118718895     -0.24461225350009      0.49261558799190
  Cl  1.69634343278258     -1.62110872390451      0.78598014115989
  H   -0.91935813156586     -0.89371366600888      1.32147465223822
  H   1.12783177558525      0.55023322150977      1.37230528633903
  N   1.32561314581601      0.46511409434823     -0.77277578093293
  H   2.31121171941080      0.69109448925239     -0.74633920305613
  H   0.79699950931092      1.28833954280667     -1.03768301150791
  N   -1.07845758608336     -0.94333936197607     -0.77084016616757
  O   -1.10905872997430     -2.16619655270906     -0.71800216844885
  O   -1.33784620085209     -0.23486547065686     -1.73589861775380
  C   -1.29542832612297      1.05133526502934      0.59467581127694
  N   -1.77857381815432      2.11353466634953      0.72635516056550
