13
Coordinates from ORCA-job run
  C   0.95870171823086     -0.01494322163741      0.48088091977266
  C   -0.57406990359844     -0.27080672625451      0.51068395172208
  Cl  1.73342044484855     -1.63033701891515      0.46702386623143
  H   -0.84261444259662     -0.86105571172008      1.38801697203589
  H   1.20357804000180      0.43557865030685      1.44520829870383
  N   1.47098580293497      0.80619283368732     -0.55492276908116
  H   1.32714448177545      1.78759637493978     -0.36168762589490
  H   1.09823010178825      0.56259388801220     -1.46211779273715
  N   -1.00425569373009     -1.09252583488370     -0.67711081759569
  O   -1.48451803447771     -2.19328520090121     -0.44098269730651
  O   -0.81505136539339     -0.59429911915848     -1.78364592839362
  C   -1.28008693663095      1.00326094626058      0.49071011955651
  N   -1.79246421315269      2.06003014026382      0.49894350298662
