17

C	-0.565862	0.021857	-1.420614
C	0.0	0.0	0.0
Cl	-2.325419	-0.235086	-1.41433
H	1.093117	0.0	0.0
C	-0.292217	1.305053	-2.059147
N	-0.137802	2.348495	-2.578081
N	0.104562	-1.045553	-2.347793
O	1.266799	-0.780949	-2.604518
O	-0.561511	-1.989553	-2.730231
N	-0.394035	-1.299079	0.63339
O	-0.078641	-2.315513	0.019216
O	-0.975681	-1.275764	1.716335
C	-0.462286	1.181068	0.826525
H	-1.548114	1.23355	0.914472
H	-0.029987	1.092676	1.822304
H	-0.076186	2.097402	0.377201
Br	3.369686	0.0	0.0
