17

C	-0.509457	-0.017835	-1.445317
C	0.0	0.0	0.0
Cl	0.280726	-1.248904	-2.41785
H	1.091413	0.0	0.0
C	-1.962763	-0.128432	-1.55841
N	-3.133096	-0.202919	-1.646547
N	-0.135758	1.377389	-2.04008
O	0.967084	1.501627	-2.536311
O	-0.992708	2.244862	-1.903561
N	-0.422827	-1.257864	0.704643
O	-1.105878	-2.085743	0.100488
O	-0.045238	-1.369554	1.865309
C	-0.480689	1.190852	0.812943
H	-0.023686	2.105503	0.438179
H	-1.569025	1.294631	0.798795
H	-0.134244	1.046021	1.835305
Br	3.371821	0.0	0.0
