17

C	-0.505699	-0.324443	-1.405913
C	0.0	0.0	0.0
Cl	0.281312	-1.77317	-2.049244
H	1.108481	0.0	0.0
C	-1.956184	-0.477235	-1.497701
N	-3.124538	-0.57402	-1.580209
N	-0.12461	0.835945	-2.362557
O	-0.880012	1.02343	-3.309214
O	0.916549	1.421078	-2.117243
N	-0.441749	-1.131356	0.889221
O	-1.62551	-1.134926	1.241142
O	0.398099	-1.963611	1.217371
C	-0.561979	1.298374	0.546648
H	-0.2547	1.392354	1.589542
H	-0.12933	2.137936	0.003488
H	-1.652181	1.328346	0.499981
Br	3.459951	0.0	0.0
