11

C	0.0	0.0	0.0
C	-0.575684	-0.191419	-1.39587
Cl	1.781703	0.0	0.0
H	-1.70674	-0.178404	-1.084262
H	-0.343375	-0.810229	0.638159
H	-0.312949	0.65303	-2.038056
C	-0.448693	1.263901	0.592169
N	-0.655774	2.29327	1.119579
C	-0.141382	-1.433271	-1.998777
N	0.185087	-2.444385	-2.504494
F	-2.656614	0.0	0.0
