11

C	0.0	0.0	0.0
C	-0.567142	0.139275	-1.409489
Cl	1.781599	0.0	0.0
H	-1.694952	0.08512	-1.110508
H	-0.344595	-0.93557	0.432297
H	-0.287057	1.102487	-1.843488
C	-0.446426	1.101402	0.847345
N	-0.657223	2.002289	1.568583
C	-0.131124	-0.940334	-2.267594
N	0.198896	-1.82029	-2.974808
F	-2.645698	0.0	0.0
