11

C	0.0	0.0	0.0
C	-0.359047	0.003322	-1.499875
Cl	1.785353	0.0	0.0
H	0.296793	-0.722066	-1.992525
H	-0.349168	-0.901711	0.487606
H	-0.078207	0.98278	-1.902149
C	-0.466367	1.180123	0.720556
N	-0.579618	2.187167	1.316493
C	-1.737516	-0.302434	-1.91717
N	-2.52249	-0.602525	-2.748213
F	-2.359624	0.0	0.0
