11

C	0.0	0.0	0.0
C	-0.360509	-0.053869	-1.505453
Cl	1.783149	0.0	0.0
H	-0.262458	0.962202	-1.900657
H	-0.34821	-0.879336	0.526805
H	0.403117	-0.653249	-2.011571
C	-0.483491	1.215317	0.648348
N	-0.610623	2.265903	1.160754
C	-1.663307	-0.594475	-1.912163
N	-2.416888	-1.103855	-2.663885
F	-2.338536	0.0	0.0
