11

C	0.0	0.0	0.0
C	-0.463053	0.666929	-1.309802
Cl	1.784033	0.0	0.0
H	-1.480731	1.020856	-1.085141
H	-0.362549	-1.019724	0.060758
H	0.250743	1.43888	-1.614185
C	-0.472304	0.757131	1.16202
N	-0.499471	1.496808	2.076292
C	-0.597494	-0.325569	-2.371687
N	-0.740798	-1.118386	-3.224073
F	-2.448676	0.0	0.0
