11

C	0.0	0.0	0.0
C	-0.590037	0.150976	-1.396363
Cl	1.78135	0.0	0.0
H	-0.341374	1.129126	-1.817482
H	-0.343009	-0.942336	0.421063
H	-1.722692	0.086829	-1.072799
C	-0.441574	1.083112	0.86942
N	-0.636538	1.97278	1.605707
C	-0.173743	-0.90944	-2.285685
N	0.135084	-1.785371	-3.009399
F	-2.675668	0.0	0.0
