11

C	0.0	0.0	0.0
C	-0.398667	-0.08252	-1.490867
Cl	1.78556	0.0	0.0
H	0.387625	-0.628575	-2.024671
H	-0.333898	-0.875494	0.542891
H	-0.404324	0.935654	-1.894063
C	-0.474047	1.209577	0.666133
N	-0.590725	2.245142	1.211283
C	-1.673891	-0.729434	-1.828864
N	-2.413455	-1.336562	-2.520091
F	-2.347859	0.0	0.0
