15
Coordinates from ORCA-job run
  C   -0.88496839045761     -0.41489616746869      0.42264509943899
  C   0.21963202936510      0.50718794379535     -0.06950273669881
  Cl  -2.00664214332559      0.57748099296186      1.47898020365476
  H   -0.21142973368526      1.36451367951770     -0.59038926773718
  H   -0.46264628468497     -1.16128972885991      1.09397301296304
  N   -1.53204697652739     -1.04256765094035     -0.67138903877816
  H   -2.18132254017763     -1.75063777794922     -0.35531576207905
  H   -2.03883173183646     -0.36934800203302     -1.23372038766138
  C   1.25011652077711     -0.22007573396262     -0.91594310129775
  H   2.06028511764623      0.46139760633737     -1.18438709206805
  H   0.78195161974567     -0.59741812075349     -1.82309910944391
  H   1.66568209893983     -1.06187958663661     -0.35977190932178
  N   0.92580067287229      1.09440254845084      1.11502688972683
  O   1.34299083059279      0.30049143270215      1.95489728609620
  O   1.07342891075589      2.31263856483863      1.13799591320625
