15
Coordinates from ORCA-job run
  C   -0.85054552951081     -0.65276686296874     -0.10527497550769
  C   0.28565586825255      0.34423681291361     -0.30711923636748
  Cl  -0.38679477385629     -1.81144179349449      1.24860915652895
  H   -0.06157568961169      1.04762505515190     -1.07217863648829
  H   -0.85453025842875     -1.29200609079842     -0.98922170282107
  N   -2.12329117013199     -0.05419214934473      0.02700674494421
  H   -2.18695898548445      0.47958402052716      0.88255140784887
  H   -2.85878484092848     -0.74694805244400     -0.00578277645552
  C   1.59279318535075     -0.29583782709074     -0.73454063479633
  H   2.32519338572131      0.46661817730225     -0.99020137569094
  H   1.41500259256850     -0.91925386626930     -1.61355784172357
  H   1.99918241742620     -0.92057815753168      0.06004985080576
  N   0.51359354768854      1.21712479725797      0.90698862076030
  O   1.59932369963310      1.78135661857058      0.98517238215844
  O   -0.40926344868849      1.35647931821861      1.70649901680435
