18

C	0.0	0.0	0.0
C	-0.264242	-0.030364	-1.565301
Br	1.911312	0.0	0.0
H	0.342046	-0.890112	-1.859175
N	-0.428125	1.254008	0.71044
O	-0.305227	1.294505	1.931377
O	-0.711313	2.233212	0.008197
N	-0.526366	-1.233187	0.631559
O	-0.586868	-1.326133	1.863812
O	-0.55256	-2.221824	-0.136747
N	0.340809	1.137707	-2.214995
H	0.387889	0.934991	-3.20751
H	-0.271622	1.931448	-2.076236
C	-1.66773	-0.308531	-2.101499
H	-2.32272	0.554807	-1.988414
H	-2.119291	-1.183683	-1.639003
H	-1.543995	-0.513094	-3.178312
H	-1.921404	0.0	0.0
