18

C	0.0	0.0	0.0
C	-0.395064	-0.001126	-1.533016
Br	1.908446	0.0	0.0
H	-1.447947	-0.290492	-1.51584
N	-0.327887	1.387612	0.806033
O	0.604187	2.155365	1.008354
O	-1.478303	1.624028	1.142484
N	-0.693296	-1.065309	0.712704
O	-0.628	-1.012678	1.967955
O	-0.751343	-2.167027	0.071143
N	0.267397	-0.988481	-2.366185
H	1.266292	-0.827606	-2.386332
H	0.11061	-1.876099	-1.894076
C	-0.295017	1.38797	-2.135971
H	0.737717	1.749203	-2.153921
H	-0.664924	1.341088	-3.163159
H	-0.90509	2.101046	-1.575908
H	-1.9656	0.0	0.0
