18

C	-0.646046	-0.011535	-1.399478
C	0.0	0.0	0.0
Br	0.159537	-1.308479	-2.59966
H	1.087678	0.0	0.0
C	-2.144837	-0.204563	-1.367703
H	-2.381751	-1.193565	-0.973771
H	-2.556545	-0.111303	-2.370229
H	-2.593875	0.562601	-0.734287
N	-0.317794	1.356118	-2.005136
O	-1.247081	1.980363	-2.511698
O	0.845271	1.715548	-1.953126
N	-0.442207	-1.273904	0.701272
O	0.121208	-2.317196	0.389584
O	-1.370334	-1.187629	1.514833
N	-0.461188	1.169745	0.687232
H	-1.24783	0.946183	1.283927
H	0.302199	1.530784	1.24576
Cl	3.290496	0.0	0.0
