18

C	-0.551116	0.096904	-1.426097
C	0.0	0.0	0.0
Br	-2.502312	0.239944	-1.358516
H	1.092453	0.0	0.0
C	0.036354	1.312855	-2.112059
H	1.124243	1.234763	-2.056907
H	-0.289229	1.352226	-3.154141
H	-0.289566	2.205122	-1.583472
N	-0.176462	-1.127204	-2.272579
O	-1.043829	-1.906256	-2.642514
O	1.016784	-1.192096	-2.534281
N	-0.440126	-1.306966	0.645157
O	-1.031525	-1.24859	1.722629
O	-0.156766	-2.341798	0.049977
N	-0.384702	1.144095	0.756688
H	-1.276427	1.000372	1.210832
H	0.324063	1.314708	1.458042
Cl	3.236127	0.0	0.0
