18

C	-0.480332	-0.007785	-1.45775
C	0.0	0.0	0.0
Br	0.285595	1.567163	-2.291059
H	1.095243	0.0	0.0
C	-0.125089	-1.212738	-2.308652
H	-0.640547	-2.099334	-1.944055
H	0.951342	-1.373917	-2.241018
H	-0.406551	-1.012788	-3.34439
N	-2.004296	0.118162	-1.462145
O	-2.562097	-0.639409	-0.66713
O	-2.573422	0.85699	-2.253068
N	-0.337816	-1.299189	0.729805
O	-0.953326	-1.223394	1.789839
O	0.083622	-2.342208	0.243453
N	-0.510155	1.135047	0.701744
H	-1.210783	0.835691	1.365588
H	0.252141	1.55748	1.212843
Cl	3.220233	0.0	0.0
