18

C	-0.564341	0.014249	-1.44268
C	0.0	0.0	0.0
Br	0.383319	-1.244074	-2.583925
H	1.08692	0.0	0.0
C	-2.052056	-0.235494	-1.557325
H	-2.607135	0.487118	-0.95418
H	-2.36392	-0.134338	-2.593483
H	-2.286202	-1.237395	-1.205121
N	-0.249444	1.390145	-2.039071
O	0.757065	1.960767	-1.643223
O	-1.0194	1.813006	-2.900933
N	-0.480792	-1.29452	0.616343
O	-1.564248	-1.261293	1.20313
O	0.207947	-2.296805	0.463348
N	-0.436018	1.074133	0.830178
H	-1.386588	1.376255	0.679532
H	0.22214	1.836406	0.76226
Cl	3.326552	0.0	0.0
