18

C	-0.444094	0.004861	-1.477042
C	0.0	0.0	0.0
Br	-0.592689	1.849028	-2.108428
H	1.094043	0.0	0.0
C	0.50381	-0.725123	-2.401833
H	1.50741	-0.334814	-2.220531
H	0.213664	-0.576923	-3.440437
H	0.497039	-1.786818	-2.165493
N	-1.865241	-0.535072	-1.592593
O	-2.181716	-1.111246	-2.625601
O	-2.613661	-0.321464	-0.640446
N	-0.362341	-1.374772	0.600625
O	-0.435348	-2.350666	-0.143372
O	-0.518304	-1.412006	1.816433
N	-0.461309	1.061228	0.806528
H	0.130918	1.144317	1.62029
H	-1.425043	0.931103	1.080448
Cl	3.27211	0.0	0.0
