15
Coordinates from ORCA-job run
  C   0.92192178622728     -0.37213724223947     -0.00212347252310
  C   -0.60915823311979     -0.37641739559680     -0.18305960836414
  H   1.21949634042291     -1.03646092077074      0.81170466713564
  H   -0.89281085474429     -1.28231851452287     -0.72811757204010
  N   1.30624501224468      1.01947364967846      0.42970563969301
  O   0.79263526551820      1.37099544431011      1.48822770604669
  O   2.11430386002871      1.64707644408583     -0.23783085949803
  C   1.58436853438274     -0.73864958511152     -1.24505152566128
  N   2.11491858502878     -1.09162381117424     -2.23148100474464
  N   -1.06843744366382      0.80934862168810     -0.83343721837961
  H   -1.60111228065376      0.58949050023349     -1.66145852416951
  H   -1.64628700265462      1.33582034915163     -0.18850437242211
  N   -1.24111183654690     -0.56175090401456      1.20242436410293
  O   -2.22316697899914      0.12573133502926      1.46253773662586
  O   -0.77180475347101     -1.43757797074668      1.91546404419839
