15
Coordinates from ORCA-job run
  C   0.65188080545099      0.55886915901024     -0.20505452107057
  C   -0.52533199339243     -0.29520496646185      0.26905394975357
  H   0.34439980927145      1.20278470705503     -1.02856291841300
  H   -0.28478582922199     -0.77586762025488      1.22548961309432
  N   1.70597433489598     -0.37185537243288     -0.76707083184614
  O   1.89085449798137     -1.41984116923232     -0.15414801950679
  O   2.30058844037381      0.01290278559289     -1.76358880815788
  C   1.27343267039933      1.31977350968033      0.87279643793019
  N   1.79143359862250      1.89370315249838      1.75687777715214
  N   -0.94550960016069     -1.18009074076327     -0.78748056742252
  H   -0.37385072760202     -2.01590681660916     -0.76729737126537
  H   -1.90566489700637     -1.45699133663043     -0.61628048029940
  N   -1.68743517139234      0.62522556078184      0.57303878116943
  O   -1.48251671432992      1.83464869936930      0.59232145232044
  O   -2.75446922388968      0.06685044839677      0.80090550656158
