15
Coordinates from ORCA-job run
  C   0.85016623408401      0.10880876808152     -0.39193515398950
  C   -0.44622730980721     -0.63987377849055     -0.09406148725462
  H   1.30622510075895     -0.37430312304184     -1.26115884644418
  H   -0.18910472264650     -1.63089160371886      0.28618348048601
  N   1.87400889627709     -0.06046797628152      0.72148707444060
  O   2.05040499313553     -1.21358472689694      1.07741575369526
  O   2.46739682163239      0.93767718461725      1.09593105217455
  C   0.59703763718521      1.51505049864999     -0.67235859033492
  N   0.30080395534273      2.60788046870385     -0.97048251495602
  N   -1.23940409354501     -0.72453449333230     -1.25802634187179
  H   -1.98552594725542     -1.40345695494902     -1.12653897899514
  H   -1.65172981048597      0.16897388314836     -1.49644144778996
  N   -1.14768291287114      0.07077611242321      1.08033103897457
  O   -0.43823066332232      0.34195454571705      2.04553272277112
  O   -2.34813817848234      0.29699119536982      0.96412223909400
