15
Coordinates from ORCA-job run
  C   0.91944880309536     -0.25518388090369     -0.12564483238206
  C   -0.58708568205639     -0.35366109130991     -0.36532721304120
  H   1.28936591735757     -1.18447587270481      0.31649106879783
  H   -0.73496365161108     -1.09322496638470     -1.15762738037293
  N   1.24188718487759      0.81872233875407      0.89729095172435
  O   0.34997311218253      1.08146744089521      1.69833335273157
  O   2.37188924471386      1.28124983391019      0.87905035034643
  C   1.61939648963935      0.03007672202115     -1.37029453263502
  N   2.15735127213030      0.21089205197030     -2.39801248092385
  N   -1.16829282359727      0.87594761892592     -0.72751977886860
  H   -1.26137456678030      1.49268840020661      0.06817956466025
  H   -2.07150027822371      0.75275427447383     -1.16147315233343
  N   -1.21944552743612     -1.04213623799954      0.86870544986074
  O   -0.63518693604258     -2.03481394610989      1.29139266235375
  O   -2.27046255824912     -0.58030268574473      1.28645597008218
