15
Coordinates from ORCA-job run
  C   0.61262504647867      0.53961091653388     -0.14151637669548
  C   -0.54672591729732     -0.38798484871919      0.28437715134210
  H   0.27734093578107      1.21421791198673     -0.93141551041682
  H   -0.24080603587497     -0.99576940853120      1.13520521178612
  N   1.65342591806802     -0.36200757355722     -0.74899958814357
  O   1.79790270772418     -0.28689717714316     -1.96467914131880
  O   2.21105600785638     -1.14016804705139      0.01682908341549
  C   1.17922509060680      1.27436205498666      0.97953848954766
  N   1.60917922036084      1.87335265265425      1.89397875219886
  N   -1.08675896095449     -1.19725240900380     -0.74671439438208
  H   -1.15571291398000     -0.73118862583473     -1.64023387727219
  H   -0.62755337807459     -2.09136119624173     -0.82683050554455
  N   -1.63030823393967      0.53766592324947      0.78532415842040
  O   -2.10409162368501      1.29174251774678     -0.06099625250172
  O   -1.94779786306991      0.46067730892465      1.96613279956457
