15
Coordinates from ORCA-job run
  C   0.87953687820381      0.03910076715230     -0.34139733487008
  C   -0.50685017099960     -0.57512584591233     -0.16541815915106
  H   1.32601849882570     -0.44503036394462     -1.21527991588462
  H   -0.38944746205730     -1.61863637652331      0.13311372227531
  N   1.81230641001429     -0.30362133817614      0.80490752797946
  O   1.74836498063977     -1.46267790123628      1.19302346134698
  O   2.58016246531710      0.56369746043179      1.18879398485438
  C   0.80524885162831      1.47745380307911     -0.55645281919864
  N   0.64993407383455      2.61897011611294     -0.78459645888963
  N   -1.24742212373958     -0.47476922500647     -1.36747815265887
  H   -1.47453604959444      0.48736023821258     -1.59049863547489
  H   -2.10578322933000     -1.00533721796295     -1.31101466138132
  N   -1.19329226222745      0.08808845769818      1.04388141570670
  O   -2.41773965017223      0.05175424179922      1.05341976417301
  O   -0.46750121034292      0.55777318427599      1.91499626117329
