15
Coordinates from ORCA-job run
  C   0.85688940973090      0.11018412155294     -0.37372568742311
  C   -0.44586083666011     -0.64499842047830     -0.09556829953810
  H   1.31514377457811     -0.36346074767528     -1.24608493164949
  H   -0.19273091634178     -1.62395579212909      0.32081015319854
  N   1.87113308910855     -0.06363549534496      0.74029286875960
  O   2.46108072766861      0.93229558989898      1.13168208584756
  O   2.05027834598332     -1.22226953136423      1.08882487628290
  C   0.58658199424080      1.51591059651562     -0.64321404317385
  N   0.23496608500064      2.61244078545320     -0.87457090480316
  N   -1.20454097655877     -0.77014690397464     -1.28122020121973
  H   -1.57427399377538      0.12439380062379     -1.58742829038842
  H   -1.97297324390911     -1.41123365582549     -1.16076310667081
  N   -1.16408602560496      0.09639417036703      1.04896123698560
  O   -2.33183424446645      0.41875452353943      0.87471759094006
  O   -0.48977318899436      0.28932695884100      2.05628665285241
