12

C	0.0	0.0	0.0
C	-0.326425	-0.17463	-1.501003
F	1.375069	0.0	0.0
H	0.201179	0.6305	-2.020031
H	-0.388204	0.944015	0.359362
H	-0.38797	-0.819583	0.58908
N	-1.744353	-0.048851	-2.033192
O	-2.323721	-1.07729	-2.359889
O	-2.066399	1.089349	-2.357601
C	0.225289	-1.436693	-2.003974
N	0.715093	-2.412895	-2.434391
F	-2.372333	0.0	0.0
