12

C	0.0	0.0	0.0
C	-0.325087	-0.174371	-1.50116
F	1.375116	0.0	0.0
H	0.201447	0.631968	-2.019402
H	-0.388344	0.943901	0.35944
H	-0.388058	-0.819778	0.588736
N	-1.742774	-0.051325	-2.033893
O	-2.06641	1.085956	-2.359948
O	-2.320733	-1.081093	-2.358805
C	0.229614	-1.43529	-2.003876
N	0.721947	-2.410563	-2.433527
F	-2.372123	0.0	0.0
