12

C	0.0	0.0	0.0
C	-0.431555	0.16773	-1.440148
F	1.377676	0.0	0.0
H	0.011327	-0.634327	-2.025751
H	-0.375235	-0.936274	0.394622
H	-0.361699	0.823624	0.602097
N	0.243306	1.400078	-1.999518
O	0.140879	2.441249	-1.358266
O	0.839497	1.283782	-3.069408
C	-1.879258	0.286908	-1.741896
N	-2.616629	0.619131	-2.61024
F	-2.439806	0.0	0.0
