16

C	-0.412331	0.025169	-1.445893
C	0.0	0.0	0.0
F	-0.148386	1.260762	-1.979948
H	1.093597	0.0	0.0
H	-0.354774	-0.936807	0.434876
C	0.27292	-1.028426	-2.276274
H	-0.015799	-2.023053	-1.937232
H	0.006723	-0.902866	-3.328945
H	1.349189	-0.896715	-2.133758
N	-1.925811	-0.147163	-1.560004
O	-2.377	-1.196522	-1.102451
O	-2.586734	0.729997	-2.101177
N	-0.616104	1.132191	0.703368
H	-0.450721	0.99775	1.694402
H	-0.076855	1.952567	0.449511
H	3.021299	0.0	0.0
