16

C	-0.486022	0.007254	-1.442901
C	0.0	0.0	0.0
F	-0.090082	-1.138011	-2.081093
H	1.094795	0.0	0.0
H	-0.356979	0.910845	0.486541
C	-1.979956	0.159703	-1.649712
H	-2.327763	1.093604	-1.210154
H	-2.49823	-0.679513	-1.182705
H	-2.205446	0.149116	-2.719456
N	0.157582	1.169251	-2.180846
O	-0.041976	2.275719	-1.683482
O	0.756304	0.946744	-3.222438
N	-0.414167	-1.184259	0.741834
H	-1.347718	-1.49413	0.4994
H	0.240126	-1.926609	0.525131
H	2.949957	0.0	0.0
