16

C	-0.34703	0.118917	-1.477193
C	0.0	0.0	0.0
F	-0.158159	1.410417	-1.900047
H	1.094697	0.0	0.0
H	-0.350237	-0.977354	0.349374
C	0.455231	-0.813812	-2.340794
H	0.200398	-0.678692	-3.395747
H	1.508114	-0.576489	-2.15372
H	0.275412	-1.848151	-2.051978
N	-1.841316	-0.131871	-1.644493
O	-2.203507	-1.30293	-1.754593
O	-2.600501	0.835096	-1.567774
N	-0.495163	1.075683	0.842085
H	0.172944	1.83351	0.788324
H	-1.384239	1.425285	0.506353
H	2.954403	0.0	0.0
