16

C	0.0	0.0	0.0
C	-0.676907	-0.056223	-1.328098
Cl	1.775488	0.0	0.0
H	-1.852441	0.040891	-0.936505
H	-0.322287	0.950274	0.42804
C	-0.484689	-1.139877	0.878057
H	-1.57767	-1.132636	0.835785
H	-0.089113	-2.087516	0.516943
H	-0.157276	-0.986058	1.906613
N	-0.540172	-1.311482	-2.082533
O	-1.391798	-1.50578	-2.950565
O	0.379262	-2.085831	-1.810893
N	-0.255652	1.052356	-2.195051
O	0.261007	0.794921	-3.281992
O	-0.438274	2.16987	-1.738428
H	-2.904432	0.0	0.0
