14

C	-0.474684	0.028133	-1.440537
C	0.0	0.0	0.0
F	0.25666	-0.805901	-2.208987
H	1.092228	0.0	0.0
H	-1.532678	-0.217294	-1.549521
N	-0.324374	1.42743	-2.016832
O	-1.184117	2.232143	-1.664134
O	0.595282	1.635693	-2.794412
N	-0.399219	-1.240281	0.638667
O	-0.163652	-1.337451	1.851334
O	-0.808461	-2.169291	-0.080911
C	-0.399378	1.118099	0.816312
N	-0.630602	2.047384	1.500598
H	2.36231	0.0	0.0
