14

C	-0.367426	0.019943	-1.457235
C	0.0	0.0	0.0
F	0.203744	1.081095	-2.070012
H	1.094948	0.0	0.0
H	-0.068243	-0.908713	-1.942008
N	-1.874652	0.144657	-1.663101
O	-2.27819	0.960527	-2.483589
O	-2.56605	-0.619753	-0.999401
N	-0.314995	-1.258587	0.645366
O	-0.156643	-2.280424	-0.037334
O	-0.53611	-1.248669	1.862077
C	-0.508231	1.139754	0.721004
N	-0.867269	2.124029	1.255964
H	2.376756	0.0	0.0
