15

C	-0.268125	0.013331	-1.506811
C	0.0	0.0	0.0
F	-0.009145	-1.310025	-1.958469
H	1.103819	0.0	0.0
C	-1.677322	0.256475	-1.888978
N	-2.790719	0.448635	-2.208322
N	0.59813	0.962347	-2.072743
H	1.539747	0.82057	-1.684411
H	0.600931	0.916044	-3.083199
N	-0.605698	-1.177395	0.628398
H	-0.053999	-1.967813	0.308993
H	-0.431748	-1.101877	1.625762
C	-0.486949	1.223431	0.616759
N	-0.849136	2.195001	1.17041
H	2.762114	0.0	0.0
