15

C	-0.56879	-0.012811	-1.411527
C	0.0	0.0	0.0
F	-2.001456	0.060553	-1.312943
H	1.093699	0.0	0.0
C	-0.203251	1.194248	-2.179424
N	0.041634	2.165168	-2.791458
N	-0.166456	-1.178722	-2.082793
H	-0.237857	-1.947257	-1.424335
H	-0.728388	-1.332938	-2.908988
N	-0.312503	-1.272705	0.649903
H	0.507742	-1.521313	1.199775
H	-1.120111	-1.202511	1.25521
C	-0.484769	1.158975	0.738793
N	-0.866115	2.063861	1.386645
H	2.636137	0.0	0.0
