15

C	-0.375919	-0.048521	-1.477737
C	0.0	0.0	0.0
F	-1.758162	-0.222286	-1.603018
H	1.093993	0.0	0.0
C	-0.046825	1.225703	-2.151894
N	0.164403	2.244137	-2.694112
N	0.271834	-1.137436	-2.148382
H	1.276095	-0.957397	-2.077615
H	0.10138	-1.939264	-1.541762
N	-0.344701	-1.279334	0.614306
H	-1.197971	-1.221695	1.153832
H	0.425332	-1.531314	1.227791
C	-0.53984	1.156594	0.700492
N	-0.967145	2.065879	1.313966
H	2.662438	0.0	0.0
