15

C	-0.52309	-0.046317	-1.430706
C	0.0	0.0	0.0
F	-0.330136	1.182392	-2.036243
H	1.098987	0.0	0.0
C	0.245946	-1.037063	-2.235298
N	0.709813	-1.861008	-2.932294
N	-1.92907	-0.339604	-1.444383
H	-2.057948	-1.134027	-0.824792
H	-2.222808	-0.604368	-2.378249
N	-0.361421	-1.25576	0.676634
H	-0.93051	-1.072995	1.492835
H	0.518425	-1.658389	0.995536
C	-0.504997	1.178498	0.680676
N	-0.873313	2.112978	1.293121
H	2.631665	0.0	0.0
