15

C	-0.29195	0.009669	-1.505916
C	0.0	0.0	0.0
F	0.036985	-1.262664	-1.998807
H	1.09628	0.0	0.0
C	-1.725938	0.183133	-1.839266
N	-2.864185	0.318264	-2.094491
N	0.497675	1.035459	-2.068501
H	0.486607	0.994008	-3.079758
H	1.453841	0.927448	-1.711212
N	-0.492225	-1.19617	0.662537
H	0.302785	-1.640133	1.109588
H	-1.174596	-0.966063	1.370538
C	-0.462607	1.234873	0.617117
N	-0.848795	2.188266	1.187701
H	2.715117	0.0	0.0
