15

C	-0.551441	0.011317	-1.418265
C	0.0	0.0	0.0
F	-1.983713	0.072981	-1.338222
H	1.093491	0.0	0.0
C	-0.183077	1.233907	-2.161812
N	0.052386	2.19418	-2.794104
N	-0.128544	-1.137467	-2.107171
H	-0.676697	-1.283061	-2.943373
H	-0.196061	-1.920058	-1.465565
N	-0.324713	-1.280928	0.625597
H	-1.153718	-1.222457	1.203125
H	0.478037	-1.534605	1.197239
C	-0.490635	1.150222	0.749975
N	-0.890913	2.043756	1.402172
H	2.642065	0.0	0.0
