15

C	-0.570065	0.008092	-1.410406
C	0.0	0.0	0.0
F	-2.001771	0.094212	-1.311576
H	1.093453	0.0	0.0
C	-0.193072	1.219001	-2.16768
N	0.054472	2.174212	-2.803282
N	-0.177328	-1.15301	-2.094356
H	-0.264137	-1.93036	-1.448017
H	-0.728452	-1.287467	-2.930918
N	-0.309708	-1.282874	0.633313
H	0.520854	-1.545334	1.160229
H	-1.102837	-1.217326	1.257342
C	-0.483883	1.147359	0.756607
N	-0.870285	2.042961	1.414191
H	2.634889	0.0	0.0
