15

C	-0.219088	-0.000647	-1.529655
C	0.0	0.0	0.0
F	0.043143	-1.329154	-1.964619
H	1.098279	0.0	0.0
C	-1.624618	0.230196	-1.938065
N	-2.758336	0.379031	-2.21137
N	0.656184	0.943922	-2.078741
H	1.586667	0.81151	-1.658148
H	0.690677	0.894502	-3.089008
N	-0.477106	-1.157894	0.721535
H	0.193989	-1.901009	0.569344
H	-1.379457	-1.462588	0.37662
C	-0.507464	1.240486	0.573548
N	-0.930921	2.228831	1.04851
H	2.731562	0.0	0.0
