15

C	-0.303341	-0.13212	-1.496511
C	0.0	0.0	0.0
F	-0.032545	-1.459701	-1.824643
H	1.102221	0.0	0.0
C	-1.728993	0.099117	-1.827491
N	-2.852662	0.298025	-2.103367
N	0.545053	0.698745	-2.2916
H	0.195738	1.648985	-2.312232
H	1.47348	0.686199	-1.852731
N	-0.612033	-1.081433	0.777308
H	-0.133271	-1.926104	0.478427
H	-0.336324	-0.940862	1.744897
C	-0.457747	1.302891	0.460773
N	-0.791517	2.367241	0.832365
H	2.754214	0.0	0.0
