15

C	0.0	0.0	0.0
C	-0.426054	-0.033712	-1.500857
Br	1.934047	0.0	0.0
H	0.332107	-0.622677	-2.025289
N	-0.530847	1.051423	0.71483
H	-1.582982	0.849781	0.579567
H	-0.260678	0.97425	1.688355
N	-0.332071	-1.41627	0.586513
O	-0.544959	-1.46359	1.788922
O	-0.287518	-2.370247	-0.1812
C	-0.350113	1.329553	-2.037478
N	-0.264601	2.388662	-2.536714
C	-1.70621	-0.656147	-1.892371
N	-2.441053	-1.2272	-2.614982
F	-2.628326	0.0	0.0
