15

C	0.0	0.0	0.0
C	-0.346668	-0.056205	-1.515122
Br	1.993202	0.0	0.0
H	0.072312	0.891677	-1.877926
N	-0.501706	1.144193	0.602409
H	-0.242356	1.135865	1.583288
H	-1.550208	0.945045	0.497677
N	-0.388906	-1.317368	0.707853
O	-0.43408	-1.263712	1.929775
O	-0.594523	-2.304413	0.016677
C	-1.755851	-0.071515	-1.973039
N	-2.562387	-0.043785	-2.834722
C	0.356855	-1.116649	-2.252836
N	0.926821	-1.895076	-2.922773
F	-2.601815	0.0	0.0
