15

C	0.0	0.0	0.0
C	-0.363107	-0.20727	-1.497533
Br	1.991034	0.0	0.0
H	0.000617	0.723405	-1.951695
N	-0.501779	1.193766	0.496995
H	-0.231623	1.284994	1.470783
H	-1.548996	0.990007	0.416117
N	-0.37832	-1.249495	0.827624
O	-0.566067	-2.298682	0.229404
O	-0.426652	-1.085544	2.039905
C	-1.777445	-0.344288	-1.921453
N	-2.579671	-0.486144	-2.776609
C	0.380325	-1.296004	-2.151095
N	0.987867	-2.093708	-2.762814
F	-2.60765	0.0	0.0
