17

C	-0.413813	-0.034018	-1.47354
C	0.0	0.0	0.0
Br	-2.402097	-0.267162	-1.576375
H	1.097254	0.0	0.0
C	-0.153651	1.244681	-2.129386
N	0.051364	2.230197	-2.735911
C	0.257099	-1.174533	-2.217704
H	1.338947	-1.032419	-2.118739
H	-0.026701	-1.179717	-3.271539
H	-0.018202	-2.114031	-1.741091
N	-0.373339	-1.261247	0.631999
H	0.289074	-1.450089	1.372745
H	-1.303408	-1.200142	1.027303
N	-0.446179	1.23523	0.614799
H	-1.396683	1.145858	0.955381
H	0.166396	1.458419	1.389316
Br	3.513474	0.0	0.0
