17

C	-0.393359	0.049697	-1.482813
C	0.0	0.0	0.0
Br	-2.363543	-0.152473	-1.670531
H	1.110324	0.0	0.0
C	-0.084871	1.352045	-2.070299
N	0.156533	2.40196	-2.54255
C	0.292857	-1.067555	-2.251217
H	0.02596	-1.036954	-3.308968
H	-0.009772	-2.015833	-1.81005
H	1.373161	-0.94354	-2.126913
N	-0.408003	-1.270417	0.570517
H	0.325166	-1.591933	1.189731
H	-1.251436	-1.112463	1.109822
N	-0.553899	1.126175	0.753172
H	0.107946	1.333706	1.494425
H	-0.592128	1.956319	0.173034
Br	3.535619	0.0	0.0
