17

C	-0.579415	-0.004501	-1.430622
C	0.0	0.0	0.0
Br	0.142346	1.516301	-2.442033
H	1.095242	0.0	0.0
C	-0.19267	-1.215583	-2.151694
N	0.02672	-2.183884	-2.77981
C	-2.099773	0.112026	-1.41537
H	-2.374084	1.040801	-0.914111
H	-2.497751	0.119667	-2.431164
H	-2.514491	-0.747669	-0.881123
N	-0.413013	-1.262582	0.615962
H	0.373246	-1.64145	1.130768
H	-1.184972	-1.128078	1.257048
N	-0.419423	1.220446	0.683741
H	0.381097	1.598665	1.175089
H	-1.147863	1.027298	1.360738
Br	3.516227	0.0	0.0
