17

C	-0.565734	-0.001784	-1.43304
C	0.0	0.0	0.0
Br	0.081947	1.587824	-2.416664
H	1.099918	0.0	0.0
C	-0.077675	-1.16734	-2.165737
N	0.23169	-2.109115	-2.796612
C	-2.090343	0.012016	-1.454718
H	-2.458832	0.01728	-2.481244
H	-2.454691	0.889886	-0.923286
H	-2.44348	-0.89023	-0.950749
N	-0.445679	-1.235096	0.626188
H	0.328406	-1.655951	1.121997
H	-1.198788	-1.031728	1.270587
N	-0.530731	1.157905	0.73449
H	-0.019666	1.1743	1.61277
H	-0.23762	1.999012	0.245126
Br	3.563338	0.0	0.0
