14

C	0.0	0.0	0.0
C	-0.577898	0.122049	-1.383529
F	1.393767	0.0	0.0
H	-0.225436	-0.658853	-2.058894
H	-0.342353	0.837548	0.600793
H	-1.695233	0.089718	-1.166056
C	-0.424448	-1.315214	0.619257
H	-0.05062	-2.139718	0.003569
H	-1.516222	-1.30825	0.664294
H	0.026895	-1.396852	1.610714
N	-0.237796	1.410641	-2.025347
O	-0.350166	2.442999	-1.360215
O	0.121112	1.3925	-3.206427
F	-2.876699	0.0	0.0
