14

C	0.0	0.0	0.0
C	-0.302199	-0.173307	-1.493783
F	1.393762	0.0	0.0
H	0.411499	0.458224	-2.031543
H	-0.367312	0.957051	0.362445
H	-0.142091	-1.212803	-1.774359
C	-0.466161	-1.149747	0.853985
H	-0.063161	-2.084517	0.450587
H	-0.106462	-1.025115	1.880345
H	-1.561334	-1.094188	0.793382
N	-1.621218	0.194239	-2.08442
O	-1.888011	1.387136	-2.147633
O	-2.229334	-0.694471	-2.675957
F	-2.681065	0.0	0.0
