14

C	0.0	0.0	0.0
C	-0.616384	-0.1342	-1.368716
F	1.389877	0.0	0.0
H	-0.37487	0.715452	-2.006446
H	-0.32458	0.99303	0.326386
H	-1.72728	-0.165168	-1.097645
C	-0.475095	-1.003691	1.029817
H	-0.106504	-2.000821	0.794047
H	-1.567953	-0.956661	0.996138
H	-0.099548	-0.704687	2.013754
N	-0.21028	-1.323232	-2.141711
O	-0.159983	-2.419371	-1.580831
O	0.020181	-1.166246	-3.346783
F	-2.90487	0.0	0.0
