14

C	0.0	0.0	0.0
C	-0.609781	-0.24968	-1.345775
F	1.393642	0.0	0.0
H	-1.720494	-0.152469	-1.098092
H	-0.316361	0.991126	0.323658
H	-0.347984	-1.219791	-1.768534
C	-0.489487	-1.043506	0.979182
H	-0.085585	-0.838492	1.974363
H	-0.155094	-2.039047	0.666958
H	-1.582769	-0.965157	0.962128
N	-0.216771	0.758524	-2.349404
O	-0.06032	0.377743	-3.514511
O	-0.108515	1.933392	-1.994148
F	-2.909696	0.0	0.0
