14

C	0.0	0.0	0.0
C	-0.309023	-0.162369	-1.487235
F	1.393711	0.0	0.0
H	-0.260251	-1.210024	-1.773264
H	-0.358338	0.96616	0.351241
H	0.449414	0.408232	-2.026632
C	-0.544103	-1.119611	0.834721
H	-0.235507	-1.009766	1.879021
H	-0.186664	-2.080977	0.449473
H	-1.644438	-0.982951	0.707795
N	-1.587916	0.357488	-2.024873
O	-2.246596	-0.404452	-2.727221
O	-1.776664	1.560688	-1.901321
F	-2.805419	0.0	0.0
