14

C	0.0	0.0	0.0
C	-0.613329	-0.020809	-1.376853
F	1.39029	0.0	0.0
H	-1.723013	-0.076388	-1.114661
H	-0.325729	0.961984	0.407793
H	-0.369342	0.877573	-1.941334
C	-0.475843	-1.087559	0.940215
H	-0.108899	-2.061668	0.61957
H	-1.568864	-1.03541	0.90978
H	-0.099561	-0.874264	1.946139
N	-0.200568	-1.143572	-2.240656
O	0.090839	-0.881924	-3.414018
O	-0.203633	-2.287909	-1.782451
F	-2.904574	0.0	0.0
