13

C	-0.425338	0.011158	-1.461639
C	0.0	0.0	0.0
Br	-2.378997	-0.003149	-1.660088
H	1.095105	0.0	0.0
H	-0.101947	0.972893	-1.868463
C	0.142564	-1.047551	-2.286747
N	0.55441	-1.847272	-3.042967
N	-0.433281	-1.234822	0.729516
O	-0.516262	-2.26372	0.069233
O	-0.610268	-1.133545	1.938051
C	-0.484414	1.182996	0.693178
N	-0.848885	2.177302	1.201603
Br	3.24968	0.0	0.0
