13

C	-0.444441	-0.019251	-1.462929
C	0.0	0.0	0.0
Br	0.111678	1.63215	-2.328349
H	1.094922	0.0	0.0
H	0.087781	-0.826273	-1.965381
C	-1.886325	-0.188378	-1.606975
N	-3.050801	-0.31641	-1.701947
N	-0.381139	-1.308166	0.648157
O	-0.506189	-1.3176	1.865482
O	-0.463429	-2.280986	-0.096983
C	-0.556279	1.106006	0.758967
N	-1.001154	2.02297	1.343166
Br	3.287081	0.0	0.0
