13

C	-0.409207	0.233851	-1.447167
C	0.0	0.0	0.0
Br	-2.357426	0.25264	-1.673224
H	1.108367	0.0	0.0
H	-0.080281	1.245511	-1.696115
C	0.176098	-0.682779	-2.417357
N	0.615289	-1.33631	-3.289859
N	-0.432813	-1.329229	0.529512
O	-0.504928	-2.248249	-0.279817
O	-0.618873	-1.413428	1.739006
C	-0.489538	1.066259	0.85854
N	-0.874953	1.974571	1.496397
Br	3.243282	0.0	0.0
