13

C	-0.436137	-0.181126	-1.454475
C	0.0	0.0	0.0
Br	0.112802	1.37193	-2.491718
H	1.091824	0.0	0.0
H	0.110149	-1.029562	-1.864563
C	-1.872441	-0.375409	-1.603663
N	-3.031044	-0.52508	-1.728975
N	-0.381614	-1.225451	0.790209
O	-0.498314	-1.09991	2.002125
O	-0.477835	-2.275063	0.157758
C	-0.55369	1.182891	0.633969
N	-1.004126	2.154555	1.117096
Br	3.268959	0.0	0.0
