13

C	-0.443147	0.011112	-1.462113
C	0.0	0.0	0.0
Br	0.299041	1.535426	-2.408051
H	1.109377	0.0	0.0
H	-0.054605	-0.881274	-1.959644
C	-1.944091	-0.140617	-1.573578
N	-2.673039	-1.053379	-1.396914
N	-0.258762	-1.223634	0.736711
O	-0.021371	-2.30388	0.083372
O	-0.103927	-1.153466	2.005869
C	-0.617809	1.184894	0.719788
N	-1.715871	1.427743	1.076811
Br	2.790704	0.0	0.0
