13

C	-0.543848	0.016195	-1.430003
C	0.0	0.0	0.0
Br	0.177686	-1.484489	-2.4405
H	1.091616	0.0	0.0
H	-1.625151	-0.127789	-1.412544
C	-0.227138	1.265016	-2.109611
N	-0.049783	2.275335	-2.683598
N	-0.500765	-1.252551	0.690281
O	0.272997	-1.813151	1.449199
O	-1.66241	-1.583929	0.457478
C	-0.531559	1.133221	0.747437
N	-0.981928	2.054811	1.320884
Br	3.330583	0.0	0.0
