13

C	-0.476388	0.001905	-1.436866
C	0.0	0.0	0.0
Br	-2.406664	0.230598	-1.709322
H	1.094398	0.0	0.0
H	-0.029397	0.879556	-1.91426
C	-0.013815	-1.176263	-2.169729
N	0.310018	-2.028994	-2.911953
N	-0.37446	-1.288925	0.713806
O	-1.55932	-1.607762	0.74415
O	0.552998	-1.901514	1.233184
C	-0.47335	1.127468	0.773481
N	-0.691058	1.98947	1.549639
Br	2.744781	0.0	0.0
