13

C	-0.47072	0.105265	-1.447807
C	0.0	0.0	0.0
Br	-0.287212	-1.63202	-2.338584
H	1.089007	0.0	0.0
H	-1.534061	0.3332	-1.504848
H	-0.35667	0.895182	0.51932
N	0.290598	1.083128	-2.17859
H	0.051256	2.007066	-1.83597
H	1.280604	0.931736	-1.99448
N	-0.616627	-1.139844	0.715333
O	0.098944	-2.023106	1.171877
O	-1.849871	-1.114453	0.790732
Br	3.536309	0.0	0.0
