13

C	-0.429534	0.037649	-1.455379
C	0.0	0.0	0.0
Br	-0.335536	-1.914305	-2.120988
H	1.090714	0.0	0.0
H	-1.489569	0.238709	-1.591766
H	-0.438695	-0.829083	0.545971
N	0.376697	0.933258	-2.152401
H	1.364176	0.806187	-1.948304
H	0.199172	0.965701	-3.143215
N	-0.515785	1.249455	0.63298
O	0.246581	2.197485	0.788725
O	-1.714104	1.245806	0.934503
Br	3.531901	0.0	0.0
