13

C	-0.49545	0.031091	-1.419748
C	0.0	0.0	0.0
Br	-2.595415	0.002031	-1.331505
H	1.092243	0.0	0.0
H	-0.33668	0.999565	-1.8843
H	-0.373364	-0.864164	0.547882
N	0.02187	-1.0085	-2.174792
H	-0.051288	-1.917465	-1.744191
H	-0.287829	-1.022481	-3.132762
N	-0.444711	1.197684	0.752321
O	-0.789662	1.031422	1.919212
O	-0.401845	2.281891	0.174318
Br	3.48308	0.0	0.0
