16

C	-0.396449	0.01331	-1.466546
C	0.0	0.0	0.0
F	-1.803604	0.03382	-1.556442
H	1.097626	0.0	0.0
N	0.107571	1.14775	-2.184082
H	1.121091	1.035213	-2.219578
H	-0.059692	1.924469	-1.545637
C	0.022673	-1.237487	-2.141309
N	0.299742	-2.23687	-2.690828
N	-0.478692	-1.169063	0.724222
H	-1.21023	-1.649915	0.215185
H	0.300862	-1.805944	0.847943
N	-0.423826	1.273163	0.579199
H	0.308274	1.550797	1.225289
H	-1.263488	1.107845	1.120685
H	2.844596	0.0	0.0
