16

C	-0.631317	-0.018946	-1.377373
C	0.0	0.0	0.0
F	-2.065368	-0.093723	-1.157316
H	1.093	0.0	0.0
N	-0.298986	1.122789	-2.120298
H	-0.350936	1.916676	-1.490328
H	-0.896773	1.228085	-2.928462
C	-0.337295	-1.246626	-2.141494
N	-0.170437	-2.184693	-2.826977
N	-0.398591	-1.202808	0.701925
H	-1.322622	-1.115214	1.106605
H	0.284999	-1.390159	1.425327
N	-0.343223	1.2931	0.608287
H	-1.179672	1.216646	1.174378
H	0.439728	1.553425	1.19993
H	2.829315	0.0	0.0
