16

C	-0.380731	0.002613	-1.476168
C	0.0	0.0	0.0
F	-0.184808	1.287692	-1.984219
H	1.102841	0.0	0.0
N	0.435107	-0.897441	-2.244392
H	0.218777	-1.830611	-1.908304
H	1.397112	-0.712283	-1.940491
C	-1.817974	-0.314152	-1.671236
N	-2.952763	-0.577208	-1.816492
N	-0.409899	-1.282097	0.547576
H	0.304439	-1.597526	1.193508
H	-1.284355	-1.158327	1.046526
N	-0.605173	1.123847	0.714253
H	-0.052233	1.250387	1.558496
H	-0.442733	1.957457	0.159051
H	2.916696	0.0	0.0
