16

C	-0.536655	-0.019445	-1.431277
C	0.0	0.0	0.0
F	-0.169678	-1.199178	-2.06271
H	1.099092	0.0	0.0
N	-1.973427	0.032564	-1.394849
H	-2.198739	0.779775	-0.742802
H	-2.349184	0.255492	-2.308767
C	0.033593	1.085698	-2.245328
N	0.36066	1.998188	-2.909448
N	-0.449493	-1.168303	0.733618
H	0.327118	-1.819966	0.754021
H	-1.232271	-1.605834	0.262304
N	-0.519409	1.233856	0.622773
H	-0.725654	0.971345	1.579863
H	0.25786	1.889251	0.662744
H	2.883204	0.0	0.0
