16

C	-0.457066	0.072158	-1.443073
C	0.0	0.0	0.0
F	-1.85953	0.223374	-1.449125
H	1.094307	0.0	0.0
N	0.10393	1.180398	-2.160264
H	1.092643	0.972834	-2.287988
H	0.066783	1.94949	-1.495444
C	-0.18355	-1.185352	-2.171972
N	-0.03989	-2.148552	-2.825643
N	-0.454232	-1.226721	0.625507
H	-1.388246	-1.126085	1.007042
H	0.188258	-1.463062	1.371627
N	-0.360898	1.270908	0.628432
H	-1.276654	1.217647	1.059112
H	0.334856	1.473228	1.338306
H	2.848782	0.0	0.0
