16

C	-0.532276	0.075856	-1.43141
C	0.0	0.0	0.0
F	0.034512	-0.973304	-2.17827
H	1.099657	0.0	0.0
N	-1.953611	-0.020657	-1.415335
H	-2.15433	-0.84252	-0.849156
H	-2.3123	-0.139276	-2.354853
C	-0.138456	1.327751	-2.113315
N	0.129075	2.312096	-2.69367
N	-0.522362	-1.25841	0.562397
H	-0.702214	-1.050398	1.537752
H	0.244905	-1.925072	0.536196
N	-0.446779	1.129731	0.791507
H	0.298897	1.814172	0.812406
H	-1.281475	1.549139	0.403039
H	2.891815	0.0	0.0
