17

C	0.0	0.0	0.0
C	-0.191868	-0.048601	-1.563338
Cl	1.793096	0.0	0.0
H	0.37593	-0.920262	-1.888713
C	-0.506337	1.281751	0.629604
H	-1.59717	1.274977	0.539046
H	-0.232828	1.288112	1.687753
H	-0.085896	2.168115	0.151486
N	-0.510736	-1.222658	0.54845
H	-1.53274	-1.182539	0.441215
H	-0.321531	-1.223212	1.546503
C	0.341517	1.152239	-2.203875
N	0.796091	2.102379	-2.721645
N	-1.570033	-0.301449	-2.152919
O	-2.174905	0.655616	-2.611747
O	-1.899054	-1.479334	-2.196183
Cl	-3.731825	0.0	0.0
