17

C	0.0	0.0	0.0
C	-0.184952	0.073284	-1.583836
Cl	1.788569	0.0	0.0
H	0.466368	-0.702007	-1.991184
C	-0.517363	1.235521	0.700539
H	-1.604171	1.26894	0.573676
H	-0.057753	2.140301	0.303389
H	-0.282879	1.146281	1.762709
N	-0.540006	-1.169987	0.590661
H	-1.555144	-1.029139	0.663193
H	-0.381139	-1.982978	0.006277
C	0.225551	1.360308	-2.134172
N	0.59985	2.381231	-2.578719
N	-1.527824	-0.305951	-2.170267
O	-1.746714	-1.513705	-2.176718
O	-2.219702	0.572485	-2.660616
Cl	-3.728579	0.0	0.0
