16

C	0.0	0.0	0.0
C	-0.479051	0.020873	-1.445564
F	1.412116	0.0	0.0
H	-1.586154	-0.009479	-1.364284
N	-0.55061	1.084331	0.711405
H	-1.582964	0.935037	0.554682
H	-0.386298	0.939517	1.704276
C	-0.318603	-1.342847	0.57556
N	-0.475274	-2.372411	1.12032
N	0.080889	-1.058683	-2.179671
H	1.074825	-0.910189	-2.304233
H	-0.359567	-1.133881	-3.086777
N	-0.109529	1.374284	-2.03696
O	0.961037	1.443248	-2.650139
O	-0.903069	2.299362	-1.903799
H	-2.920456	0.0	0.0
