16

C	0.0	0.0	0.0
C	-0.485438	0.013819	-1.455867
F	1.408385	0.0	0.0
H	-1.585185	0.060294	-1.378041
N	-0.537902	1.099719	0.695447
H	-0.34005	0.998605	1.686808
H	-1.578439	0.959882	0.565285
C	-0.324194	-1.343986	0.572844
N	-0.447825	-2.408511	1.056195
N	-0.040742	-1.081417	-2.265118
H	-0.645008	-1.875215	-2.095845
H	0.914669	-1.327534	-2.038205
N	-0.001018	1.289858	-2.080921
O	1.149213	1.291318	-2.520001
O	-0.776289	2.240716	-2.124243
H	-2.91354	0.0	0.0
