16

C	0.0	0.0	0.0
C	-0.479371	0.025247	-1.446082
F	1.411877	0.0	0.0
H	-1.584227	-0.008074	-1.369802
N	-0.543706	1.0919	0.705059
H	-1.585645	0.948172	0.566056
H	-0.355485	0.968213	1.695443
C	-0.321298	-1.340156	0.57858
N	-0.475821	-2.365978	1.130086
N	0.087176	-1.047472	-2.185857
H	1.078346	-0.887096	-2.312108
H	-0.358031	-1.126819	-3.089678
N	-0.109197	1.385573	-2.02635
O	-0.933008	2.290693	-1.957479
O	0.997301	1.477978	-2.566356
H	-2.923448	0.0	0.0
