16

C	0.0	0.0	0.0
C	-0.481361	0.081936	-1.455138
F	1.407827	0.0	0.0
H	-1.582011	0.1147	-1.381903
N	-0.544312	1.060997	0.747005
H	-0.352515	0.909918	1.732902
H	-1.585195	0.918981	0.603607
C	-0.324927	-1.372349	0.503642
N	-0.449726	-2.460762	0.929847
N	-0.019576	-0.967286	-2.316877
H	0.942558	-1.202367	-2.102269
H	-0.605876	-1.781362	-2.178645
N	-0.004832	1.39222	-2.011699
O	1.150377	1.427277	-2.43928
O	-0.7905	2.336887	-2.014003
H	-2.907133	0.0	0.0
