16

C	0.0	0.0	0.0
C	-0.447342	-0.000606	-1.470606
F	1.405335	0.0	0.0
H	-1.558514	0.033936	-1.390932
N	-0.53325	1.005934	0.836202
H	-1.555493	0.760124	0.84738
H	-0.489638	1.890318	0.339391
C	-0.36361	-1.326157	0.565436
N	-0.543174	-2.392911	1.020489
N	0.046585	-1.134641	-2.161476
H	-0.347183	-1.188558	-3.090559
H	1.054239	-1.085063	-2.23611
N	0.008071	1.308991	-2.109789
O	0.867112	1.251485	-2.994247
O	-0.522701	2.35567	-1.731934
H	-2.938694	0.0	0.0
