16

C	0.0	0.0	0.0
C	-0.548035	-0.003403	-1.424707
F	1.405636	0.0	0.0
H	-1.644716	-0.050841	-1.291296
N	-0.502065	1.143036	0.670534
H	-0.241117	1.125583	1.653082
H	-1.540667	1.049752	0.577909
C	-0.328309	-1.305257	0.631904
N	-0.449912	-2.329523	1.192035
N	-0.04081	-1.040441	-2.280252
H	0.898821	-1.298778	-2.004279
H	-0.656115	-1.842192	-2.230046
N	-0.242835	1.330121	-2.062592
O	-1.190872	1.983839	-2.493568
O	0.940611	1.647836	-2.165537
H	-2.965	0.0	0.0
