16

C	0.0	0.0	0.0
C	-0.541554	0.033177	-1.416447
F	1.404116	0.0	0.0
H	-1.654508	-0.052793	-1.229095
N	-0.461406	1.132606	0.738434
H	-0.957281	0.892376	1.588908
H	0.301933	1.781195	0.879731
C	-0.398021	-1.282236	0.61778
N	-0.651779	-2.302279	1.136911
N	0.021666	-1.017725	-2.223005
H	-0.490361	-1.07842	-3.093538
H	0.996847	-0.824408	-2.417045
N	-0.331134	1.387288	-2.038717
O	0.500739	2.174825	-1.583792
O	-0.995649	1.600511	-3.052301
H	-3.034381	0.0	0.0
