14

C	-0.3794	-0.009455	-1.463023
C	0.0	0.0	0.0
F	0.075931	-1.170059	-2.07823
H	1.09417	0.0	0.0
H	-0.348169	0.950512	0.422684
C	-1.848009	0.023652	-1.680941
N	-3.017755	0.043928	-1.79059
C	0.210919	1.143364	-2.174851
N	0.647063	2.049909	-2.779799
C	-0.563737	-1.195583	0.748754
H	-0.187662	-1.171516	1.774157
H	-0.198718	-2.119678	0.29656
H	-1.659885	-1.228218	0.783056
F	2.607564	0.0	0.0
