14

C	-0.345951	0.004558	-1.458765
C	0.0	0.0	0.0
F	-1.736706	-0.029508	-1.712138
H	1.094196	0.0	0.0
H	-0.369087	-0.942592	0.419467
C	0.15248	1.225483	-2.126849
N	0.478731	2.217423	-2.662884
C	0.222144	-1.178273	-2.136287
N	0.597771	-2.145215	-2.685714
C	-0.536608	1.214129	0.740772
H	-1.620343	1.343408	0.647671
H	-0.291441	1.116614	1.801011
H	-0.041196	2.121187	0.384318
F	2.592032	0.0	0.0
