14

C	-0.351161	-0.007682	-1.458205
C	0.0	0.0	0.0
F	-1.742941	0.028939	-1.705381
H	1.094197	0.0	0.0
H	-0.368777	0.943611	0.417825
C	0.215973	1.17238	-2.140668
N	0.589666	2.137025	-2.695184
C	0.141677	-1.231016	-2.124609
N	0.463033	-2.225093	-2.659613
C	-0.535916	-1.212012	0.744821
H	-1.620292	-1.339818	0.655684
H	-0.286927	-1.112492	1.804157
H	-0.042707	-2.120548	0.388966
F	2.593778	0.0	0.0
