14

C	-0.356878	-0.018956	-1.456371
C	0.0	0.0	0.0
F	-1.749757	0.01848	-1.697735
H	1.094505	0.0	0.0
H	-0.367198	0.946807	0.411807
C	0.209326	1.154402	-2.151086
N	0.584366	2.113277	-2.714688
C	0.130735	-1.24842	-2.1158
N	0.450336	-2.245921	-2.645596
C	-0.533268	-1.205744	0.756661
H	-1.618158	-1.333247	0.674333
H	-0.042787	-2.117431	0.404944
H	-0.277992	-1.098321	1.813749
F	2.59398	0.0	0.0
