14

C	-0.353759	0.035881	-1.456493
C	0.0	0.0	0.0
F	-1.745871	0.00644	-1.701962
H	1.094093	0.0	0.0
H	-0.369193	-0.950131	0.401247
C	0.140465	1.270195	-2.102083
N	0.468859	2.26629	-2.628908
C	0.209401	-1.132732	-2.162232
N	0.578394	-2.092	-2.729399
C	-0.529911	1.199701	0.76875
H	-0.287171	1.074779	1.826896
H	-0.02662	2.110977	0.435124
H	-1.612179	1.339386	0.676924
F	2.592834	0.0	0.0
