14

C	-0.359968	0.026932	-1.453978
C	0.0	0.0	0.0
F	-1.753632	-0.017134	-1.692098
H	1.094029	0.0	0.0
H	-0.36528	-0.950113	0.406722
C	0.120396	1.261942	-2.109031
N	0.493593	2.239046	-2.641721
C	0.211552	-1.135956	-2.163422
N	0.628711	-2.055072	-2.762726
C	-0.533352	1.200372	0.764716
H	-0.042892	2.114123	0.418172
H	-1.618143	1.328434	0.683352
H	-0.277673	1.087165	1.820748
F	2.590392	0.0	0.0
