16
Coordinates from ORCA-job run
  C   0.60011208015849      0.18420314176106     -0.46140578607011
  C   -0.63424914640519     -0.16564156617668      0.37455320342233
  Br  0.40120946010327     -0.21794761647634     -2.32305980849954
  H   -0.37812400592982     -0.10470642660610      1.43265523688208
  N   0.86076288744699      1.56440409004226     -0.29447495892960
  H   1.60307518665352      1.89012972545137     -0.89987563128648
  H   1.04969480323489      1.79779793772414      0.67462251437612
  N   1.78243963827109     -0.67555903908010      0.13220267526631
  O   1.87449497028945     -0.56899835081889      1.35280094670160
  O   2.54484138382213     -1.26116348278388     -0.61118202609372
  N   -1.14723191550512     -1.55805401312448      0.15022121986995
  O   -2.34885589385258     -1.73587802569373      0.28550710243480
  O   -0.28577298108467     -2.40308065481283     -0.06100283854991
  N   -1.72044600839211      0.83470375066840      0.13487020581955
  O   -2.31067207775155      0.78212194629261     -0.93398229122399
  O   -1.89327838105879      1.63766858363317      1.04755023588058
