16
Coordinates from ORCA-job run
  C   0.75045720684933      0.29133039212621     -0.34674737066697
  C   -0.63413453413002     -0.38082414225589     -0.32733197493525
  Br  0.99286364192635      0.90463838135512     -2.20186209275292
  H   -0.66000166179191     -1.26421639171814     -0.96299908186202
  N   1.02648569878655      1.31613584718143      0.55689277223210
  H   0.27349176410656      1.98545294482648      0.62784146327031
  H   1.35751502564069      0.97843304244717      1.44946973901071
  N   1.78423193506023     -0.84312211446789     -0.15306759995076
  O   2.72250631731333     -0.61221821190948      0.59021240219918
  O   1.57190944964617     -1.87104873334192     -0.77877978555253
  N   -1.71325403160318      0.54759782878950     -0.78080622740081
  O   -1.77613106657678      1.63157572340884     -0.20688010189098
  O   -2.44777881162291      0.14052185781805     -1.67188534435724
  N   -0.99963269312764     -0.81872503234287      1.07145507131820
  O   -2.18845911871247     -0.83800806173713      1.35591822622084
  O   -0.06106912176432     -1.16852333017949      1.77856990511815
