16
Coordinates from ORCA-job run
  C   0.70646512165546      0.27145230532506     -0.24718722833086
  C   -0.65181163909730     -0.41214411393178     -0.32150756807789
  Br  1.04721819953047      1.00501200038318     -2.09653576843942
  H   -0.62049511943804     -1.27342522804126     -0.98538187737761
  N   0.82029052709836      1.15288961411980      0.80872672034212
  H   0.13652318387937      1.89709733443297      0.76817024435441
  H   1.76566351748541      1.48137706910562      0.95209690123191
  N   1.80096168581593     -0.80751569428153     -0.12648117002959
  O   1.62132691572279     -1.84658162251901     -0.73912437428403
  O   2.77785350323934     -0.49711677891727      0.53734318949622
  N   -1.73729761564991      0.50119776164917     -0.79087882418384
  O   -2.55080132710306      0.00794824538166     -1.56320382112158
  O   -1.74545667081988      1.64234560970561     -0.34027286525180
  N   -1.03900705340307     -0.91081141687284      1.05807218888403
  O   -2.12328093935263     -0.57036324552685      1.50747450537975
  O   -0.20815228956325     -1.64036184001253      1.57768974740818
