16
Coordinates from ORCA-job run
  C   0.69042811504093      0.27847066995761     -0.36994173227160
  C   -0.71227602590208     -0.33651004825490     -0.31835100425638
  Br  1.08707739644550      0.60561399413821     -2.32714069979793
  H   -0.91860513900532     -0.96349432572487     -1.18247127505297
  N   0.90006851821519      1.34998732177625      0.47562029152178
  H   0.39627099371363      2.17931834546777      0.19544181899306
  H   1.88519999750591      1.52329759266201      0.62879426168220
  N   1.68999297353931     -0.83044919730310     -0.01714063439381
  O   2.73838366922014     -0.47837833267235      0.50054471679004
  O   1.36314765996035     -1.96649031882909     -0.33220331923632
  N   -1.79603876478885      0.72094208191572     -0.26092816206708
  O   -2.85617724359156      0.37121170883988      0.23666158564402
  O   -1.54530219925070      1.80640768284431     -0.77028014949520
  N   -0.91739415835781     -1.21109397356785      0.89300809381072
  O   -1.53543650315623     -2.24820766598426      0.69040056111250
  O   -0.47133928958842     -0.80062553526535      1.95698564701697
