16
Coordinates from ORCA-job run
  C   0.66611849647444      0.24232089993959     -0.33000360692317
  C   -0.62315390932359     -0.11005245914450      0.41585360831473
  Br  0.38928406754909      0.18276473347716     -2.27770032038423
  H   -0.50174340314221      0.10802511571299      1.47557023644889
  N   1.19239510867642      1.45565504164770      0.15481715392328
  H   2.01533480503201      1.72808937982626     -0.37076225970778
  H   0.50051187852356      2.19515884794342      0.14530975920335
  N   1.73505728942841     -0.80329967823759      0.04304124257232
  O   1.52335509356128     -1.43453758324673      1.07048089535994
  O   2.74482693444361     -0.81571213448465     -0.63925856942146
  N   -1.06270751645987     -1.54018511142617      0.31971793569390
  O   -0.64111671959337     -2.22639712958709     -0.59919928637927
  O   -1.85172905631601     -1.86929672786891      1.19779124695462
  N   -1.76290287810221      0.74414265485799     -0.08524317223447
  O   -2.68302855539264      0.19807782524995     -0.67197109619613
  O   -1.64050163535893      1.94224632534053      0.15155623277548
