16
Coordinates from ORCA-job run
  C   0.67562896524692      0.35078937501063     -0.39331075684014
  C   -0.67049546751488     -0.37586726881381     -0.39614324731873
  Br  1.12530836564553      0.87239781134950     -2.20866849719791
  H   -0.75704143287361     -1.08533220474771     -1.21314946559450
  N   0.70539283012233      1.46725409665341      0.44045458604234
  H   0.48637345161477      1.21375842616882      1.39709054074511
  H   1.59254658293829      1.95068787315523      0.39105022871416
  N   1.74069718431558     -0.75026113515145     -0.05087771480511
  O   1.49821513044549     -1.88791018958352     -0.43347857806457
  O   2.73175785799642     -0.36152128152868      0.54503101618051
  N   -1.79323251265343      0.62059875081295     -0.50809486232310
  O   -2.13612854044796      0.89864072890818     -1.64920343956502
  O   -2.24246302497880      1.06477954724704      0.54047856561470
  N   -0.91348760447827     -1.14185736407873      0.87378251966027
  O   -0.24877229651398     -0.84682185796606      1.86233139724051
  O   -1.79429948886442     -1.98833530743579      0.80270770751146
