16
Coordinates from ORCA-job run
  C   0.68720978254480      0.17858626054296     -0.35995535844943
  C   -0.73672088934920     -0.33806757636669     -0.20492309370416
  Br  0.82754076697747      0.82745695143203     -2.26415330583267
  H   -0.90619869870309     -1.21116671656814     -0.83140483280482
  N   1.05998085542612      1.06186197313186      0.63409144008536
  H   2.04820425461866      1.27549585872861      0.62423354740695
  H   0.47147268197131      1.88415829825381      0.66060592593739
  N   1.65459405911966     -1.02195288492039     -0.35887980240605
  O   2.74930235249217     -0.81803072466720      0.14245788958502
  O   1.26650744183562     -2.04313969323401     -0.90100628223913
  N   -1.76765591726391      0.68867709121578     -0.54499003812135
  O   -2.74194385671994      0.27886525379072     -1.16513838443354
  O   -1.57337060138508      1.83328938885330     -0.14821607608007
  N   -0.96459718078857     -0.75525621984449      1.23557105735090
  O   -1.91658682819530     -0.27084026856070      1.82927609630736
  O   -0.15673822258073     -1.57093699178746      1.65343121739824
