16
Coordinates from ORCA-job run
  C   0.68000498325177      0.26500107437713     -0.43834974570163
  C   -0.58616380161616     -0.10432754845593      0.36653727458091
  Br  0.34753491895704      0.26933974987157     -2.32323231509896
  H   -0.42709018327335      0.10777978977634      1.42198202858821
  N   1.28812415545305      1.49955525517828     -0.06656704920408
  H   0.74337939082075      2.28768419172344     -0.39132811377890
  H   1.40214915622527      1.55247602978134      0.94040832451786
  N   1.72539065292711     -0.80544086622251     -0.05367714702751
  O   1.78252648723923     -0.97548608778032      1.16375585035427
  O   2.42754912093281     -1.31085422342578     -0.90391569095866
  N   -1.00477129834446     -1.54084857820436      0.29193120436345
  O   -0.51049881500221     -2.24428980294310     -0.58090367973424
  O   -1.82657534226873     -1.86992962424860      1.13932386023021
  N   -1.74542786264792      0.73982225184282     -0.08059940521247
  O   -2.64471553138687      0.20363367927811     -0.71070307553207
  O   -1.65241603126731      1.92488470945155      0.22433767961360
