16
Coordinates from ORCA-job run
  C   0.79117749976872      0.20830910680277     -0.46041517930750
  C   -0.72394869082772     -0.08589954431358     -0.37474211194743
  Br  1.43837595549596     -0.46110313772754     -2.16293382463267
  H   -1.21500727946375      0.33441022520086     -1.25181305583151
  N   1.13061137894130      1.56994531357385     -0.35786429965678
  H   0.76937642487433      2.13637282309361     -1.11111986705025
  H   0.96173319585456      1.95750022499013      0.56000286299987
  N   1.53363900493333     -0.56665297247737      0.64829097542431
  O   1.29460497429701     -1.76521907372519      0.68727495724148
  O   2.28218807558240      0.06731854639887      1.37120864501208
  N   -1.32284035973224      0.58608948534840      0.82231361295872
  O   -2.48297268676556      0.96125669561614      0.69396142363254
  O   -0.61967940266117      0.68132291653847      1.82382416127567
  N   -1.16700739693769     -1.53540085415057     -0.30388945433622
  O   -1.50425805517297     -1.96368461595812      0.79040159599770
  O   -1.16699263818652     -2.12556513921072     -1.37350044177996
