16
Coordinates from ORCA-job run
  C   0.76143458770942      0.13479824892819     -0.51153994927027
  C   -0.75264358073460     -0.08587487974291     -0.29324019984418
  Br  1.20180599129024     -0.76537566265477     -2.15738990647870
  H   -1.29453510077049      0.35981159832792     -1.12643501745930
  N   1.20235683327242      1.48522144143722     -0.58670821441221
  H   0.97190434240074      1.90254823248692     -1.47835511174911
  H   0.81047184377783      2.03547545859648      0.16946060464367
  N   1.54164952274052     -0.46567791217420      0.67189615584166
  O   2.44783791365050     -1.24970004149295      0.48086296686718
  O   1.17390542057763      0.01292702317298      1.74072657144467
  N   -1.30014379030258      0.57914809647342      0.95502214969256
  O   -1.24250021713451      1.80303014729559      0.94065386758786
  O   -1.77481959955333     -0.13015723305153      1.82657008957825
  N   -1.14481183336121     -1.52585366237182     -0.23080996958829
  O   -2.21387645819055     -1.80557355195091     -0.76329999787363
  O   -0.38703587537205     -2.28274730327963      0.36458596101987
