16
Coordinates from ORCA-job run
  C   0.68146237478034      0.29643823486588     -0.24340012633894
  C   -0.65046453018860     -0.17356448045355      0.34632585267001
  Br  0.56679608655681      0.45253137299864     -2.20151155299847
  H   -0.62393457050716     -0.07388992232426      1.43014234829110
  N   1.12210344330747      1.46035052621212      0.41739084483973
  H   0.40701863744367      2.17750195160933      0.42913739273587
  H   1.97465210559485      1.81262004663155     -0.00320814028355
  N   1.75370603084151     -0.75564835019576      0.10069679307461
  O   2.81581183470110     -0.66273878165243     -0.48972050588338
  O   1.48277554735102     -1.50323387968143      1.03162126415815
  N   -1.02756707103040     -1.59493164800925      0.05478685988453
  O   -0.50753719101631     -2.15982752762804     -0.89578560454573
  O   -1.87411999377816     -2.04307298716546      0.81920645109109
  N   -1.77646326818051      0.70036503803474     -0.15224298949619
  O   -1.71933967098839      1.86624899617531      0.22713102301146
  O   -2.62589976488724      0.19885141058262     -0.87056991021030
