18

C	-0.260895	0.066456	-1.506094
C	0.0	0.0	0.0
Cl	-2.017886	0.446088	-1.881541
H	1.099549	0.0	0.0
C	0.642216	1.129218	-2.112694
H	0.59231	1.129353	-3.203311
H	0.334647	2.096477	-1.716292
H	1.647508	0.895161	-1.737993
C	-0.006693	-1.228712	-2.141772
N	0.194171	-2.265096	-2.659691
C	-0.594811	-1.212748	0.687707
H	-1.692057	-1.207043	0.643268
H	-0.234537	-2.145642	0.247785
H	-0.292013	-1.204279	1.73851
N	-0.387998	1.27772	0.594791
H	-1.283156	1.202866	1.065025
H	0.322467	1.516118	1.27554
F	2.677979	0.0	0.0
