18

C	-0.286632	-0.049104	-1.511545
C	0.0	0.0	0.0
Cl	0.100866	1.570163	-2.240812
H	1.102813	0.0	0.0
C	0.66791	-1.054207	-2.154622
H	0.360679	-2.071709	-1.903289
H	1.652651	-0.844725	-1.713261
H	0.674112	-0.948989	-3.241363
C	-1.695694	-0.303135	-1.822288
N	-2.818929	-0.546164	-2.07591
C	-0.512509	-1.257495	0.683358
H	-0.074807	-2.158699	0.252017
H	-0.200161	-1.23129	1.732664
H	-1.606134	-1.325506	0.648376
N	-0.651398	1.163552	0.614338
H	-0.570795	1.046833	1.619704
H	-0.082521	1.975371	0.392419
F	2.726728	0.0	0.0
