18

C	-0.544994	0.016179	-1.435512
C	0.0	0.0	0.0
Cl	0.061806	-1.422829	-2.350117
H	1.100127	0.0	0.0
C	-2.066208	0.013025	-1.519146
H	-2.438696	0.860012	-0.940742
H	-2.453692	-0.917691	-1.102342
H	-2.401563	0.099884	-2.555382
C	-0.035658	1.199286	-2.139413
N	0.297638	2.14437	-2.75071
C	-0.48856	-1.183282	0.81629
H	-1.551693	-1.109567	1.089659
H	-0.32843	-2.130738	0.297364
H	0.104429	-1.209671	1.734615
N	-0.406832	1.287154	0.599321
H	0.454673	1.748271	0.882508
H	-0.968599	1.135396	1.427622
F	2.63797	0.0	0.0
