18

C	-0.264257	0.04246	-1.506734
C	0.0	0.0	0.0
Cl	-2.024376	0.408079	-1.884156
H	1.097838	0.0	0.0
C	0.632752	1.101277	-2.130396
H	0.581353	1.087039	-3.22107
H	0.320069	2.071984	-1.746522
H	1.640725	0.877712	-1.754951
C	-0.004234	-1.260368	-2.124476
N	0.199199	-2.294211	-2.645491
C	-0.592569	-1.202506	0.707288
H	-1.690249	-1.196998	0.668225
H	-0.23502	-2.141184	0.277625
H	-0.28388	-1.18042	1.756494
N	-0.388085	1.286077	0.577679
H	-1.269474	1.210351	1.072689
H	0.336925	1.546452	1.235008
F	2.677117	0.0	0.0
