18

C	-0.187894	0.198838	-1.514225
C	0.0	0.0	0.0
Cl	-1.927835	0.627599	-1.955564
H	1.104179	0.0	0.0
C	0.747903	1.298099	-2.002129
H	0.766214	1.360891	-3.091431
H	0.418317	2.256446	-1.59629
H	1.730883	1.036737	-1.579555
C	0.093614	-1.038978	-2.243276
N	0.320267	-2.022351	-2.846131
C	-0.642541	-1.257228	0.543384
H	-1.735983	-1.223948	0.455817
H	-0.387813	-1.334691	1.602026
H	-0.276231	-2.15144	0.033649
N	-0.39322	1.168745	0.780769
H	0.373476	1.829998	0.767282
H	-1.223556	1.613368	0.403509
F	2.686015	0.0	0.0
