18

C	-0.54248	0.187912	-1.424818
C	0.0	0.0	0.0
Cl	0.105499	-1.110633	-2.511703
H	1.102426	0.0	0.0
C	-2.063401	0.159351	-1.51897
H	-2.432206	-0.824811	-1.225172
H	-2.459475	0.921332	-0.844327
H	-2.395076	0.366237	-2.538487
C	-0.063282	1.463132	-1.968025
N	0.232937	2.497148	-2.440812
C	-0.481812	-1.278348	0.659587
H	0.098054	-1.409759	1.574897
H	-1.547956	-1.255779	0.923829
H	-0.297598	-2.151716	0.032814
N	-0.424008	1.195672	0.753277
H	-0.978638	0.93471	1.560175
H	0.424649	1.635523	1.088949
F	2.635132	0.0	0.0
