18

C	-0.265537	-0.031623	-1.50706
C	0.0	0.0	0.0
Cl	-2.020349	0.332237	-1.902395
H	1.103465	0.0	0.0
C	0.635334	0.988247	-2.184841
H	0.333975	1.978516	-1.844301
H	0.572668	0.921792	-3.271609
H	1.643365	0.77598	-1.808101
C	-0.01789	-1.364279	-2.061194
N	0.179644	-2.424059	-2.526354
C	-0.595163	-1.165076	0.765344
H	-1.692622	-1.162813	0.720029
H	-0.235025	-2.124166	0.38666
H	-0.292425	-1.089207	1.813677
N	-0.387827	1.314169	0.512414
H	0.331167	1.601617	1.166203
H	-1.27591	1.264832	0.99967
F	2.673565	0.0	0.0
