18

C	-0.269406	-0.043369	-1.518618
C	0.0	0.0	0.0
Cl	0.039228	1.600714	-2.223832
H	1.10221	0.0	0.0
C	0.746055	-0.990745	-2.160058
H	1.715176	-0.740753	-1.700567
H	0.488327	-2.026316	-1.923067
H	0.757734	-0.874053	-3.245654
C	-1.655605	-0.375547	-1.850684
N	-2.757034	-0.712051	-2.088496
C	-0.511996	-1.263848	0.670862
H	-1.607401	-1.308358	0.6699
H	-0.161979	-1.26997	1.708239
H	-0.11285	-2.163892	0.201517
N	-0.652488	1.160043	0.620032
H	-0.626558	1.00639	1.622574
H	-0.054308	1.961841	0.451612
F	2.731204	0.0	0.0
