18

C	-0.55387	0.014563	-1.432737
C	0.0	0.0	0.0
Cl	0.032456	-1.43587	-2.345609
H	1.100157	0.0	0.0
C	-2.077517	0.026588	-1.503779
H	-2.434724	0.882417	-0.927298
H	-2.473443	-0.897003	-1.077263
H	-2.42116	0.109132	-2.538142
C	-0.036387	1.189943	-2.143955
N	0.312007	2.139999	-2.743388
C	-0.494608	-1.174745	0.823198
H	-0.345056	-2.125203	0.305916
H	-1.555484	-1.090465	1.101366
H	0.103085	-1.204374	1.738121
N	-0.40024	1.292007	0.597424
H	-0.920375	1.141695	1.452069
H	0.463492	1.764731	0.841233
F	2.642796	0.0	0.0
