18

C	-0.267326	0.007621	-1.505535
C	0.0	0.0	0.0
Cl	-2.031512	0.363025	-1.889811
H	1.103869	0.0	0.0
C	0.626288	1.052203	-2.157638
H	1.635878	0.839873	-1.780583
H	0.569831	1.011439	-3.24765
H	0.31416	2.031453	-1.796131
C	-0.010744	-1.310331	-2.09156
N	0.199118	-2.362815	-2.57204
C	-0.593587	-1.183641	0.737153
H	-1.691844	-1.173548	0.704138
H	-0.278033	-1.139131	1.784034
H	-0.243211	-2.134	0.326968
N	-0.384898	1.3004	0.546906
H	-1.262003	1.235438	1.051524
H	0.342587	1.580992	1.192675
F	2.672276	0.0	0.0
