18

C	-0.211691	-0.095711	-1.545388
C	0.0	0.0	0.0
Cl	0.13586	1.520033	-2.294669
H	1.102219	0.0	0.0
C	0.807171	-1.079304	-2.119546
H	0.857409	-1.003325	-3.206532
H	1.763262	-0.820412	-1.635725
H	0.527399	-2.101302	-1.850939
C	-1.596138	-0.408103	-1.906518
N	-2.720139	-0.685125	-2.122423
C	-0.522177	-1.255907	0.680376
H	-0.069956	-2.162146	0.272917
H	-0.248347	-1.189249	1.734065
H	-1.613974	-1.344729	0.61323
N	-0.552109	1.168523	0.653956
H	0.017643	1.969726	0.416188
H	-1.499968	1.351408	0.338436
F	2.713031	0.0	0.0
