18

C	-0.21731	-0.024802	-1.546913
C	0.0	0.0	0.0
Cl	0.120518	1.626755	-2.220926
H	1.103187	0.0	0.0
C	0.803712	-0.974903	-2.172586
H	1.761303	-0.735445	-1.682346
H	0.84778	-0.847468	-3.256218
H	0.529392	-2.009563	-1.951483
C	-1.60058	-0.327203	-1.916928
N	-2.722632	-0.600127	-2.14445
C	-0.520575	-1.284823	0.626098
H	-1.614459	-1.363042	0.571031
H	-0.081568	-2.173633	0.168321
H	-0.230529	-1.271644	1.678073
N	-0.550282	1.137518	0.708745
H	0.011619	1.951682	0.496627
H	-1.50356	1.327401	0.411735
F	2.712537	0.0	0.0
