18

C	-0.181967	0.004134	-1.529075
C	0.0	0.0	0.0
Cl	-1.910246	0.417879	-2.029338
H	1.103719	0.0	0.0
C	0.783177	1.004049	-2.153667
H	0.480375	2.01591	-1.877643
H	1.759908	0.777587	-1.695578
H	0.801149	0.922379	-3.242026
C	0.062347	-1.324822	-2.091679
N	0.258461	-2.382549	-2.565284
C	-0.657309	-1.169594	0.697845
H	-0.288742	-2.125849	0.319361
H	-1.748814	-1.143657	0.587547
H	-0.42173	-1.104588	1.761388
N	-0.382526	1.265391	0.620227
H	-1.196247	1.675355	0.175138
H	0.398847	1.903561	0.537962
F	2.689213	0.0	0.0
