16

C	0.0	0.0	0.0
C	-0.266834	0.014666	-1.556159
Br	1.942657	0.0	0.0
H	0.507807	0.684694	-1.944522
N	-0.367451	1.276955	0.669385
O	-0.267025	2.293381	-0.022332
O	-0.522139	1.264787	1.893771
C	-0.497143	-1.143286	0.723399
N	-0.582802	-2.163702	1.316529
N	-1.508852	0.572453	-2.043827
H	-2.228143	-0.136264	-1.966366
H	-1.373686	0.810325	-3.024549
N	-0.107984	-1.375589	-2.000875
H	0.078252	-1.363417	-2.998095
H	0.698573	-1.796109	-1.550952
H	-1.84443	0.0	0.0
