15

C	-0.444665	-0.11729	-1.438745
C	0.0	0.0	0.0
F	-0.085518	1.065151	-2.106749
H	1.096999	0.0	0.0
H	-1.529647	-0.197597	-1.551004
N	0.213639	-1.256498	-1.978639
H	1.213641	-1.160532	-1.796457
H	0.053011	-1.3135	-2.976682
N	-0.471511	-1.116418	0.808198
H	-0.644234	-1.887741	0.173645
H	0.321652	-1.393333	1.379809
N	-0.545537	1.233836	0.63103
O	0.026775	1.624409	1.64733
O	-1.561357	1.752454	0.159036
H	2.814652	0.0	0.0
