15

C	-0.580766	-0.001224	-1.400317
C	0.0	0.0	0.0
F	0.05599	-1.031333	-2.118762
H	1.090273	0.0	0.0
H	-0.353009	0.924172	-1.925906
N	-1.988052	-0.222834	-1.341961
H	-2.118582	-1.089849	-0.829872
H	-2.354892	-0.336841	-2.278101
N	-0.43612	-1.157276	0.7449
H	-1.013484	-0.840002	1.515309
H	0.403652	-1.566945	1.146681
N	-0.376754	1.266884	0.661028
O	-0.219357	2.306682	0.014654
O	-0.736297	1.244878	1.846307
H	2.641043	0.0	0.0
