15

C	-0.501956	-0.050303	-1.437311
C	0.0	0.0	0.0
F	-0.093305	-1.243651	-2.010706
H	1.091054	0.0	0.0
H	-0.042075	0.749891	-2.024516
N	-1.951669	-0.078051	-1.468813
H	-2.262174	-0.099021	-2.433544
H	-2.323285	0.75946	-1.03547
N	-0.503273	-1.035489	0.828658
H	-1.319741	-1.46886	0.420184
H	0.235098	-1.709031	0.978582
N	-0.422674	1.361063	0.493275
O	0.060568	2.319769	-0.12192
O	-1.211862	1.471752	1.434368
H	2.768949	0.0	0.0
