15

C	-0.422804	-0.077816	-1.450935
C	0.0	0.0	0.0
F	-1.683492	-0.756804	-1.565738
H	1.08978	0.0	0.0
H	0.294028	-0.752135	-1.924042
N	-0.430252	1.15186	-2.13916
H	-1.147162	1.749656	-1.756145
H	-0.574681	1.005626	-3.127908
N	-0.366479	-1.153871	0.77827
H	-1.082575	-1.690614	0.317135
H	0.469184	-1.706921	0.924616
N	-0.531876	1.199252	0.71284
O	-1.568312	1.744083	0.294816
O	0.066025	1.557171	1.722234
H	2.735071	0.0	0.0
