15

C	-0.531162	0.032512	-1.418579
C	0.0	0.0	0.0
F	-0.036869	-1.140534	-2.042516
H	1.097193	0.0	0.0
H	-0.118425	0.866307	-1.982863
N	-1.949503	0.049514	-1.418782
H	-2.25026	-0.712716	-0.821204
H	-2.301709	-0.091598	-2.357075
N	-0.527331	-1.166622	0.694848
H	0.205097	-1.865414	0.631005
H	-0.598156	-0.906415	1.671165
N	-0.374461	1.23325	0.687454
O	-0.251973	2.287612	0.05675
O	-0.666319	1.183504	1.890876
H	2.642021	0.0	0.0
