15

C	-0.51088	0.000522	-1.426974
C	0.0	0.0	0.0
F	-1.94693	-0.208618	-1.36913
H	1.089691	0.0	0.0
H	-0.139675	-0.922533	-1.879784
N	-0.180086	1.088149	-2.247594
H	-0.411574	1.959147	-1.795443
H	-0.618537	0.99848	-3.153218
N	-0.377243	-1.189398	0.695267
H	-1.144272	-1.669095	0.250135
H	0.438755	-1.782699	0.790279
N	-0.43339	1.205409	0.774463
O	-0.50829	2.287103	0.168077
O	-0.591153	1.108856	1.989233
H	2.654441	0.0	0.0
