16

C	0.0	0.0	0.0
C	-0.588818	0.123796	-1.411993
Cl	1.792418	0.0	0.0
H	-1.690592	0.240379	-1.170043
N	-0.350644	1.331712	0.75693
O	-0.344903	1.248679	1.978427
O	-0.564275	2.343034	0.103746
N	-0.539749	-1.117626	0.623596
H	-1.580251	-0.932481	0.539545
H	-0.247525	-1.132151	1.593441
N	-0.415648	-1.210351	-2.098382
O	-1.401201	-1.935403	-2.157888
O	0.697546	-1.472098	-2.553941
C	0.003104	1.137373	-2.262475
N	0.446149	1.919046	-3.019423
F	-2.758466	0.0	0.0
