16

C	0.0	0.0	0.0
C	-0.607902	0.402714	-1.354772
Cl	1.777683	0.0	0.0
H	-1.721807	0.442021	-1.031081
N	-0.38335	1.152203	0.984005
O	-0.354946	0.88884	2.172662
O	-0.62581	2.246968	0.491754
N	-0.508722	-1.180583	0.567753
H	-1.539257	-1.043094	0.499857
H	-0.199238	-1.966944	0.013743
N	-0.528685	-0.699787	-2.378405
O	-1.123573	-0.476108	-3.42877
O	0.086784	-1.735289	-2.132111
C	-0.079855	1.58766	-1.999747
N	0.360144	2.511224	-2.58052
F	-2.750919	0.0	0.0
