12

C	-0.523016	0.053682	-1.414295
C	0.0	0.0	0.0
F	-0.371988	-1.176309	-2.065215
H	1.094336	0.0	0.0
H	0.027196	0.796996	-1.999279
H	-1.597206	0.282411	-1.447393
H	-0.305325	0.940009	0.482066
C	-0.540241	-1.18877	0.783223
H	-1.636574	-1.194157	0.835528
H	-0.145899	-1.177867	1.802235
H	-0.217581	-2.120236	0.316076
H	3.167903	0.0	0.0
