14
Coordinates from ORCA-job run
  C   -0.25150409772494     -0.01514531035025      0.45949652683614
  C   1.10723177258297     -0.62708835269607      0.10144195515107
  Cl  -0.24160290667717      0.05906705278172      2.31512625643283
  H   1.90745013561424     -0.03606311994552      0.55242259625740
  H   1.17749089293041     -1.63588499880334      0.51925517039067
  N   -1.29080298426422     -0.83084161310270     -0.04578218554219
  H   -1.25520316723981     -1.77229037273368      0.32478966487686
  H   -2.20377771571912     -0.43544427366731      0.13957378805798
  C   -0.39864167790410      1.40932953976250     -0.03618530925508
  H   0.40764266809058      2.03677640016543      0.34430394622094
  H   -0.38280020363232      1.41348915380105     -1.12796483280679
  H   -1.34604762479318      1.83002154778979      0.30692283358822
  C   1.30048172351491     -0.68419969701356     -1.34643710135170
  N   1.47108318522174     -0.71072595598805     -2.50696330885636
