14
Coordinates from ORCA-job run
  C   -0.11210420353180      0.10018068436108      0.37583104794280
  C   1.00934420635380     -0.24466444608955     -0.60866359699430
  Cl  0.62139152712265      0.32375139270008      2.00162141292384
  H   1.74297973544089      0.56499844307388     -0.62553545296849
  H   0.58045688630195     -0.32009962374729     -1.61497361301294
  N   -1.00812271734319     -1.02998825060113      0.46898826386630
  H   -1.72181191304914     -0.85704969031259      1.16740479572883
  H   -1.46353241440250     -1.17991951050417     -0.42542598378442
  C   -0.76836787071799      1.41883870155805     -0.01709261339415
  H   -1.22937430294901      1.31550857110170     -1.00446462043615
  H   -0.04552493170175      2.23668933424690     -0.04782392639178
  H   -1.54719246437120      1.67544910576645      0.70332915525449
  C   1.68551466270047     -1.50060182335750     -0.29370576557760
  N   2.25734380014681     -2.50209288819591     -0.08048910315644
