14
Coordinates from ORCA-job run
  C   -0.28860490223710     -0.08229850616039      0.34026218354096
  C   0.68745721537993     -0.88491156677301     -0.52658074808216
  Cl  0.38414567784116     -0.13269232883954      2.05765925898984
  H   0.76221760622309     -1.90685675989824     -0.14380204838153
  H   0.26961399586998     -0.93212997016765     -1.53655509193747
  N   -1.56838915445511     -0.69695957118997      0.24269347847636
  H   -1.54997584213448     -1.64717422146552      0.59414212612510
  H   -2.25977030477006     -0.17675326346186      0.76899490047493
  C   -0.36735888601455      1.37514528321146     -0.06628269502714
  H   0.60712962197522      1.85610563018117      0.01137799630038
  H   -1.06403880162057      1.90809874293104      0.58408373687028
  H   -0.72679135721395      1.43849189911178     -1.09621583158979
  C   2.02286128826043     -0.29980317272803     -0.58229320507034
  N   3.09050384289601      0.18173780524875     -0.64948406068941
