14
Coordinates from ORCA-job run
  C   -0.19180884020211     -0.01684953463528      0.56529854454539
  C   1.17236560249403     -0.58508497813017      0.14895521002447
  Cl  -0.13417856923966      0.16267441303117      2.35532413362768
  H   1.32051619834690     -1.53699633970644      0.66329256977632
  H   1.97130304055741      0.09900871707159      0.44464259245400
  N   -1.20329036931465     -1.00947823863283      0.27195802694526
  H   -2.10395519332028     -0.69523609939895      0.61561845644133
  H   -1.27474879777197     -1.13020490938859     -0.73409501734714
  C   -0.44156797783382      1.36193702408901     -0.03011792742913
  H   0.34412615013705      2.06784440288137      0.24723532265664
  H   -1.39632482434476      1.75181308386993      0.32795466803074
  H   -0.48219176495837      1.28715230433509     -1.12045678837955
  C   1.21869055091427     -0.79959164027438     -1.29580630220251
  N   1.20106479453598     -0.95798820511149     -2.45880348914350
