15

C	-0.575063	0.020012	-1.414024
C	0.0	0.0	0.0
Br	0.115147	-1.452923	-2.472002
H	1.093196	0.0	0.0
C	-2.033028	-0.036271	-1.429016
N	-3.204094	-0.120956	-1.358088
N	-0.137375	1.333353	-2.077346
O	1.061484	1.50823	-2.191253
O	-1.033893	2.095936	-2.424422
C	-0.473554	-1.18378	0.702063
N	-0.868116	-2.105973	1.318091
N	-0.375762	1.254987	0.641861
H	0.446245	1.586359	1.132041
H	-1.147792	1.157775	1.28745
F	2.491815	0.0	0.0
