15

C	-0.400102	0.05907	-1.459064
C	0.0	0.0	0.0
Br	0.295764	1.665949	-2.293875
H	1.095266	0.0	0.0
C	0.081591	-1.098091	-2.203681
N	0.453443	-2.031283	-2.815148
N	-1.935846	0.10177	-1.677309
O	-2.34016	-0.031196	-2.825392
O	-2.62955	0.266966	-0.681117
C	-0.472018	-1.248422	0.585645
N	-0.83511	-2.242645	1.10012
N	-0.371889	1.196089	0.729051
H	-1.221009	1.076746	1.261418
H	0.403187	1.421583	1.338071
F	2.487219	0.0	0.0
