15

C	-0.544733	-0.011851	-1.429533
C	0.0	0.0	0.0
Br	0.186677	-1.497613	-2.4406
H	1.093227	0.0	0.0
C	-2.001363	-0.082404	-1.482747
N	-3.173494	-0.175574	-1.447157
N	-0.102106	1.293385	-2.109478
O	-0.998624	2.052362	-2.466447
O	1.097504	1.467526	-2.218856
C	-0.482026	-1.173401	0.713162
N	-0.879022	-2.087857	1.339296
N	-0.376781	1.265645	0.616465
H	0.440514	1.606501	1.104959
H	-1.153059	1.183381	1.256598
F	2.493748	0.0	0.0
