15

C	-0.534938	0.004616	-1.432983
C	0.0	0.0	0.0
Br	0.192783	-1.477211	-2.451677
H	1.093222	0.0	0.0
C	-1.991462	-0.053844	-1.49495
N	-3.164703	-0.137703	-1.463886
N	-0.077055	1.314405	-2.094487
O	1.12319	1.490951	-2.170006
O	-0.961874	2.071078	-2.478055
C	-0.48563	-1.181142	0.698452
N	-0.889684	-2.100021	1.313343
N	-0.395391	1.258475	0.616948
H	-1.191864	1.169762	1.233525
H	0.407045	1.599967	1.131029
F	2.495522	0.0	0.0
