15

C	-0.567672	-0.005576	-1.419005
C	0.0	0.0	0.0
Br	0.139145	-1.490742	-2.446724
H	1.093163	0.0	0.0
C	-2.024967	-0.073577	-1.441287
N	-3.195189	-0.177094	-1.381388
N	-0.136868	1.302205	-2.095264
O	-1.037087	2.074422	-2.409209
O	1.06004	1.468577	-2.242712
C	-0.473571	-1.174892	0.717694
N	-0.862125	-2.087402	1.351828
N	-0.37805	1.26288	0.62108
H	-1.165778	1.179704	1.250005
H	0.435182	1.594898	1.125879
F	2.491934	0.0	0.0
