15

C	-0.555458	0.00948	-1.424446
C	0.0	0.0	0.0
Cl	0.107892	-1.392922	-2.279183
H	1.092871	0.0	0.0
C	-2.013443	-0.03074	-1.473446
N	-3.186058	-0.119083	-1.487357
N	-0.082	1.255964	-2.204779
O	0.946918	1.780259	-1.822619
O	-0.76721	1.550372	-3.174293
C	-0.479893	-1.174722	0.71152
N	-0.879438	-2.125671	1.275028
N	-0.465674	1.215928	0.759221
O	-0.171605	1.253888	1.94365
O	-1.083493	2.074811	0.131096
Cl	3.105892	0.0	0.0
