15

C	-0.547955	-0.036304	-1.437396
C	0.0	0.0	0.0
Cl	0.081632	-1.465556	-2.243246
H	1.092924	0.0	0.0
C	-2.007837	-0.053918	-1.461526
N	-3.181865	-0.116841	-1.475378
N	-0.084175	1.228508	-2.217436
O	-0.916704	2.124681	-2.279701
O	1.0419	1.214715	-2.669484
C	-0.503204	-1.150649	0.732753
N	-0.881946	-2.102916	1.307733
N	-0.4447	1.273711	0.675926
O	0.115943	2.291938	0.284713
O	-1.309185	1.203323	1.546179
Cl	3.100405	0.0	0.0
