15

C	-0.514054	0.061308	-1.44197
C	0.0	0.0	0.0
Cl	-2.264943	0.331458	-1.487874
H	1.092526	0.0	0.0
C	0.144439	1.054025	-2.279792
N	0.602135	1.7974	-3.067289
N	-0.20987	-1.332346	-2.076773
O	0.889695	-1.43377	-2.594376
O	-1.068182	-2.19018	-1.957879
C	-0.520629	-1.146556	0.720056
N	-0.917558	-2.09765	1.285118
N	-0.389208	1.272923	0.703772
O	-0.155642	2.31046	0.094913
O	-0.863077	1.18134	1.831386
Cl	3.044245	0.0	0.0
