15

C	-0.552145	-0.002046	-1.423962
C	0.0	0.0	0.0
Cl	0.140756	-1.392066	-2.274851
H	1.092973	0.0	0.0
C	-2.008268	-0.074221	-1.480292
N	-3.177827	-0.192854	-1.499049
N	-0.1039	1.251392	-2.202403
O	-0.750016	1.485381	-3.215321
O	0.866208	1.847951	-1.77449
C	-0.469184	-1.179109	0.713543
N	-0.858623	-2.13643	1.272541
N	-0.472903	1.209798	0.758973
O	-0.13239	1.273774	1.931063
O	-1.150538	2.035608	0.147957
Cl	3.097004	0.0	0.0
