15

C	-0.527038	0.132283	-1.423334
C	0.0	0.0	0.0
Cl	-2.268196	0.133071	-1.64014
H	1.108973	0.0	0.0
C	0.129594	1.302409	-2.006977
N	0.97321	2.087073	-2.339068
N	0.045218	-1.101214	-2.274626
O	1.072051	-1.615801	-1.842521
O	-0.588065	-1.421837	-3.272551
C	-0.335948	-1.181214	0.786235
N	-0.249998	-1.948282	1.716395
N	-0.447969	1.194517	0.828013
O	-1.650527	1.480316	0.804422
O	0.416639	1.808873	1.447531
Cl	3.128999	0.0	0.0
