15

C	-0.580554	-0.034757	-1.41323
C	0.0	0.0	0.0
Cl	0.039215	-1.481428	-2.225494
H	1.094744	0.0	0.0
C	-2.041647	-0.055417	-1.420161
N	-3.214798	-0.122309	-1.367146
N	-0.114229	1.171959	-2.255392
O	0.932037	1.699407	-1.92824
O	-0.829608	1.432775	-3.21588
C	-0.46987	-1.153387	0.753059
N	-0.852447	-2.085379	1.358025
N	-0.45058	1.240255	0.72732
O	-0.185376	1.289817	1.919841
O	-1.018215	2.10964	0.065415
Cl	3.09345	0.0	0.0
