15

C	-0.54746	0.00067	-1.426018
C	0.0	0.0	0.0
Cl	0.161155	-1.380615	-2.277289
H	1.093931	0.0	0.0
C	-2.001944	-0.086244	-1.487161
N	-3.170135	-0.215533	-1.495633
N	-0.107148	1.259017	-2.197928
O	-0.761556	1.499828	-3.205404
O	0.866391	1.85302	-1.772172
C	-0.464182	-1.185427	0.706973
N	-0.851205	-2.143396	1.267152
N	-0.480521	1.203782	0.762496
O	-0.155254	1.258986	1.938839
O	-1.150902	2.033704	0.14975
Cl	3.099428	0.0	0.0
