19

C	0.0	0.0	0.0
C	-0.601303	-0.192472	-1.393211
Br	1.933038	0.0	0.0
H	-1.657982	0.079812	-1.244053
N	-0.346131	1.417384	0.522029
O	-0.690623	2.265357	-0.29438
O	-0.225542	1.613852	1.723559
C	-0.530629	-0.982863	1.019493
H	-1.625304	-0.937292	0.98654
H	-0.174281	-0.717439	2.012864
H	-0.183693	-1.986787	0.776773
C	-0.546593	-1.655228	-1.813492
H	-0.92714	-1.738647	-2.836309
H	0.481262	-2.029345	-1.8008
H	-1.188495	-2.269799	-1.18625
N	0.075263	0.605318	-2.418299
H	-0.338314	0.352402	-3.308105
H	-0.157684	1.576647	-2.255497
Cl	-3.839522	0.0	0.0
