13
Coordinates from ORCA-job run
  C   -0.87369848290268      0.20595793676668      0.00217550599214
  C   0.59182695322178     -0.17602749362305     -0.22279759545492
  H   -1.42312974574567     -0.01425165078080     -0.92585106432015
  H   0.65745502373466     -1.27575540082516     -0.25205110191328
  H   -0.91091638215265      1.28714176240284      0.14948182517869
  N   -1.39050203754541     -0.47626713375565      1.17915264397632
  H   -2.12629159810051      0.06147585202732      1.61436509197610
  H   -1.76874787649371     -1.38208023667270      0.93673245431163
  C   1.39700080392342      0.26421855390424      0.92252605096456
  N   2.06840053151301      0.62804603735955      1.81318019945017
  N   1.08409817956603      0.48037409798637     -1.43385253479296
  H   2.07757821624918      0.31627580485876     -1.54336122207913
  H   0.61692641473256      0.08089187035163     -2.23970025328917
