13
Coordinates from ORCA-job run
  C   -0.79575795796213      0.23153718221857      0.02283882484448
  C   0.61438466308716     -0.30793357239152     -0.26468995281447
  H   -1.39090853000551      0.09786685076123     -0.89429848273057
  H   0.55052414843981     -1.39822616840273     -0.36438941717183
  H   -0.71700385378151      1.30794598754786      0.20324903623666
  N   -1.35011218410258     -0.41102330379276      1.20387853099767
  H   -2.06069732619282      0.16424701314794      1.63419586927709
  H   -1.77057558896258     -1.29930380040715      0.96455958844100
  C   1.48545600162545     -0.03004104456923      0.88565564136943
  N   2.18338619393618      0.24738366266228      1.78694324067434
  N   1.24849965988243      0.20686442451678     -1.47415433991616
  H   0.68133526760573     -0.02574247636465     -2.28068834697397
  H   1.32246950643038      1.21642524507339     -1.42310019223367
