19

C	-0.477596	0.008374	-1.429883
C	0.0	0.0	0.0
Cl	0.328179	1.267986	-2.393821
H	1.095634	0.0	0.0
N	-0.321644	-1.228815	-2.099312
H	-0.857582	-1.939624	-1.621589
H	-0.639264	-1.156438	-3.057949
N	-2.013778	0.412652	-1.417948
O	-2.352286	1.590389	-1.417866
O	-2.794963	-0.536862	-1.292979
C	-0.397537	-1.273226	0.739798
H	-1.481331	-1.445477	0.789938
H	0.098064	-2.141798	0.299631
H	-0.016145	-1.191001	1.760888
C	-0.416475	1.240185	0.780012
H	-1.475959	1.244759	1.070381
H	0.195873	1.273583	1.684955
H	-0.212827	2.152734	0.217566
F	2.608002	0.0	0.0
