19

C	-0.079709	0.1174	-1.528803
C	0.0	0.0	0.0
Cl	-1.617666	0.89373	-2.172711
H	1.098082	0.0	0.0
N	1.04177	0.804866	-1.964866
H	1.87298	0.543397	-1.369837
H	1.203424	0.72113	-2.957801
N	-0.174065	-1.334252	-2.15928
O	-1.222132	-1.963809	-2.060221
O	0.855834	-1.762219	-2.675434
C	-0.612309	-1.228433	0.638239
H	-0.459529	-1.16445	1.719967
H	-1.68651	-1.308154	0.44427
H	-0.130726	-2.146617	0.297444
C	-0.469812	1.289966	0.65502
H	-1.561726	1.376229	0.66539
H	-0.107	1.313511	1.686724
H	-0.054534	2.152114	0.131992
F	2.733907	0.0	0.0
