19

C	-0.477416	0.007172	-1.429636
C	0.0	0.0	0.0
Cl	0.318938	1.274496	-2.391709
H	1.095612	0.0	0.0
N	-0.313085	-1.227838	-2.100077
H	-0.634274	-1.158945	-3.05695
H	-0.838494	-1.944845	-1.620587
N	-2.016378	0.400319	-1.417346
O	-2.7909	-0.555557	-1.301912
O	-2.363027	1.575607	-1.408742
C	-0.395541	-1.275288	0.737986
H	0.109855	-2.140899	0.303204
H	-1.47848	-1.454903	0.778611
H	-0.024169	-1.189692	1.76245
C	-0.419832	1.238363	0.780917
H	0.192409	1.272503	1.685632
H	-1.479101	1.239291	1.071293
H	-0.219076	2.151967	0.219225
F	2.607683	0.0	0.0
