19

C	-0.074039	0.0902	-1.529311
C	0.0	0.0	0.0
Cl	-1.630322	0.831117	-2.19166
H	1.098055	0.0	0.0
N	1.039481	0.788539	-1.975499
H	1.871621	0.536498	-1.380149
H	1.203363	0.68182	-2.963743
N	-0.148622	-1.365128	-2.160304
O	0.843731	-1.740763	-2.777554
O	-1.160054	-2.037719	-1.990526
C	-0.608969	-1.214147	0.669063
H	-1.682619	-1.302386	0.479128
H	-0.126974	-2.140071	0.353385
H	-0.454492	-1.11861	1.747844
C	-0.470736	1.302348	0.630356
H	-1.564602	1.372175	0.663991
H	-0.083619	1.357446	1.652922
H	-0.080604	2.157709	0.07546
F	2.731416	0.0	0.0
