19

C	-0.576072	0.024243	-1.391094
C	0.0	0.0	0.0
Cl	0.305509	-1.203835	-2.453507
H	1.090973	0.0	0.0
N	-1.980054	-0.142697	-1.446421
H	-2.312365	-0.068848	-2.399369
H	-2.216141	-1.047333	-1.062925
N	-0.262977	1.336283	-2.1223
O	-1.111186	1.745155	-2.919753
O	0.814862	1.86302	-1.901117
C	-0.419794	-1.278487	0.721591
H	-0.204827	-2.166618	0.121856
H	0.187479	-1.355054	1.626504
H	-1.478654	-1.288395	1.018679
C	-0.459435	1.222974	0.791232
H	-0.032187	2.137505	0.376577
H	-1.550798	1.319597	0.839422
H	-0.067184	1.130622	1.808351
F	2.632937	0.0	0.0
