19

C	-0.097243	0.118795	-1.532206
C	0.0	0.0	0.0
Cl	-1.578992	0.95727	-2.130507
H	1.097559	0.0	0.0
N	1.063974	0.721461	-2.110851
H	1.863617	0.492235	-1.470516
H	0.93484	1.724692	-2.121733
N	-0.173315	-1.3259	-2.077812
O	-1.270701	-1.856533	-2.229235
O	0.907368	-1.884497	-2.216927
C	-0.643526	-1.21707	0.63155
H	-0.480924	-1.18264	1.712997
H	-1.723111	-1.259801	0.446964
H	-0.192182	-2.142526	0.268088
C	-0.428109	1.293531	0.675728
H	-0.055258	1.29008	1.704127
H	0.013181	2.158987	0.175667
H	-1.516053	1.420451	0.695024
F	2.715883	0.0	0.0
