19

C	-0.088659	0.126038	-1.533506
C	0.0	0.0	0.0
Cl	-1.572951	0.948115	-2.141608
H	1.097524	0.0	0.0
N	1.069377	0.746607	-2.095106
H	0.930458	1.746843	-2.083154
H	1.867742	0.511741	-1.455833
N	-0.138637	-1.317686	-2.083212
O	0.955536	-1.847074	-2.228753
O	-1.221364	-1.875947	-2.22831
C	-0.64276	-1.225063	0.616565
H	-0.487276	-1.197666	1.698278
H	-0.185799	-2.145566	0.24897
H	-1.720017	-1.271453	0.424664
C	-0.437021	1.286998	0.680999
H	-1.525943	1.405377	0.699376
H	-0.002551	2.158786	0.186032
H	-0.066304	1.282709	1.710302
F	2.722779	0.0	0.0
