19

C	-0.049938	0.009519	-1.533434
C	0.0	0.0	0.0
Cl	-0.332747	1.79372	-2.215433
H	1.099337	0.0	0.0
N	1.090481	-0.574939	-2.004826
H	1.210686	-0.57024	-3.005183
H	1.930143	-0.364387	-1.389975
N	-1.300728	-0.639976	-2.150703
O	-1.157967	-1.291446	-3.182658
O	-2.369067	-0.460537	-1.574145
C	-0.460785	-1.352856	0.536024
H	-1.551175	-1.4334	0.58428
H	-0.068121	-2.16436	-0.081358
H	-0.053776	-1.483281	1.542998
C	-0.622447	1.162809	0.740388
H	-0.115313	2.09872	0.508202
H	-1.686319	1.269113	0.507429
H	-0.519826	0.985152	1.816173
F	2.763527	0.0	0.0
