19

C	-0.072308	-0.325427	-1.500453
C	0.0	0.0	0.0
Cl	-0.42304	1.234397	-2.559773
H	1.097345	0.0	0.0
N	1.076682	-0.975626	-1.846422
H	1.186307	-1.208167	-2.819898
H	1.917138	-0.625971	-1.30518
N	-1.324529	-1.140415	-1.893394
O	-1.167136	-2.141591	-2.588825
O	-2.403043	-0.742598	-1.463509
C	-0.453386	-1.208818	0.812778
H	-0.036615	-2.129489	0.395295
H	-1.544494	-1.296715	0.861601
H	-0.066649	-1.109174	1.83109
C	-0.627938	1.289651	0.482089
H	-1.697801	1.324183	0.258353
H	-0.146641	2.159517	0.035538
H	-0.497268	1.355119	1.567005
F	2.762421	0.0	0.0
