16

C	0.0	0.0	0.0
C	-0.482948	0.111233	-1.489667
Cl	1.789079	0.0	0.0
H	0.408568	0.287079	-2.099513
C	-0.396215	1.199803	0.7495
N	-0.572728	2.116622	1.462224
C	-0.483472	-1.240367	0.740697
H	-0.099842	-2.138125	0.251695
H	-1.578448	-1.180021	0.694913
H	-0.119666	-1.210001	1.770222
N	-1.389352	1.227352	-1.666936
H	-2.212481	0.941269	-1.073351
H	-1.660231	1.259599	-2.644835
C	-1.019816	-1.191255	-1.944647
N	-1.383936	-2.198935	-2.428084
F	-2.82944	0.0	0.0
