16

C	0.0	0.0	0.0
C	-0.340086	-0.048581	-1.565335
Cl	1.792371	0.0	0.0
H	0.049007	0.906443	-1.94888
C	-0.442532	1.283842	0.538245
N	-0.71178	2.342057	0.9718
C	-0.604942	-1.165391	0.747262
H	-0.28046	-2.102621	0.287052
H	-0.296217	-1.153473	1.795176
H	-1.695683	-1.022182	0.660332
N	-1.703033	-0.23749	-1.975097
H	-1.882684	-1.235019	-2.020302
H	-2.38399	0.071693	-1.194556
C	0.474296	-1.10967	-2.190674
N	1.035483	-1.981785	-2.743079
F	-3.179523	0.0	0.0
