16

C	0.0	0.0	0.0
C	-0.623247	0.025505	-1.394263
Cl	1.796582	0.0	0.0
H	-1.730472	0.045475	-1.065311
C	-0.390472	1.224213	0.713697
N	-0.600021	2.227317	1.288134
C	-0.474754	-1.227268	0.770392
H	-0.074873	-1.202851	1.786432
H	-1.568436	-1.152165	0.757653
H	-0.12628	-2.11994	0.252364
N	-0.314822	-1.193614	-2.128757
H	-1.066316	-1.3795	-2.780136
H	0.547418	-1.089442	-2.651923
C	-0.268833	1.240274	-2.130951
N	0.013378	2.162259	-2.805913
F	-2.856024	0.0	0.0
