16

C	0.0	0.0	0.0
C	-0.364686	-0.229739	-1.53819
Cl	1.794002	0.0	0.0
H	0.444803	0.261519	-2.08686
C	-0.418845	1.362477	0.335192
N	-0.647005	2.486092	0.590331
C	-0.588572	-1.014273	0.95504
H	-1.680017	-0.912851	0.820829
H	-0.296864	-0.777228	1.981073
H	-0.232945	-2.013633	0.699048
N	-1.620737	0.249272	-2.037135
H	-1.531026	1.251529	-2.159992
H	-2.362863	0.096976	-1.27905
C	-0.215411	-1.671252	-1.819781
N	-0.084028	-2.806512	-2.088213
F	-3.066751	0.0	0.0
