16

C	0.0	0.0	0.0
C	-0.620928	0.031626	-1.395507
Cl	1.796513	0.0	0.0
H	-1.728497	0.040848	-1.070901
C	-0.392041	1.218516	0.722415
N	-0.596439	2.200551	1.333167
C	-0.475705	-1.231915	0.762791
H	-0.13114	-2.121579	0.237396
H	-1.569165	-1.153835	0.751994
H	-0.073784	-1.215721	1.778074
N	-0.297352	-1.177449	-2.139518
H	-1.026321	-1.345442	-2.821354
H	0.582346	-1.06699	-2.632929
C	-0.274541	1.257156	-2.119173
N	0.020302	2.189238	-2.774451
F	-2.855461	0.0	0.0
