16

C	0.0	0.0	0.0
C	-0.424281	0.116312	-1.49285
Br	1.97011	0.0	0.0
H	-1.473585	0.394112	-1.576806
N	-0.380539	1.281802	0.95579
O	-0.914561	2.296101	0.533473
O	0.123789	1.157388	2.0801
N	-0.313697	-1.188637	0.621303
H	-0.261071	-2.057444	0.109567
H	-0.159144	-1.22022	1.615851
C	-0.231171	-1.185876	-2.133439
N	-0.135617	-2.26775	-2.589905
N	0.351229	1.147305	-2.307697
O	0.732204	2.164753	-1.746159
O	0.376946	0.937999	-3.515704
Br	-3.25344	0.0	0.0
