15

C	-0.534953	-0.025784	-1.424549
C	0.0	0.0	0.0
Cl	0.29882	-1.279676	-2.372794
H	1.096423	0.0	0.0
C	-1.97443	-0.268508	-1.478488
N	-3.134046	-0.462244	-1.443527
N	-0.274824	1.30598	-2.143425
O	0.526231	2.072391	-1.62615
O	-0.867895	1.464592	-3.205496
N	-0.33539	-1.268443	0.636041
H	0.525383	-1.621988	1.049075
H	-1.034477	-1.157294	1.355941
C	-0.525773	1.144654	0.723334
N	-0.988125	2.016666	1.365822
H	2.550415	0.0	0.0
