20

C	0.0	0.0	0.0
C	-0.46066	-0.032829	-1.458836
F	1.416809	0.0	0.0
H	-1.540436	0.149485	-1.423395
C	-0.447837	1.279742	0.675195
H	-0.113222	2.139457	0.095203
H	-0.024659	1.328572	1.682915
H	-1.538927	1.281052	0.737159
C	-0.454008	-1.212431	0.785422
H	-0.155537	-1.100148	1.831416
H	0.002352	-2.125558	0.398122
H	-1.543527	-1.28578	0.733408
C	-0.210298	-1.382463	-2.134108
H	0.839751	-1.676453	-2.030132
H	-0.843664	-2.167913	-1.717921
H	-0.440525	-1.304687	-3.201362
N	0.171711	1.086521	-2.168595
H	-0.244692	1.160763	-3.089144
H	1.154186	0.868751	-2.292654
Br	-4.088811	0.0	0.0
