20

C	0.0	0.0	0.0
C	-0.324795	0.027642	-1.519468
F	1.411339	0.0	0.0
H	0.322653	-0.765129	-1.921997
C	-0.492319	1.20428	0.770767
H	-0.023419	2.120171	0.408157
H	-0.253586	1.092354	1.832117
H	-1.57877	1.279232	0.671302
C	-0.468692	-1.289956	0.637099
H	-0.156235	-2.149144	0.035463
H	-0.030576	-1.389431	1.633829
H	-1.557721	-1.286126	0.726403
C	0.100109	1.344836	-2.160688
H	-0.594959	2.144915	-1.888431
H	1.107985	1.632094	-1.854058
H	0.067981	1.237581	-3.247107
N	-1.680129	-0.272333	-1.935819
H	-2.000377	-1.153834	-1.553529
H	-2.347499	0.398487	-1.565278
Br	-4.45684	0.0	0.0
