20

C	0.0	0.0	0.0
C	-0.348474	0.017518	-1.510405
F	1.411265	0.0	0.0
H	0.312361	-0.755361	-1.927309
C	-0.470815	1.216326	0.770496
H	-0.181006	1.123142	1.821134
H	-0.020033	2.12756	0.372883
H	-1.560766	1.294028	0.718315
C	-0.469356	-1.27713	0.660306
H	-0.025277	-1.360301	1.656663
H	-0.165055	-2.149216	0.073506
H	-1.557471	-1.264085	0.756708
C	0.023136	1.344382	-2.160917
H	-0.024511	1.231241	-3.245673
H	-0.692923	2.119806	-1.879869
H	1.025744	1.666624	-1.873838
N	-1.702446	-0.325225	-1.899114
H	-2.396396	0.275404	-1.460872
H	-1.946561	-1.251665	-1.572553
Br	-4.505198	0.0	0.0
