20

C	0.0	0.0	0.0
C	-0.453019	-0.139535	-1.462802
F	1.414519	0.0	0.0
H	-1.545738	-0.06977	-1.441949
C	-0.452046	1.313724	0.603732
H	-0.076231	1.397688	1.627117
H	-1.545239	1.337781	0.615492
H	-0.068019	2.16102	0.031892
C	-0.454151	-1.160476	0.861413
H	-0.165056	-0.983965	1.901647
H	0.010256	-2.092141	0.533756
H	-1.542854	-1.243265	0.804579
C	-0.049715	-1.477361	-2.072837
H	1.026911	-1.64316	-1.964455
H	-0.29067	-1.457162	-3.13662
H	-0.582906	-2.310449	-1.612052
N	0.058924	0.936575	-2.324674
H	1.019572	1.124974	-2.057751
H	-0.472731	1.780934	-2.150879
Br	-4.04415	0.0	0.0
