17

C	-0.57474	-0.021541	-1.387661
C	0.0	0.0	0.0
F	-1.945398	0.054863	-1.37868
H	1.096238	0.0	0.0
C	-0.072828	1.109675	-2.185296
N	0.245563	2.028595	-2.844613
N	-0.213048	-1.270227	-2.219922
O	-1.132264	-1.956243	-2.630389
O	0.980606	-1.406786	-2.433336
N	-0.396074	-1.168033	0.744157
O	-0.464564	-2.252546	0.136637
O	-0.493788	-1.062967	1.978743
C	-0.342752	1.283288	0.731815
H	0.228265	1.297574	1.659619
H	-0.020968	2.139366	0.134514
H	-1.407847	1.36655	0.957716
H	2.423756	0.0	0.0
