17

C	-0.476677	-0.139964	-1.428615
C	0.0	0.0	0.0
F	0.140267	-1.142479	-2.09191
H	1.108553	0.0	0.0
C	-1.936911	-0.269696	-1.572009
N	-3.106271	-0.317938	-1.6824
N	-0.096494	1.153061	-2.194782
O	-0.837949	2.116385	-2.033411
O	0.906338	1.105423	-2.888386
N	-0.434825	-1.142905	0.765059
O	-0.878885	-2.140505	0.16042
O	-0.218378	-1.122068	1.988375
C	-0.328216	1.308208	0.688411
H	-0.058613	1.186279	1.735977
H	-1.38027	1.593754	0.607103
H	0.301882	2.098834	0.276592
H	2.420311	0.0	0.0
