17

C	-0.395082	-0.215845	-1.439966
C	0.0	0.0	0.0
F	0.056188	0.841512	-2.173007
H	1.092638	0.0	0.0
C	0.063848	-1.443176	-2.1018
N	0.429867	-2.317555	-2.795729
N	-1.930741	-0.178364	-1.560076
O	-2.438449	0.923048	-1.738714
O	-2.521754	-1.239847	-1.391859
N	-0.368921	-1.106974	0.845731
O	-0.285122	-2.253884	0.372132
O	-0.575757	-0.868654	2.048985
C	-0.432723	1.334094	0.558303
H	0.150975	1.518085	1.461626
H	-0.203509	2.119091	-0.163852
H	-1.495815	1.366159	0.809116
H	2.419182	0.0	0.0
