17

C	-0.555937	-0.030008	-1.395822
C	0.0	0.0	0.0
F	-1.92177	0.105797	-1.409246
H	1.090988	0.0	0.0
C	0.006777	1.061991	-2.2079
N	0.355043	1.957354	-2.88409
N	-0.237098	-1.309736	-2.197231
O	-1.181168	-1.970722	-2.595116
O	0.950948	-1.494467	-2.404352
N	-0.406417	-1.155998	0.758262
O	-0.461692	-2.252542	0.168476
O	-0.522808	-1.028541	1.990948
C	-0.346398	1.294587	0.71064
H	-1.409969	1.370064	0.948271
H	-0.042345	2.142538	0.091924
H	0.237199	1.333953	1.631549
H	2.430506	0.0	0.0
