17

C	-0.390863	-0.113517	-1.449603
C	0.0	0.0	0.0
F	0.122184	0.954592	-2.121049
H	1.109777	0.0	0.0
C	-0.00426	-1.326262	-2.182549
N	0.302272	-2.169446	-2.941408
N	-1.923977	0.015044	-1.573648
O	-2.371223	1.133447	-1.80164
O	-2.570904	-1.003996	-1.356968
N	-0.367714	-1.154942	0.772747
O	-0.592838	-0.989897	1.985447
O	-0.272562	-2.271916	0.233843
C	-0.43148	1.298215	0.637393
H	0.161897	1.44037	1.541632
H	-1.490943	1.305937	0.906393
H	-0.221842	2.122997	-0.044347
H	2.401257	0.0	0.0
