17
Coordinates from ORCA-job run
  C   -0.49085628612700     -0.26438779169477     -0.40139152063048
  C   1.04709810033360     -0.10209445253424     -0.39762951756580
  Cl  -0.86273896068208     -0.82336654488597     -2.07293586285973
  H   1.50784283815627     -1.03127700344509     -0.73702362692569
  C   -1.22752325171966      1.04071527364727     -0.15975832867424
  H   -0.95563094794968      1.79335181633434     -0.90075694558268
  H   -2.30202707457713      0.86199352826319     -0.22720327839982
  H   -0.99558819778509      1.42787114676164      0.83412134322718
  C   -0.91297720684084     -1.35211076115544      0.57347174259471
  H   -0.75893238393727     -1.02281852878003      1.60399569909440
  H   -1.97470986910602     -1.56274687122865      0.43736392304685
  H   -0.35152308807643     -2.27402483780179      0.41230625310487
  N   1.52958260245938      0.08760440907053      1.02311788184771
  O   1.97159405027029     -0.91442222108782      1.57690397230390
  O   1.40147722428909      1.20277292127393      1.51797838378912
  C   1.50532113784794      1.01853783116207     -1.20906898229405
  N   1.87059131344464      1.91440208610084     -1.87449113607626
