17
Coordinates from ORCA-job run
  C   -0.56643042167463      0.38915676782476     -0.00542653759320
  C   0.95500039076265      0.54605925594730     -0.23240343887957
  Cl  -1.17035918973130      2.08492211413622      0.06420436686463
  H   1.12504456767126      1.18176415497876     -1.10292518079385
  C   -0.90515284868062     -0.29202037664860      1.30821132176145
  H   -0.48205462583643      0.24798285071792      2.15605978965258
  H   -0.51994892237825     -1.31330413480543      1.31576080558399
  H   -1.98981639909405     -0.32261981616846      1.42502090591227
  C   -1.21280774053269     -0.30224955768004     -1.19528375437238
  H   -0.93260056934870      0.17442692949190     -2.13621204962792
  H   -2.29774827315925     -0.25628545272855     -1.09091042219315
  H   -0.91743934287464     -1.35368369197379     -1.23297955930863
  N   1.55067658404395     -0.79616342611540     -0.59586035460832
  O   1.73282162177887     -0.99452259589579     -1.79308306333942
  O   1.76051089494326     -1.58626175045290      0.31870302498914
  C   1.65550376078394      1.07655858505998      0.93035438656138
  N   2.21580051332663      1.51424014431211      1.86476975939100
