17
Coordinates from ORCA-job run
  C   -0.48907971447956     -0.27786323234175     -0.30470033920625
  C   0.95530363109646      0.25837289072413     -0.41334118773847
  Cl  -0.61894425970574     -1.62636765773136     -1.48389447073442
  H   1.15245413464885      0.54992136347847     -1.44714881572367
  C   -1.43760914955538      0.83017962818882     -0.74453922074917
  H   -1.18039562878929      1.19991890307786     -1.73946476883257
  H   -2.45598671476627      0.44000185607389     -0.77854349494356
  H   -1.40815202344219      1.66046896223703     -0.03455057827630
  C   -0.84486738484030     -0.79791365280056      1.07759685223906
  H   -0.71984358356242     -0.00697904012471      1.82168185111569
  H   -1.88954483232139     -1.11398655324414      1.07481738031089
  H   -0.22665530267206     -1.64614012539547      1.36535354570514
  N   1.98952053389661     -0.79874025680377     -0.09988184977188
  O   2.12443587548453     -1.11027660603161      1.07897122768080
  O   2.59788322721530     -1.26046952750313     -1.05818863636771
  C   1.16140709323724      1.38701309138905      0.48742203146276
  N   1.29007409855561      2.31385995680726      1.19741047382965
