17
Coordinates from ORCA-job run
  C   -0.47302189808227     -0.24405626286963     -0.43461748327207
  C   1.06479429336145     -0.10445350995483     -0.34710994495294
  Cl  -0.76579817999220     -0.74528878677860     -2.13980809229573
  H   1.52975104801014     -1.02914310224642     -0.69300011041463
  C   -1.20423173393705      1.06345715549169     -0.18939411228493
  H   -1.01545766792025      1.41815543548419      0.82550544201913
  H   -0.88790715297608      1.83356258369487     -0.89397516298140
  H   -2.27641719803725      0.90171854259895     -0.31334140433195
  C   -0.95862358982713     -1.35524832689730      0.48270780473034
  H   -2.01414907159632     -1.54769189809713      0.28509434448322
  H   -0.85513494820127     -1.05879426184046      1.52940524769840
  H   -0.40022742516476     -2.27927794820328      0.32325158528936
  N   1.47545938352850      0.03116366263228      1.10230485841702
  O   1.33656415478907      1.13110899919839      1.62720378553587
  O   1.87295688766678     -0.99559272321106      1.64420832164184
  C   1.57932795824900      1.03494434509448     -1.09604499903067
  N   1.99311514012962      1.94543609590387     -1.71139008025086
