18

C	-0.141063	0.018379	-1.509975
C	0.0	0.0	0.0
F	-0.086785	-1.281924	-2.034631
H	1.105654	0.0	0.0
N	-1.541025	0.467352	-1.957132
O	-1.670852	1.533491	-2.552731
O	-2.46129	-0.290743	-1.660069
N	0.857198	0.853981	-2.008067
H	1.734759	0.626279	-1.497289
H	0.950235	0.804188	-3.012363
C	-0.618673	-1.177257	0.71074
H	-0.300906	-2.11303	0.251232
H	-1.710039	-1.119606	0.703829
H	-0.26941	-1.18256	1.749091
N	-0.552556	1.271521	0.511368
H	-0.313441	1.303701	1.498408
H	-0.004192	2.010816	0.079455
F	2.734395	0.0	0.0
