18

C	-0.551265	0.024411	-1.409815
C	0.0	0.0	0.0
F	-0.200043	1.153466	-2.071591
H	1.094377	0.0	0.0
N	0.133196	-1.115084	-2.23245
O	1.097129	-0.846739	-2.928935
O	-0.376038	-2.235353	-2.119964
N	-1.968038	-0.104356	-1.504967
H	-2.229514	-1.036576	-1.213483
H	-2.247528	0.018928	-2.472301
C	-0.448325	-1.218924	0.794928
H	0.082806	-1.192931	1.749109
H	-0.188342	-2.156256	0.301505
H	-1.528571	-1.214438	1.001149
N	-0.392136	1.263621	0.631391
H	-1.140118	1.122916	1.299753
H	0.429079	1.595451	1.121414
F	2.636133	0.0	0.0
