18

C	-0.462809	0.046542	-1.444273
C	0.0	0.0	0.0
F	-0.098477	1.221106	-2.037611
H	1.094241	0.0	0.0
N	0.275462	-1.034883	-2.275637
O	1.234717	-0.71103	-2.957937
O	-0.191776	-2.174791	-2.189487
N	-1.872937	-0.082457	-1.616733
H	-2.106504	-0.025954	-2.602131
H	-2.162889	-0.985472	-1.266837
C	-0.512699	-1.215018	0.754808
H	-1.598099	-1.177616	0.921085
H	-0.027238	-1.201956	1.731481
H	-0.254129	-2.150719	0.256366
N	-0.419889	1.226483	0.684813
H	0.302896	1.914947	0.510215
H	-1.289499	1.572605	0.292369
F	2.636651	0.0	0.0
