18

C	-0.418743	0.004584	-1.451267
C	0.0	0.0	0.0
F	-1.797494	0.019669	-1.56351
H	1.094143	0.0	0.0
N	0.075144	1.298189	-2.104693
O	-0.748314	2.144944	-2.434521
O	1.281747	1.355101	-2.290892
N	0.06727	-1.041393	-2.306754
H	1.078098	-1.066254	-2.164403
H	-0.322575	-1.916153	-1.976418
C	-0.524971	-1.245076	0.705798
H	-0.104299	-2.162495	0.283076
H	-1.621531	-1.308151	0.679129
H	-0.207723	-1.207942	1.751826
N	-0.469318	1.25975	0.576893
H	0.027404	1.424574	1.443024
H	-1.466367	1.229252	0.765089
F	2.620334	0.0	0.0
