18

C	-0.162122	-0.091662	-1.523343
C	0.0	0.0	0.0
F	-1.311979	-0.737598	-1.946156
H	1.097805	0.0	0.0
N	-0.351747	1.348722	-2.081115
O	0.613681	2.094529	-1.928914
O	-1.405811	1.66181	-2.625707
N	0.982935	-0.709451	-2.034602
H	1.816257	-0.462286	-1.452463
H	1.120221	-0.562273	-3.024883
C	-0.542466	-1.25613	0.647657
H	-0.172338	-2.140247	0.127462
H	-0.200577	-1.303716	1.68562
H	-1.63781	-1.271658	0.629503
N	-0.606199	1.2151	0.550025
H	0.142905	1.874858	0.723146
H	-1.027361	0.995996	1.443891
F	2.738063	0.0	0.0
