18

C	-0.479921	0.017107	-1.425873
C	0.0	0.0	0.0
F	-1.874378	0.366429	-1.472255
H	1.091748	0.0	0.0
N	0.096423	1.16588	-2.265872
O	0.687544	2.082976	-1.714315
O	-0.134746	1.101431	-3.475297
N	-0.234737	-1.145677	-2.1558
H	-0.666077	-1.102103	-3.067286
H	-0.498591	-1.968896	-1.641424
C	-0.442073	-1.289368	0.689249
H	-0.211119	-1.166598	1.74707
H	0.13574	-2.145501	0.32911
H	-1.517527	-1.491317	0.592641
N	-0.457622	1.157648	0.77133
H	-1.342638	1.49721	0.41413
H	0.235451	1.8823	0.639414
F	2.630527	0.0	0.0
