13

C	0.0	0.0	0.0
C	-0.35981	-0.023119	-1.489411
F	1.395568	0.0	0.0
H	-0.185055	-1.06024	-1.827993
H	-0.289801	-0.931924	0.499993
H	0.413759	0.593102	-1.96487
N	-0.475482	1.175023	0.652416
H	-1.405486	1.37654	0.292543
H	-0.579801	0.990233	1.642556
N	-1.671754	0.521978	-1.788415
H	-2.409319	0.198071	-1.11983
H	-1.959194	0.223002	-2.713831
H	-3.590109	0.0	0.0
