13

C	0.0	0.0	0.0
C	-0.442262	0.074	-1.449642
F	1.41045	0.0	0.0
H	-0.363518	1.136564	-1.755691
H	-0.311985	-0.951294	0.434366
H	0.310132	-0.473592	-2.032128
N	-0.518963	1.061628	0.766551
H	-0.362285	0.956538	1.756923
H	-0.189198	1.956823	0.435808
N	-1.741715	-0.54776	-1.617939
H	-2.449392	-0.248359	-0.912735
H	-2.136314	-0.267685	-2.508804
H	-4.027817	0.0	0.0
