13

C	0.0	0.0	0.0
C	-0.471253	0.011967	-1.448331
F	1.386427	0.0	0.0
H	-1.477959	0.440596	-1.445423
H	-0.327869	-0.925024	0.479611
H	0.222428	0.64854	-2.013693
N	-0.487247	1.098447	0.786551
H	-0.374717	1.948955	0.238842
H	-1.505451	0.924374	0.825289
N	-0.462334	-1.350416	-2.011202
H	-1.290916	-1.793278	-1.622159
H	-0.637277	-1.282454	-3.008549
H	-3.171334	0.0	0.0
