13

C	0.0	0.0	0.0
C	-0.419769	-0.100916	-1.44913
F	1.409863	0.0	0.0
H	-1.511109	-0.20147	-1.41812
H	-0.309542	-0.907027	0.522661
H	-0.168309	0.860232	-1.935626
N	-0.529649	1.126748	0.696576
H	-1.544303	0.908268	0.74269
H	-0.455157	1.936811	0.087188
N	0.19621	-1.263994	-2.09386
H	1.190471	-1.096682	-2.17863
H	-0.183186	-1.369647	-3.025785
H	-3.175893	0.0	0.0
