13

C	0.0	0.0	0.0
C	-0.410526	0.095688	-1.459194
F	1.41072	0.0	0.0
H	-1.505071	0.116899	-1.459391
H	-0.314604	-0.963813	0.410216
H	-0.033599	1.052285	-1.846815
N	-0.520967	1.031142	0.838148
H	-1.53634	0.812457	0.855264
H	-0.44527	1.909995	0.331678
N	0.077475	-0.990589	-2.316283
H	-0.45675	-1.82199	-2.088884
H	1.039154	-1.179796	-2.056402
H	-3.138096	0.0	0.0
