13

C	0.0	0.0	0.0
C	-0.523928	0.040419	-1.412705
F	1.421282	0.0	0.0
H	-1.619049	0.049632	-1.320303
H	-0.295205	-0.929691	0.492319
H	-0.200105	0.980437	-1.878054
N	-0.461426	1.100042	0.754154
H	-0.219653	1.97437	0.312452
H	-0.114923	1.081203	1.70118
N	-0.082392	-1.077855	-2.248839
H	0.888988	-1.272733	-2.035145
H	-0.619855	-1.89557	-1.987492
H	-3.764816	0.0	0.0
