13

C	0.0	0.0	0.0
C	-0.428294	-0.030617	-1.48914
F	1.387292	0.0	0.0
H	0.462088	0.208692	-2.081686
H	-0.309141	-0.917755	0.505343
H	-0.724147	-1.06324	-1.735182
N	-0.498251	1.106499	0.753967
H	-1.459737	0.849068	0.993646
H	-0.613747	1.877146	0.102169
N	-1.468503	0.960844	-1.750404
H	-1.749111	0.879244	-2.722908
H	-2.290319	0.671977	-1.175827
H	-3.344523	0.0	0.0
