13

C	0.0	0.0	0.0
C	-0.419456	-0.0207	-1.456866
F	1.415117	0.0	0.0
H	-0.044806	-0.94179	-1.933961
H	-0.319894	-0.923887	0.487485
H	-1.515384	-0.042847	-1.427872
N	-0.50231	1.107485	0.742022
H	-0.438151	1.910821	0.123
H	-1.511759	0.897603	0.814339
N	0.047815	1.204479	-2.115563
H	-0.427026	1.315436	-3.001688
H	1.040237	1.125826	-2.296316
H	-3.202807	0.0	0.0
