17

C	0.0	0.0	0.0
C	-0.497605	-0.304835	-1.417864
F	1.357382	0.0	0.0
H	0.260153	-0.988677	-1.815412
N	-0.405143	1.351662	0.554947
O	-0.327226	1.469677	1.773363
O	-0.663957	2.253072	-0.230988
C	-0.384782	-1.107208	0.963921
H	-1.453142	-1.064022	1.140096
H	-0.106914	-2.060819	0.505268
H	0.198376	-0.971	1.874824
N	-0.39828	0.868901	-2.367937
O	-1.418982	1.319922	-2.861876
O	0.746992	1.253252	-2.597292
C	-1.810287	-0.970777	-1.524592
N	-2.432987	-1.810895	-2.080257
F	-2.540565	0.0	0.0
