17

C	0.0	0.0	0.0
C	-0.689733	-0.008482	-1.354578
F	1.351181	0.0	0.0
H	-1.848238	0.039533	-0.984434
N	-0.33161	1.375952	0.635521
O	-1.214462	2.055722	0.138637
O	0.399396	1.694414	1.580169
C	-0.509003	-1.083184	0.916183
H	-0.105498	-2.043802	0.588514
H	-1.601266	-1.056472	0.859407
H	-0.147218	-0.871244	1.924244
N	-0.388714	-1.338672	-1.987776
O	-1.234082	-2.220918	-1.867785
O	0.698053	-1.466332	-2.561162
C	-0.160063	1.033358	-2.221788
N	0.284366	1.858966	-2.936035
F	-2.903242	0.0	0.0
