19
Coordinates from ORCA-job run
  C   0.81727138685523     -0.42267234035060     -0.22925023723825
  C   -0.63249116936014     -0.48079417507153      0.27242956996204
  Br  1.28284566441751     -2.08602261422702     -1.14965783901383
  H   -0.73072386813191     -1.43692755542696      0.79554392392190
  N   1.69544736393641     -0.38755424516186      1.02061605109504
  O   1.57673929339346     -1.31845406992171      1.80739943349952
  O   2.40003692316193      0.60526134239904      1.18430566425153
  C   1.15491428489000      0.73818191020462     -1.13668275676208
  H   0.59752982302173      0.64022822353187     -2.06790997677457
  H   2.21927821168494      0.74482680492397     -1.36671583603811
  H   0.90234672827703      1.68578507046896     -0.65976082240056
  C   -1.63454441936111     -0.43129408191853     -0.87781279722077
  H   -1.41842538532978     -1.17886319996487     -1.64255139301312
  H   -2.63731947696428     -0.62805766021161     -0.49124412604443
  H   -1.65167395182663      0.55563017786638     -1.34685465884172
  C   -0.91611288078204      0.63935228594641      1.27822085147672
  H   -0.78821901048519      1.62907774604185      0.83338989094973
  H   -1.95394802939195      0.56029789337330      1.61044913963923
  H   -0.28495148800520      0.57199848749831      2.16608591855172
