19
Coordinates from ORCA-job run
  C   0.82930368431150     -0.37984775524437     -0.25894122974538
  C   -0.61340847869168     -0.51763889904823      0.24714685968020
  Br  1.34342344119382     -1.96930684561317     -1.27949134178833
  H   -0.67490559119636     -1.50588555351397      0.71305652971722
  N   1.71644808741177     -0.38846086205165      0.98510098301487
  O   1.63595521379791     -1.36753788730353      1.71621430465217
  O   2.38890792264505      0.61641371302599      1.20175873158409
  C   1.11940221567297      0.84315204653105     -1.09859372423519
  H   2.18065952142723      0.89907390848047     -1.33626355129737
  H   0.55653327867518      0.78133246875625     -2.02960133563781
  H   0.84059849191491      1.75209758462688     -0.56447889731652
  C   -1.62627529944002     -0.43428528713832     -0.89154522496221
  H   -1.68288039357632      0.57808665978210     -1.29922737346412
  H   -1.39041234812732     -1.12553447990131     -1.70207871142120
  H   -2.61792442291479     -0.69041352817956     -0.51109586697362
  C   -0.92630445922641      0.53048441222092      1.31978308917733
  H   -1.95909133637949      0.39877953253784      1.65101829777498
  H   -0.83214802079342      1.54874047247626      0.93497210712846
  H   -0.28788150670454      0.42975029955636      2.19926635411242
