12
Coordinates from ORCA-job run
  C   -0.51094802727032     -0.08489789266773      0.61980246656617
  C   0.54840295045397      0.07577275883364     -0.45201927638921
  F   -0.20358448703403     -1.11855564041386      1.44019854872619
  H   0.65139502096738     -0.89947562693856     -0.93956729365991
  H   -0.66123242912930      0.82151199395403      1.20413788133529
  H   0.18092519214126      0.78625750136911     -1.19810058943020
  N   -1.82599452696268     -0.38311948182801     -0.05374794185568
  O   -2.45464992272702      0.60472723276543     -0.42597926704392
  O   -2.12609057893450     -1.55635923192228     -0.23369044761913
  N   1.78415675671478      0.51741952085724      0.17637477387183
  H   2.52130226715868     -0.16115062676352      0.06550959256674
  H   2.09631778462177      1.39786949275451     -0.20391844706818
