12
Coordinates from ORCA-job run
  C   -0.44120117678369     -0.12871225804423      0.62397701812779
  C   0.47501943351188      0.24857859136386     -0.51499163977301
  F   0.04991055189447     -1.21119215174022      1.28183611010447
  H   0.50786394812376     -0.60182043170590     -1.21249544140268
  H   -0.59428811892426      0.68907343492919      1.32764694642891
  H   0.03473784665139      1.10170044486859     -1.03280452839413
  N   -1.79878192984230     -0.47919900057116      0.06598599546839
  O   -2.14924296962758     -1.65056860756914      0.06717119930459
  O   -2.42440929577543      0.47969318520855     -0.37744678518510
  N   1.75720071678921      0.63271656657446      0.05520178319017
  H   2.26263052006269     -0.19098081603178      0.35377923649187
  H   2.31956047391985      1.10871104271777     -0.63685989436126
