12
Coordinates from ORCA-job run
  C   -0.38126009216111     -0.54469644480576      0.67618836484870
  C   0.77784665625774     -0.44573239344289     -0.27696016677756
  F   -0.86512768251294     -1.82210697754751      0.74125744063226
  H   1.58920180711677     -1.03952664887529      0.15101524584846
  H   -0.14726457453474     -0.18604846303882      1.67695901173000
  H   0.48728720662266     -0.90125833765332     -1.22869579759548
  N   -1.53021828744760      0.31269055440084      0.19904699730660
  O   -2.26846740563658      0.76929207565220      1.06641955266465
  O   -1.66876387670466      0.44546060707126     -1.01585202800499
  N   1.16726926583735      0.95602558059206     -0.35485342227776
  H   2.15939029578093      1.04747700752294     -0.51742474583643
  H   0.68010668738218      1.40742344012429     -1.11710045253843
