16

C	0.0	0.0	0.0
C	-0.278306	0.119015	-1.520749
Br	1.990353	0.0	0.0
H	-0.36655	1.174063	-1.77203
H	0.540899	-0.328031	-2.081247
N	-0.512442	1.171457	0.647336
H	-0.400877	1.060464	1.650546
H	-1.526168	1.156763	0.467937
C	-0.402348	-1.31947	0.642382
H	0.014314	-2.176874	0.116416
H	-1.492165	-1.376812	0.63591
H	-0.043107	-1.323504	1.675479
N	-1.461147	-0.572758	-2.129155
O	-1.573736	-1.775815	-1.921847
O	-2.104963	0.074052	-2.946452
Cl	-3.619714	0.0	0.0
