16

C	0.0	0.0	0.0
C	-0.474712	0.088449	-1.439897
Br	2.048403	0.0	0.0
H	-1.572896	0.175355	-1.386405
H	-0.168568	-0.784975	-2.010499
N	-0.499646	1.029334	0.777115
H	-0.331681	0.953793	1.765773
H	-0.409747	1.955208	0.39482
C	-0.40912	-1.350718	0.559824
H	-0.076519	-1.437424	1.597562
H	0.038855	-2.165144	-0.011647
H	-1.503083	-1.392905	0.521912
N	0.041696	1.259228	-2.197734
O	0.013125	2.364965	-1.657803
O	0.437437	1.056032	-3.34359
Cl	-3.801746	0.0	0.0
