16

C	0.0	0.0	0.0
C	-0.471197	-0.085576	-1.458092
Br	1.970003	0.0	0.0
H	-0.211482	0.827795	-1.991458
H	-1.558366	-0.227957	-1.41875
N	-0.488869	1.209877	0.603518
H	-0.323733	2.000858	-0.010905
H	-1.503424	1.090282	0.691585
C	-0.440855	-1.177902	0.851541
H	-1.531853	-1.227898	0.816518
H	-0.020184	-2.113128	0.489711
H	-0.114847	-0.995837	1.876988
N	0.114853	-1.191436	-2.259563
O	0.807327	-0.882582	-3.232092
O	-0.131492	-2.346977	-1.916242
Cl	-3.655876	0.0	0.0
