16

C	0.0	0.0	0.0
C	-0.462169	-0.1542	-1.453843
Br	1.980314	0.0	0.0
H	-1.55434	-0.035802	-1.437494
H	-0.172902	-1.117254	-1.869277
N	-0.466379	1.163796	0.692871
H	-0.333718	1.978429	0.104525
H	-1.476044	1.034785	0.805801
C	-0.440047	-1.242416	0.760066
H	-0.112687	-1.148503	1.796213
H	-1.531824	-1.290761	0.725441
H	-0.009496	-2.146368	0.325645
N	0.097419	0.862335	-2.380649
O	0.635297	0.458378	-3.411517
O	-0.017087	2.049911	-2.076119
Cl	-3.652731	0.0	0.0
