16

C	0.0	0.0	0.0
C	-0.491107	0.141757	-1.435007
Br	2.004335	0.0	0.0
H	-0.149751	-0.696499	-2.038461
H	-1.586435	0.19124	-1.386928
N	-0.442823	1.106787	0.791904
H	-0.313344	0.881592	1.772201
H	-1.447181	1.212342	0.630539
C	-0.425389	-1.370697	0.508614
H	-0.029404	-2.178493	-0.111876
H	-0.066004	-1.511289	1.530864
H	-1.519543	-1.383306	0.501164
N	-0.006208	1.366245	-2.121227
O	-0.511833	2.439786	-1.804371
O	0.865641	1.220655	-2.982186
Cl	-3.66517	0.0	0.0
