13

C	0.0	0.0	0.0
C	-0.303008	-0.014866	-1.554307
Cl	1.778247	0.0	0.0
H	0.532474	0.544868	-1.990871
H	-0.368668	0.935352	0.417652
C	-0.48918	-1.140727	0.759445
N	-0.6178	-2.122234	1.398307
N	-1.532084	0.630512	-1.957562
H	-2.233423	0.381739	-1.186444
H	-1.846358	0.204071	-2.825288
C	-0.111523	-1.39941	-2.047572
N	0.049307	-2.444764	-2.562004
H	-2.760735	0.0	0.0
