13

C	0.0	0.0	0.0
C	-0.625824	0.061017	-1.386868
Cl	1.773091	0.0	0.0
H	-1.717361	0.251091	-1.057047
H	-0.341994	0.871485	0.563641
C	-0.436927	-1.206191	0.712634
N	-0.596153	-2.204291	1.312459
N	-0.498339	-1.230596	-2.068409
H	-1.335552	-1.752894	-1.812515
H	-0.53367	-1.085402	-3.070417
C	-0.083629	1.152421	-2.166334
N	0.310656	2.04093	-2.831096
H	-2.836971	0.0	0.0
