13

C	0.0	0.0	0.0
C	-0.560455	0.057474	-1.420741
Cl	1.77306	0.0	0.0
H	-1.64871	0.263751	-1.175251
H	-0.361038	0.873942	0.546577
C	-0.43493	-1.196865	0.724112
N	-0.574995	-2.132432	1.422443
N	-0.364771	-1.229375	-2.095332
H	-0.53299	-1.100548	-3.08748
H	-1.116088	-1.824293	-1.749645
C	0.039348	1.142125	-2.177713
N	0.464251	2.035276	-2.81505
H	-2.77034	0.0	0.0
