13

C	0.0	0.0	0.0
C	-0.38102	-0.094601	-1.540789
Cl	1.77957	0.0	0.0
H	0.407295	0.482678	-2.035699
H	-0.35835	0.952623	0.387995
C	-0.465985	-1.09408	0.840288
N	-0.646355	-2.013791	1.551117
N	-1.654099	0.39406	-1.987017
H	-2.369277	0.157636	-1.213889
H	-1.603006	1.410347	-1.981381
C	-0.170757	-1.488664	-1.973759
N	0.01258	-2.58683	-2.347145
H	-3.036955	0.0	0.0
