13

C	0.0	0.0	0.0
C	-0.49013	-0.083211	-1.473502
Cl	1.778204	0.0	0.0
H	0.347224	0.257542	-2.0918
H	-0.333902	0.968865	0.372107
C	-0.460899	-1.065466	0.88422
N	-0.644079	-1.968744	1.613726
N	-1.599761	0.822783	-1.65835
H	-1.957021	0.699542	-2.604173
H	-2.384876	0.503378	-0.970575
C	-0.693479	-1.499971	-1.871982
N	-0.809962	-2.583726	-2.314248
H	-3.240741	0.0	0.0
