13

C	0.0	0.0	0.0
C	-0.521476	0.073935	-1.443668
Cl	1.777187	0.0	0.0
H	0.244508	-0.325482	-2.11824
H	-0.316518	0.88034	0.549802
C	-0.442267	-1.20005	0.718481
N	-0.535724	-2.198276	1.335881
N	-0.723089	1.488484	-1.751988
H	-1.579765	1.7203	-1.242255
H	-0.95013	1.553916	-2.740905
C	-1.77517	-0.714988	-1.603506
N	-2.383392	-1.432023	-2.338257
H	-2.354341	0.0	0.0
