17

C	-0.11643	-0.129274	-1.540611
C	0.0	0.0	0.0
F	-1.29649	-0.809706	-1.947271
H	1.097653	0.0	0.0
C	-0.278487	1.211925	-2.172583
N	-0.37138	2.257994	-2.700865
N	1.027865	-0.834943	-1.989397
H	1.215689	-0.685281	-2.971412
H	1.850459	-0.59032	-1.385657
C	-0.544438	-1.246841	0.66687
H	-0.142715	-2.139827	0.184963
H	-0.239093	-1.237569	1.715146
H	-1.638687	-1.286592	0.619282
N	-0.545385	1.20496	0.602256
H	-1.470115	1.408199	0.236171
H	0.055872	1.98753	0.375629
F	2.74802	0.0	0.0
