17

C	-0.171177	-0.170558	-1.516966
C	0.0	0.0	0.0
F	-1.358741	-0.872325	-1.856546
H	1.097463	0.0	0.0
C	-0.34515	1.135694	-2.208518
N	-0.436545	2.116666	-2.846697
N	0.957594	-0.903422	-1.978007
H	1.792779	-0.640866	-1.410991
H	1.120448	-0.772944	-2.967051
C	-0.497677	-1.237831	0.726266
H	-0.101766	-2.139317	0.255468
H	-1.592939	-1.296718	0.718599
H	-0.150219	-1.207393	1.763254
N	-0.540795	1.255708	0.49773
H	-1.391203	1.095751	1.025593
H	0.142803	1.673214	1.115831
F	2.730684	0.0	0.0
