17

C	-0.15337	-0.030539	-1.527871
C	0.0	0.0	0.0
F	-0.07073	-1.361157	-1.954736
H	1.095251	0.0	0.0
C	-1.487696	0.453675	-1.964615
N	-2.572454	0.806759	-2.244188
N	0.907152	0.697026	-2.170174
H	1.746759	0.502489	-1.588178
H	0.705278	1.683403	-2.051579
C	-0.663208	-1.139293	0.7411
H	-0.29635	-2.101951	0.383705
H	-1.756244	-1.117961	0.623941
H	-0.433206	-1.061095	1.808338
N	-0.399258	1.343028	0.429422
H	0.250838	1.652367	1.141134
H	-1.334515	1.336749	0.82345
F	2.704567	0.0	0.0
