17

C	-0.573648	0.040467	-1.410889
C	0.0	0.0	0.0
F	-0.005486	1.135971	-2.060506
H	1.099273	0.0	0.0
C	-0.20415	-1.165532	-2.185087
N	0.074744	-2.129338	-2.79392
N	-2.006244	0.219281	-1.483648
H	-2.469369	-0.676423	-1.392874
H	-2.231806	0.789701	-0.669718
C	-0.49707	-1.214028	0.761136
H	0.015146	-1.249069	1.726855
H	-1.580118	-1.188097	0.940003
H	-0.241139	-2.137942	0.236822
N	-0.509411	1.23406	0.651985
H	0.148867	1.962545	0.387834
H	-0.375723	1.109141	1.650373
F	2.66151	0.0	0.0
