17

C	-0.511389	0.054526	-1.426896
C	0.0	0.0	0.0
F	-0.13876	1.232999	-2.042695
H	1.096454	0.0	0.0
C	0.104669	-1.036358	-2.242907
N	0.461346	-1.932405	-2.914286
N	-1.958012	0.000878	-1.512778
H	-2.234061	-0.060704	-2.48722
H	-2.283563	-0.835585	-1.04478
C	-0.416588	-1.292714	0.694786
H	-0.176706	-2.178747	0.098913
H	-1.486747	-1.318865	0.952852
H	0.156351	-1.367948	1.621597
N	-0.42069	1.206695	0.705816
H	0.373648	1.507727	1.256393
H	-1.200876	1.024891	1.324836
F	2.638715	0.0	0.0
