17

C	-0.572237	0.038753	-1.411541
C	0.0	0.0	0.0
F	-0.003488	1.131062	-2.063502
H	1.099288	0.0	0.0
C	-0.20696	-1.171559	-2.181541
N	0.063965	-2.14107	-2.784815
N	-2.00606	0.218837	-1.484386
H	-2.46807	-0.677128	-1.391561
H	-2.230147	0.791469	-0.670814
C	-0.498179	-1.211926	0.763271
H	-0.243476	-2.13723	0.241154
H	-1.5818	-1.184765	0.941495
H	0.013004	-1.245101	1.730147
N	-0.506795	1.236414	0.6487
H	0.159898	1.959234	0.39465
H	-0.388096	1.109459	1.648529
F	2.66211	0.0	0.0
