12
Coordinates from ORCA-job run
  C   -0.44495816888800     -0.01090814568877     -0.39864000328429
  C   0.84646640866740      0.69871033766305      0.01662381113513
  Br  -0.25571954131641     -0.85391267219840     -2.12135521437464
  H   0.68637135616006      1.18711811322113      0.98002643161030
  H   1.06701870675897      1.46542434522105     -0.73056026492214
  C   -1.55781083397975      0.92797979120425     -0.42790584429917
  N   -2.43361821223555      1.71322053179254     -0.42712470223334
  N   -0.81758590414758     -1.08024509322199      0.67282007321616
  O   -1.52397935290435     -2.00526679339701      0.31824587064712
  O   -0.40620301022799     -0.83623602048272      1.79874128580719
  C   1.96601367976224     -0.23188862653926      0.11798891759647
  N   2.87200487235097     -0.97299576757387      0.20013963910120
