16

C	0.0	0.0	0.0
C	-0.341428	0.262673	-1.508333
Br	1.950802	0.0	0.0
H	-0.122552	1.318201	-1.68395
H	0.401223	-0.314741	-2.067491
N	-0.401302	1.175159	0.890877
O	-0.503016	0.947415	2.092047
O	-0.544537	2.275571	0.370272
C	-0.617621	-1.255662	0.54275
H	-1.708196	-1.056777	0.50327
H	-0.353621	-2.092486	-0.10991
H	-0.287097	-1.462222	1.559742
N	-1.653423	-0.068968	-1.993196
H	-1.717468	-1.079943	-2.05446
H	-2.383267	0.168324	-1.265489
F	-3.20588	0.0	0.0
