16

C	0.0	0.0	0.0
C	-0.324816	0.321161	-1.499265
Br	1.950963	0.0	0.0
H	-0.043472	1.367823	-1.649446
H	0.389432	-0.282689	-2.069037
N	-0.406052	1.138022	0.931425
O	-0.501954	0.866094	2.123973
O	-0.561254	2.254072	0.449738
C	-0.61822	-1.276049	0.488206
H	-1.708127	-1.074412	0.459695
H	-0.357349	-2.084417	-0.200507
H	-0.285657	-1.528384	1.493838
N	-1.649374	0.07072	-1.997048
H	-2.366257	0.263334	-1.244761
H	-1.7462	-0.928976	-2.138919
F	-3.185231	0.0	0.0
