16

C	0.0	0.0	0.0
C	-0.551584	0.01896	-1.416455
Br	1.950912	0.0	0.0
H	-1.640606	0.092631	-1.206747
H	-0.186604	0.903794	-1.940769
N	-0.376331	1.311189	0.683798
O	-0.50242	1.303028	1.902612
O	-0.471264	2.310814	-0.025056
C	-0.516724	-1.160906	0.80496
H	-0.124	-1.147162	1.819897
H	-0.218149	-2.07545	0.292392
H	-1.611931	-1.020099	0.771309
N	-0.212723	-1.230905	-2.099325
H	0.43013	-1.057688	-2.859458
H	-1.058235	-1.633591	-2.479764
F	-2.90661	0.0	0.0
