16

C	0.0	0.0	0.0
C	-0.331127	0.238271	-1.517177
Br	1.950944	0.0	0.0
H	-0.092993	1.287049	-1.712836
H	0.410093	-0.358558	-2.057634
N	-0.41093	1.179896	0.871402
O	-0.549184	2.274125	0.336624
O	-0.524836	0.966369	2.074131
C	-0.60442	-1.25749	0.552467
H	-0.33543	-2.092727	-0.099238
H	-0.264903	-1.458144	1.567485
H	-1.695257	-1.068067	0.518267
N	-1.641358	-0.089733	-2.007637
H	-2.367678	0.138952	-1.273677
H	-1.7027	-1.099458	-2.082019
F	-3.169171	0.0	0.0
