16

C	0.0	0.0	0.0
C	-0.633387	0.098044	-1.362627
Br	1.941875	0.0	0.0
H	-0.434335	-0.854661	-1.880962
H	-1.72327	0.152059	-1.106337
N	-0.292231	1.406301	0.706708
O	-1.463695	1.629653	0.94922
O	0.632789	2.168454	0.967622
C	-0.639014	-1.067506	0.842638
H	-0.27431	-1.028487	1.872375
H	-1.732953	-0.853089	0.754034
H	-0.402237	-2.049279	0.421564
N	-0.174361	1.283442	-2.075644
H	-0.821712	1.493938	-2.822951
H	0.741799	1.124601	-2.478001
F	-3.174604	0.0	0.0
