16

C	-0.576238	-0.038601	-1.388779
C	0.0	0.0	0.0
Cl	0.168766	1.325543	-2.364606
H	1.089538	0.0	0.0
H	-0.292556	0.977106	0.408179
N	-0.178607	-1.287817	-2.17705
O	-0.815523	-1.492777	-3.210956
O	0.733695	-1.978199	-1.749045
N	-1.993557	-0.011736	-1.424205
H	-2.321923	0.032986	-2.380977
H	-2.320379	0.792282	-0.904695
C	-0.511468	-1.117078	0.904356
H	-0.196384	-2.090137	0.526426
H	-0.050002	-0.993203	1.887545
H	-1.598621	-1.116673	1.017227
H	2.987277	0.0	0.0
