16

C	-0.564322	0.05614	-1.398539
C	0.0	0.0	0.0
Cl	0.011208	1.456822	-2.316714
H	1.089859	0.0	0.0
H	-0.325448	-0.957507	0.425046
N	-0.044579	-1.227202	-2.135761
O	0.824888	-1.163941	-2.987954
O	-0.602195	-2.259377	-1.755581
N	-1.992879	0.065439	-1.420221
H	-2.31974	-0.762903	-0.937595
H	-2.336371	0.052621	-2.374181
C	-0.471907	1.157209	0.871141
H	-0.161227	2.10921	0.436935
H	0.018856	1.073093	1.844305
H	-1.555075	1.176993	1.012307
H	2.957125	0.0	0.0
