16

C	-0.515307	0.001211	-1.417626
C	0.0	0.0	0.0
Cl	0.040831	-1.39691	-2.360638
H	1.092346	0.0	0.0
H	-0.324423	0.949923	0.445221
N	-2.091825	-0.155703	-1.300497
O	-2.62309	-1.259816	-1.351143
O	-2.68313	0.898157	-1.058331
N	-0.18941	1.181063	-2.109972
H	-0.610219	1.217703	-3.031102
H	-0.43717	1.994587	-1.562601
C	-0.484431	-1.165063	0.851369
H	0.069984	-1.148041	1.792963
H	-1.555004	-1.129198	1.075393
H	-0.267031	-2.116778	0.363202
H	2.938603	0.0	0.0
