16

C	-0.451548	-0.055667	-1.4158
C	0.0	0.0	0.0
Cl	-2.420009	0.061422	-1.476561
H	1.094174	0.0	0.0
H	-0.355465	0.927748	0.445381
N	-0.146498	1.229672	-2.189664
O	-0.055909	1.122609	-3.408911
O	-0.047853	2.268788	-1.55425
N	0.018446	-1.115306	-2.139204
H	-0.314861	-1.196325	-3.084727
H	0.11288	-1.974802	-1.627947
C	-0.435674	-1.210818	0.816711
H	-1.511401	-1.396824	0.768829
H	-0.151618	-1.045625	1.858502
H	0.102058	-2.111751	0.503951
H	2.861646	0.0	0.0
