16

C	-0.295108	-0.142049	-1.482604
C	0.0	0.0	0.0
Cl	-1.915927	-0.876517	-1.798344
H	1.097163	0.0	0.0
H	-0.293344	-0.950729	0.458865
N	-0.327462	1.272228	-2.091138
O	-1.377484	1.906893	-2.057192
O	0.751389	1.699068	-2.482687
N	0.695527	-0.884399	-2.20102
H	0.565772	-1.863384	-1.974119
H	1.607891	-0.6113	-1.802292
C	-0.610591	1.176628	0.734957
H	-1.700255	1.208822	0.649304
H	-0.342662	1.110652	1.792641
H	-0.208249	2.120332	0.360731
H	2.90929	0.0	0.0
