16

C	-0.273193	-0.204831	-1.483075
C	0.0	0.0	0.0
Cl	-0.14027	-1.924677	-1.933767
H	1.091533	0.0	0.0
H	-0.300697	1.035818	0.209273
N	-1.716974	0.236876	-1.779507
O	-1.862	1.419285	-2.089332
O	-2.634521	-0.551143	-1.57472
N	0.606313	0.547102	-2.327044
H	0.416395	1.529277	-2.157719
H	1.548593	0.364613	-1.955916
C	-0.617301	-0.965642	0.991436
H	-1.703814	-1.040046	0.887045
H	-0.189654	-1.961562	0.873526
H	-0.389081	-0.627479	2.005794
H	2.910957	0.0	0.0
