10
Coordinates from ORCA-job run
  C   -0.78852818958464     -0.24715243525358      0.18981442700961
  C   0.72450979625662     -0.50086138422408      0.16937036691228
  Cl  -1.64354864410451     -1.80593718770073      0.04320034303470
  H   1.00663583922190     -0.95154739426765     -0.78533786879962
  H   -1.08279148460845      0.18672101585547      1.14738073320442
  H   0.97528521737143     -1.20839344831337      0.96358664694029
  C   -1.19436452516216      0.65144532495192     -0.88659413251183
  N   -1.50065995113698      1.38055357842124     -1.75464866790654
  C   1.46340478634616      0.74370184657666      0.37076634112076
  N   2.03905715540064      1.75147008395411      0.54346181099591
