10
Coordinates from ORCA-job run
  C   -0.74271016071596     -0.46615203884270     -0.08722824657242
  C   0.63039367979124     -0.32753308957047      0.57881899331082
  Cl  -0.59384109856753     -1.30426961475751     -1.65245282444057
  H   1.06341008196213     -1.32361440702039      0.69994260779564
  H   -1.37851672970161     -1.09104183792294      0.54393142284908
  H   0.49918502937512      0.11087319601111      1.57314500185205
  C   -1.38631091431978      0.83246866328675     -0.26404478466324
  N   -1.90474077997948      1.88063917496826     -0.37143521297679
  C   1.54166222806070      0.50679871450263     -0.20009452517117
  N   2.27346866409518      1.17983123934525     -0.82258243198339
