10
Coordinates from ORCA-job run
  C   -0.78200072008393     -0.28913590811365      0.14979146166524
  C   0.73760083171803     -0.49773142835275      0.11541642671751
  Cl  -1.59249630453466     -1.84168499974965     -0.19088722481862
  H   1.00246886142555     -1.28708667533789      0.82315521764010
  H   -1.09519413483185      0.01891019804274      1.14922055815277
  H   1.03940689467351     -0.82456724199577     -0.88263243952859
  C   -1.20557319884006      0.72037285690531     -0.81583923339172
  N   -1.52878971187225      1.53954402970553     -1.59269436501944
  C   1.43922034019821      0.73347774925138      0.47154833573342
  N   1.98435714214744      1.72790141964476      0.77292126284933
