10
Coordinates from ORCA-job run
  C   -0.78390772240965     -0.28123850013527      0.15855786497415
  C   0.73750128385187     -0.48047933508644      0.17215461624985
  Cl  -1.57859166755810     -1.86271864416615     -0.06223023773007
  H   1.06150026088468     -0.88772994637580     -0.78869339695212
  H   -1.11866608053531      0.11047372181096      1.12111010190131
  H   0.99222915037561     -1.20562440534240      0.94910899817613
  C   -1.19182348618982      0.63861387871235     -0.89895941901599
  N   -1.49887077218335      1.38482311469438     -1.75204798471544
  C   1.42405040902200      0.78177101652714      0.43771033603168
  N   1.95557862474208      1.80310909936124      0.66428912108051
