10
Coordinates from ORCA-job run
  C   -0.69898567644424     -0.27925800437099     -0.00750918519924
  C   0.70228477357432      0.34445101768709      0.03012823025021
  Cl  -0.77156351139440     -1.58541442734580     -1.21659168996150
  H   0.96622041774786      0.70346979483396     -0.96770997751556
  H   -0.93798420269712     -0.72967846783085      0.95806828014160
  H   0.69394159958609      1.20349256545763      0.70824231405089
  C   -1.69067219389001      0.74831622681725     -0.31330734212775
  N   -2.46198770784019      1.60231239583510     -0.54661794449547
  C   1.70185626956360     -0.61760982896330      0.48739499442848
  N   2.49789023179410     -1.39008127212010      0.86890232042832
