10
Coordinates from ORCA-job run
  C   -0.74951073289315     -0.45862083967974     -0.08478616561911
  C   0.64838300828361     -0.36130948781021      0.53553632061012
  Cl  -0.66406544530343     -1.21039855217329     -1.69777761714964
  H   1.08098445454567     -1.36364748668910      0.58533588494533
  H   -1.36499264361089     -1.11456533556922      0.53492950071978
  H   0.55689315582393      0.02213365789754      1.55667735704410
  C   -1.39054510317923      0.85080574881619     -0.16567598904046
  N   -1.90037592725391      1.90814860563358     -0.19499297170934
  C   1.53445569131972      0.51179512114493     -0.22980642571358
  N   2.24877354226767      1.21565856842931     -0.83843989408719
