10
Coordinates from ORCA-job run
  C   -0.76004756123208     -0.37476767679774      0.02877762505883
  C   0.77065209730334     -0.45660220581943     -0.03779111045575
  Cl  -1.45734771332155     -1.77944286925978     -0.82178854625958
  H   1.09141867937681     -1.41618693927873      0.37500882730645
  H   -1.09334827237090     -0.43543317876830      1.06663894920065
  H   1.09437636677325     -0.41275584298145     -1.08047348585370
  C   -1.25477160003982      0.86557487686052     -0.56099508729811
  N   -1.63079562013102      1.87173632213444     -1.03545494333868
  C   1.38306201378748      0.63166169365773      0.72105343883105
  N   1.85680160985450      1.50521582025274      1.34502433280884
