10
Coordinates from ORCA-job run
  C   -0.75296472334808     -0.45606393349984     -0.06724574384172
  C   0.65092535543454     -0.35261513463816      0.53831802823768
  Cl  -0.68608149580107     -1.24683875223648     -1.66268069305553
  H   1.07803618512551     -1.35612064084357      0.60815851200405
  H   -1.36667564488741     -1.09346779272666      0.57319738074307
  H   0.57078321246608      0.05561020580148      1.55078212592592
  C   -1.38691613726196      0.85478440634911     -0.17463423335576
  N   -1.89044645047004      1.91430887310373     -0.22584593281409
  C   1.53522385717024      0.49705564198904     -0.25497658722123
  N   2.24811584157219      1.18234712670136     -0.88607285662238
