10
Coordinates from ORCA-job run
  C   -0.76934845509396     -0.43200327993332     -0.00963681708143
  C   0.66949613991207     -0.35556665615884      0.51212930371783
  Cl  -0.81841835081453     -1.26925489117600     -1.58147589199492
  H   1.06807608526209     -1.37015732383244      0.59095404345185
  H   -1.36354690501620     -1.03139695373887      0.68372922041755
  H   0.66037077358763      0.08629311712855      1.51348597338213
  C   -1.36951207094041      0.89446912395760     -0.11976574493715
  N   -1.84365994002562      1.96715996478870     -0.17718942269396
  C   1.53391316053799      0.43693710894929     -0.35826095234389
  N   2.23262956259094      1.07251979001533     -1.05396971191800
