10
Coordinates from ORCA-job run
  C   -0.77230738457259     -0.42802647753187     -0.00730155602848
  C   0.66415375015945     -0.35237193712084      0.52129679123900
  Cl  -0.81730988729311     -1.29103493232593     -1.56569734119221
  H   0.65234587043871      0.10618932920201      1.51501725311062
  H   -1.37467043425215     -1.01228735223770      0.69210550507139
  H   1.05554706109383     -1.36790509791946      0.61928381459133
  C   -1.36231285199532      0.90071136794961     -0.14320998803435
  N   -1.82674048477062      1.97657645931181     -0.21949745119055
  C   1.53775533389164      0.42175963355223     -0.35619954765950
  N   2.24253902730018      1.04838900712013     -1.05379747990725
