15
Coordinates from ORCA-job run
  C   -0.60659170444774      0.44291781352272     -0.34189203382712
  C   0.87727117920550      0.27698874241890      0.04266229918537
  Cl  -0.81598993493158      1.59083406887994     -1.63189744465859
  H   1.19103960573254      1.26236302631654      0.39944287561327
  N   -1.40347950661923      0.94246217877249      0.85899716760519
  O   -0.76062673502760      1.39282880343379      1.79878808389997
  O   -2.61755467015186      0.90063772994622      0.74029689943817
  N   -1.16350481074717     -0.92792287881979     -0.72024102677577
  O   -1.64888065466991     -1.58173342881894      0.19110577293356
  O   -0.98500510718821     -1.27060149057990     -1.88059619571278
  C   1.66602391226752     -0.04841017000545     -1.15289132981763
  N   2.35301319212529     -0.35370562585008     -2.05541167845875
  N   0.99968207219179     -0.71317123294832      1.08595123067071
  H   1.47625092701017     -0.34920197024517      1.89640827927244
  H   1.43935223525053     -1.56528556602288      0.77027710063197
