15
Coordinates from ORCA-job run
  C   -0.59560434306066      0.52221169807202     -0.20098523235039
  C   0.89828728987482      0.15834061247292     -0.16333799833173
  Cl  -0.81793841764033      2.23073334221019     -0.39121000164898
  H   1.32607090344660      0.68589721868029     -1.02071309858179
  N   -1.32103535827560      0.02534902412490      1.04571053003789
  O   -2.37597715740905      0.56257749905585      1.33420730840887
  O   -0.78182258461567     -0.91605505875159      1.61845055134340
  N   -1.23625163116688     -0.21101226470272     -1.38523071258486
  O   -0.73869892050395      0.05923292477409     -2.46780261803945
  O   -2.13533856587644     -1.00224285081460     -1.14284556436521
  C   1.10395566519730     -1.28210563986335     -0.40048033068293
  N   1.33536518576523     -2.41843528393019     -0.58889884039416
  N   1.48323570151052      0.67768940551814      1.05009063158920
  H   1.39653690197404      0.00918411377060      1.80435312959135
  H   2.45921533078005      0.89863525938344      0.90969224600878
