15
Coordinates from ORCA-job run
  C   -0.69128145384393      0.20244890395837      0.38623656525535
  C   0.84543647624423      0.15450749825204      0.34573219345137
  Cl  -1.26832688432332      0.38275635174815      2.01074675894209
  H   1.15816586946460      1.00427371092915      0.95932188082428
  N   -1.30368824988795     -1.03442617120670     -0.26367113069622
  O   -0.58183210203173     -1.60439691134055     -1.07547902344902
  O   -2.44994656990354     -1.31838481007684      0.03674083819098
  N   -1.15447487432196      1.39725589416748     -0.45547390046773
  O   -0.71792557155787      2.47369732129656     -0.07693488765908
  O   -1.86661907524709      1.16817333281259     -1.42167101802943
  C   1.35279597863319      0.40027318219290     -1.01641641365723
  N   1.82217530646250      0.59647886979788     -2.07541714468933
  N   1.29855779116514     -1.06787804087968      0.96611305100979
  H   2.20614110230732     -0.93764870487839      1.39081878924246
  H   1.35082225684041     -1.81613042677295      0.28735344173174
