15
Coordinates from ORCA-job run
  C   -0.58260975633434      0.19533648006967      0.40351332871197
  C   0.95251741656720      0.18027325250194      0.17452396812261
  Cl  -0.93735123678482      0.33563356147776      2.10180297515950
  H   1.29149774403169      1.10856376106897      0.64909197575857
  N   -1.28647074455540     -1.03302330760838     -0.15821838913670
  O   -0.60676037451949     -1.76644087597911     -0.86913679207688
  O   -2.46487007788572     -1.16210942496727      0.12972721785250
  N   -1.15413517227278      1.39741503876626     -0.35539073350592
  O   -1.78178238604776      1.15669533234819     -1.37657561401366
  O   -0.84264539355496      2.48630957250980      0.10202455533010
  C   1.24151355114968      0.30302864693704     -1.25988401289468
  N   1.48980650059447      0.44189533714444     -2.39881531232118
  N   1.68156039050878     -0.91589557918968      0.74684170644012
  H   1.38969081354525     -1.80030478346634      0.35466925049519
  H   1.61003872555819     -0.92837701161327      1.75482587607845
