15
Coordinates from ORCA-job run
  C   -0.52687380988034      0.48593990769636     -0.40958340078852
  C   0.89432102145106      0.23883613851141      0.11190358715825
  Cl  -0.56048992501541      1.74377340686319     -1.60775651037184
  H   1.24631557188390      1.23501111010325      0.39776442489219
  N   -1.35996440568599      0.89241985133490      0.81388334077037
  O   -1.00838373061623      1.93591669476278      1.33687111000526
  O   -2.24338771623596      0.12873152865503      1.16600975955412
  N   -1.17573841420547     -0.77744535415807     -0.96763614463495
  O   -0.60482839106941     -1.83162732078267     -0.70944185325208
  O   -2.21309136234934     -0.63013181199172     -1.59085820568952
  C   1.75104254611561     -0.24405752658382     -0.98445311707118
  N   2.47741766273988     -0.64264565469388     -1.81728528659542
  N   0.85517533202062     -0.57634966874238      1.30253412239559
  H   0.80381170334060     -1.55922804861781      1.07344374774510
  H   1.66367391750647     -0.39914325235658      1.88260442588266
