15
Coordinates from ORCA-job run
  C   -0.70292789338127      0.26222517209826      0.29280122653750
  C   0.83327360498508      0.14823598668095      0.35705586077596
  Cl  -1.35331008085743      0.47148834617557      1.88862689016216
  H   1.16763875223153      1.01407069618670      0.93661406053065
  N   -1.26547198217851     -0.98498155004838     -0.38415142024372
  O   -0.86097316598436     -1.11474632738047     -1.53384019323173
  O   -2.01093087107177     -1.71717455462824      0.23738768220477
  N   -1.15978501114220      1.43686797470054     -0.55806623191289
  O   -0.35714236477917      2.35617491783364     -0.66660852144437
  O   -2.29593731904178      1.37563853654341     -1.00277530057091
  C   1.47265258672411      0.24509378987031     -0.95892968608594
  N   2.08497475937946      0.29395504492493     -1.95998083547748
  N   1.14011166741835     -1.10953113152750      1.01681220163114
  H   1.70082188865007     -1.71563330209229      0.43536510475523
  H   1.60600542904792     -0.96268359933741      1.89968916236964
