15
Coordinates from ORCA-job run
  C   -0.62804027468447     -0.28844364649719     -0.09549226763742
  C   0.82742507420528      0.17272382198137     -0.01066031894917
  Cl  -0.80821912348375     -1.99278249961744      0.13669876794204
  H   0.82421121520163      1.23427462033340     -0.26783794430338
  N   -1.28083977767098      0.12475711058076     -1.41360121085949
  O   -0.57339097554592      0.71904415696263     -2.21727141576972
  O   -2.46455371886713     -0.15646707196643     -1.52258893939047
  N   -1.40173509763446      0.51971262956481      0.96103344298402
  O   -1.93801877540003     -0.06673021656474      1.87882744639642
  O   -1.37215725344376      1.72379312029334      0.74134043394904
  C   1.65195583777916     -0.54895360026848     -0.99236258310993
  N   2.37534986639290     -1.14731567921300     -1.69868017975030
  N   1.24677559681007      0.02923000096311      1.36887870311086
  H   2.05393983717456      0.61088179602002      1.55183616458146
  H   1.48729756916691     -0.93172454257214      1.57987990080607
