15

C	-0.409485	0.013448	-1.448386
C	0.0	0.0	0.0
Br	-0.116839	-1.75375	-2.216499
H	1.096128	0.0	0.0
N	-1.923125	0.301815	-1.644768
O	-2.658588	-0.046082	-0.735053
O	-2.253227	0.799467	-2.711535
C	0.340847	0.970875	-2.253991
N	0.952889	1.699387	-2.944886
C	-0.421345	-1.138351	0.774464
N	-0.660421	-2.084225	1.432055
N	-0.363597	1.238515	0.644458
O	-0.65749	2.196403	-0.095294
O	-0.215346	1.304018	1.869771
H	2.311457	0.0	0.0
