15

C	-0.50614	-0.037342	-1.422616
C	0.0	0.0	0.0
Br	-2.458674	0.190887	-1.563794
H	1.095805	0.0	0.0
N	0.199769	1.028923	-2.31469
O	-0.43822	1.960591	-2.765232
O	1.388163	0.780466	-2.473406
C	-0.173267	-1.320727	-2.029963
N	0.071729	-2.350756	-2.543691
C	-0.435548	-1.165245	0.72976
N	-0.757795	-2.160658	1.268686
N	-0.322724	1.219993	0.689158
O	-0.230477	2.261159	0.017477
O	-0.48742	1.170291	1.918888
H	2.289502	0.0	0.0
