15

C	-0.351629	0.029166	-1.471921
C	0.0	0.0	0.0
Br	0.335679	-1.601203	-2.295267
H	1.092957	0.0	0.0
N	-1.888666	0.048712	-1.621477
O	-2.385045	1.168132	-1.71825
O	-2.485739	-1.015384	-1.547256
C	0.195892	1.147623	-2.231147
N	0.650632	1.961935	-2.947439
C	-0.510315	-1.165234	0.676513
N	-0.866098	-2.132217	1.246287
N	-0.331004	1.218752	0.713743
O	-0.583246	1.124764	1.922255
O	-0.155051	2.283152	0.104884
H	2.299999	0.0	0.0
