15

C	-0.463279	0.00369	-1.456037
C	0.0	0.0	0.0
Br	-2.360838	0.320742	-1.663861
H	1.095693	0.0	0.0
N	0.329059	1.064208	-2.309665
O	-0.307453	1.918986	-2.912578
O	1.539681	0.934065	-2.213299
C	-0.133565	-1.270986	-2.075868
N	0.139431	-2.29996	-2.577216
C	-0.519899	-1.141277	0.717586
N	-0.92096	-2.096693	1.275675
N	-0.439941	1.272259	0.65522
O	-0.161707	2.293575	0.02551
O	-0.76776	1.219577	1.844196
H	2.381057	0.0	0.0
