17

C	-0.517397	0.00833	-1.435358
C	0.0	0.0	0.0
Br	0.348782	1.473441	-2.427057
H	1.0928	0.0	0.0
N	-0.087596	-1.273447	-2.147482
O	-0.621988	-1.510318	-3.231134
O	0.771021	-1.96009	-1.60605
C	-2.017782	0.142824	-1.597843
H	-2.286909	0.183874	-2.651684
H	-2.504823	-0.717378	-1.130481
H	-2.364465	1.053695	-1.107774
C	-0.561027	-1.15787	0.685783
N	-1.038136	-2.082053	1.236922
N	-0.288733	1.214954	0.75655
H	-1.042598	1.760159	0.362575
H	0.567008	1.764572	0.726736
H	2.593249	0.0	0.0
