17

C	-0.450191	-0.127267	-1.439286
C	0.0	0.0	0.0
Br	-2.426108	-0.350432	-1.608451
H	1.105385	0.0	0.0
N	-0.096296	1.179779	-2.143275
O	1.032739	1.214531	-2.626669
O	-0.901389	2.100613	-2.142724
C	0.250625	-1.280635	-2.115548
H	0.055444	-1.287043	-3.189107
H	1.322922	-1.169698	-1.918754
H	-0.101236	-2.21746	-1.681482
C	-0.391449	-1.193165	0.744454
N	-0.681513	-2.130077	1.39582
N	-0.367245	1.247775	0.630585
H	-1.236473	1.182408	1.143935
H	0.389833	1.504745	1.257298
H	2.586752	0.0	0.0
