17

C	-0.383501	-0.110848	-1.457279
C	0.0	0.0	0.0
Br	-2.352535	-0.141449	-1.722735
H	1.107238	0.0	0.0
N	0.105841	1.12136	-2.218134
O	-0.088951	1.131089	-3.431039
O	0.690538	1.992981	-1.587059
C	0.2664	-1.310744	-2.101871
H	1.341689	-1.239571	-1.887341
H	-0.122525	-2.227466	-1.658542
H	0.080831	-1.316883	-3.174792
C	-0.387821	-1.217774	0.690151
N	-0.664669	-2.193817	1.285262
N	-0.513358	1.189825	0.670936
H	0.29161	1.781293	0.866391
H	-0.939769	0.934018	1.552456
H	2.631645	0.0	0.0
