17

C	-0.323886	-0.083667	-1.489243
C	0.0	0.0	0.0
Br	-0.036998	-1.901182	-2.149571
H	1.106316	0.0	0.0
N	-1.810606	0.19294	-1.758341
O	-2.101958	0.812724	-2.779339
O	-2.617375	-0.208359	-0.923574
C	0.537194	0.871744	-2.279561
H	1.571686	0.690195	-1.962773
H	0.265086	1.898835	-2.028658
H	0.411594	0.728029	-3.351063
C	-0.515724	-1.098276	0.807593
N	-0.873062	-1.966878	1.515015
N	-0.332534	1.281435	0.597237
H	0.447578	1.914125	0.462678
H	-1.197689	1.682849	0.26046
H	2.647124	0.0	0.0
