17

C	-0.448222	-0.052464	-1.44853
C	0.0	0.0	0.0
Br	-2.41038	-0.320488	-1.63315
H	1.095003	0.0	0.0
N	-0.121212	1.30789	-2.061874
O	-0.973983	2.184139	-2.086425
O	1.038981	1.423552	-2.448953
C	0.289832	-1.139743	-2.192653
H	0.09987	-1.083851	-3.265804
H	1.357164	-1.011096	-1.97965
H	-0.03624	-2.112323	-1.821542
C	-0.395713	-1.227381	0.684675
N	-0.712091	-2.190322	1.28313
N	-0.37356	1.216947	0.68664
H	-1.217219	1.113303	1.233427
H	0.402498	1.472348	1.289279
H	2.612493	0.0	0.0
