17

C	-0.592283	5e-05	-1.40505
C	0.0	0.0	0.0
Br	0.349844	1.331321	-2.497893
H	1.100619	0.0	0.0
N	-0.323925	-1.334957	-2.084839
O	-0.996951	-1.599409	-3.081277
O	0.556547	-2.045368	-1.611567
C	-2.073107	0.292445	-1.457795
H	-2.237725	1.239917	-0.945481
H	-2.614599	-0.505401	-0.938897
H	-2.424984	0.354005	-2.486125
C	-0.51231	-1.132459	0.752961
N	-0.95714	-2.000284	1.414198
N	-0.314645	1.277006	0.655176
H	-0.951997	1.144642	1.429481
H	0.574159	1.617036	1.021103
H	2.584745	0.0	0.0
