17

C	0.0	0.0	0.0
C	-0.506411	0.052067	-1.442429
F	1.403651	0.0	0.0
H	-0.260715	-0.885252	-1.950854
N	-0.479225	1.136062	0.70982
H	-0.307138	1.938534	0.093973
H	0.062312	1.208597	1.563102
N	-0.383672	-1.188441	0.732474
H	-0.144422	-2.005993	0.183797
H	-1.393669	-1.144051	0.823232
N	0.016969	1.123206	-2.282394
O	-0.274453	2.344569	-1.777414
O	1.113021	0.863253	-2.937512
N	-1.975181	0.265105	-1.375581
H	-2.010774	1.294856	-1.442375
H	-2.401839	-0.11562	-2.218469
H	-2.849906	0.0	0.0
