17

C	0.0	0.0	0.0
C	-0.506555	0.028053	-1.436517
F	1.40702	0.0	0.0
H	-1.610749	0.042974	-1.331988
N	-0.395466	1.248877	0.583207
H	0.06811	2.004143	0.094392
H	-0.148571	1.253561	1.564985
N	-0.522858	-1.141843	0.653143
H	-1.556941	-1.01298	0.553955
H	-0.310385	-1.073322	1.644368
N	-0.127792	-1.278861	-2.11455
O	0.970631	-1.319863	-2.682487
O	-0.928643	-2.206767	-2.082049
N	0.026417	1.152264	-2.142948
H	-0.51494	1.317309	-2.981329
H	0.983108	0.945197	-2.403632
H	-3.149917	0.0	0.0
