14

C	0.0	0.0	0.0
C	-0.499521	0.101945	-1.44146
Br	1.966112	0.0	0.0
H	-0.245287	1.082469	-1.841319
H	-1.598372	-0.027971	-1.303249
N	-0.535839	1.059742	0.801838
H	-0.328029	1.941347	0.339667
H	-1.571688	0.849627	0.692364
C	-0.369703	-1.27551	0.63817
N	-0.591149	-2.276194	1.212296
N	0.045083	-0.88706	-2.39457
O	0.375261	-0.473084	-3.509022
O	0.106127	-2.062021	-2.039806
F	-2.743426	0.0	0.0
