14

C	0.0	0.0	0.0
C	-0.402937	-0.364767	-1.471083
Br	1.946484	0.0	0.0
H	-0.707991	-1.405385	-1.532372
H	0.439234	-0.175733	-2.140175
N	-0.443483	1.234171	0.568184
H	-0.235827	1.971241	-0.096733
H	-1.479774	1.050569	0.536658
C	-0.403448	-1.116423	0.870372
N	-0.558747	-2.067245	1.542526
N	-1.506379	0.417774	-2.097808
O	-2.327664	-0.208098	-2.754864
O	-1.399409	1.642806	-2.08496
F	-2.526737	0.0	0.0
