14

C	0.0	0.0	0.0
C	-0.509571	-0.197336	-1.426376
Br	1.962955	0.0	0.0
H	-0.257317	0.676575	-2.025755
H	-1.610598	-0.284896	-1.251153
N	-0.528509	1.211018	0.56379
H	-1.562228	0.990313	0.50328
H	-0.318292	1.971796	-0.077454
C	-0.375278	-1.108567	0.894653
N	-0.576132	-1.966538	1.670711
N	0.012311	-1.36748	-2.160121
O	0.146317	-2.426578	-1.55082
O	0.243411	-1.216827	-3.362352
F	-2.741416	0.0	0.0
