13
Coordinates from ORCA-job run
  C   1.09739925598171     -0.14830408660553     -0.09200169678850
  C   -0.37004173887900      0.12157941941921      0.30042201746413
  Br  1.74728957887167     -1.79565643693661      0.73010967882138
  H   -0.41329631479450      0.21471357282326      1.39127841361714
  H   1.17090815166315     -0.30118922303404     -1.17171991148589
  C   1.97247530944927      0.94637382313745      0.30653675479116
  N   2.66603051659600      1.83766073270980      0.63132027808228
  C   -1.32602726098269     -0.97681945503603     -0.17145341914230
  H   -1.09548203065418     -1.92176645019807      0.31867898900719
  H   -1.25250736563916     -1.10953355790162     -1.25317790352993
  H   -2.35355063992812     -0.70145249135978      0.07011126131710
  C   -0.75881731408751      1.40998278702352     -0.28286470525500
  N   -1.08438014759662      2.42441136595845     -0.77723975689876
