13
Coordinates from ORCA-job run
  C   1.07177702522257     -0.26923865064039      0.46302710860552
  C   -0.44848280505404     -0.04098113280466      0.50981491225740
  Br  1.93884938520985      0.43148572429113      2.06065148659447
  H   -0.80744082797649     -0.48861119230305      1.44301697012712
  H   1.26592639605470     -1.34455479673237      0.46880865448829
  C   1.66985649884749      0.32226588013664     -0.72627073592580
  N   2.12742995069678      0.80949440964329     -1.69274316442209
  C   -1.13438058627513     -0.71154950211563     -0.68612373320071
  H   -0.90685504244496     -1.78012197405126     -0.70074867775206
  H   -2.21614893279323     -0.59107715845941     -0.61095888981261
  H   -0.80290526754604     -0.26519139851366     -1.62523284169103
  C   -0.75425902693129      1.39018248899181      0.54968182366436
  N   -1.00236676701020      2.53789730255755      0.54807708706713
