13
Coordinates from ORCA-job run
  C   1.07417439190233     -0.27406788279221      0.46130572490811
  C   -0.44693374549601     -0.05241107629939      0.50886965489745
  Br  1.93408219390693      0.39499379354573      2.07620624839597
  H   -0.80735526361064     -0.52380985162811      1.42973633149238
  H   1.27322385484895     -1.34828699119385      0.44343873422568
  C   1.67244033880533      0.34381534396671     -0.71431629220277
  N   2.12233582784493      0.82508304932892     -1.68733988509584
  C   -1.12697615830630     -0.69473930155411     -0.70574452345959
  H   -2.20977398501440     -0.58716981690021     -0.62638347015212
  H   -0.80040862913325     -0.21831166412162     -1.63166334128873
  H   -0.88879224071499     -1.76012464622720     -0.75164869636913
  C   -0.75921972869029      1.37605687787942      0.58375878982740
  N   -1.03479685634260      2.51697216599590      0.61278072482119
