13
Coordinates from ORCA-job run
  C   1.09602208318443     -0.15567078963635     -0.10235577141622
  C   -0.36459842439417      0.13566906986725      0.30055815069370
  Br  1.75307156740289     -1.77168687130546      0.77423546502034
  H   -0.39052770394384      0.27573538453102      1.38692319162060
  H   1.15346558433946     -0.35082070281771     -1.17615174386818
  C   1.97966506535162      0.95065090679058      0.24110978704201
  N   2.67772458845763      1.85268503464392      0.52381222558820
  C   -1.33174859978424     -0.97776508763363     -0.10936159814337
  H   -1.27967113111014     -1.15240664791943     -1.18649567780068
  H   -1.09377286134026     -1.90380990063708      0.41259876136019
  H   -2.35369853962134     -0.68974657435292      0.14136865588201
  C   -0.75781172550449      1.39855722742484     -0.33346496541401
  N   -1.08711990303753      2.38860895104496     -0.87277648056459
