13
Coordinates from ORCA-job run
  C   1.10150246413495     -0.15482066030659     -0.00217743425357
  C   -0.38906035458913      0.14519292427434      0.26076900247197
  Br  1.68059362829119     -1.73600049583698      0.98572075140657
  H   -0.50943118471070      0.32661978066666      1.33462848208525
  H   1.25294105863239     -0.38774314157946     -1.05920056674654
  C   1.94985341586146      0.96708150929865      0.37803483500081
  N   2.61598832881125      1.88310232717412      0.69104748562409
  C   -1.31598290855579     -0.98719524924149     -0.18799012695233
  H   -2.35609179633122     -0.69216801640690     -0.04284661107640
  H   -1.12693518294841     -1.88980218755815      0.39165063679978
  H   -1.16695529536295     -1.20675247295851     -1.24757604616680
  C   -0.72661668890423      1.38177300779177     -0.45218060086582
  N   -1.00780548432879      2.35171267468254     -1.05187980732701
