13
Coordinates from ORCA-job run
  C   1.07209944072670     -0.28122101336286      0.46100580805577
  C   -0.44985481225764     -0.06455811260036      0.50513778567558
  Br  1.92174071566596      0.35627164958716      2.09409197885385
  H   -0.81368621304944     -0.55840003084010      1.41283091800996
  H   1.27369672426150     -1.35458969249476      0.42216398067996
  C   1.67548277348204      0.36178308990376     -0.69864095065693
  N   2.13323983478118      0.86293894124947     -1.65787930837653
  C   -1.12120138241967     -0.68046582042974     -0.72777379907668
  H   -2.20481408173807     -0.58111001184265     -0.65104053028776
  H   -0.87670240824440     -1.74275097568447     -0.79879427432240
  H   -0.79353720502429     -0.17965995379782     -1.64004481680299
  C   -0.76748330157693      1.36069358848956      0.61171021328725
  N   -1.04998008460694      2.49906834182280      0.66523299496093
