13
Coordinates from ORCA-job run
  C   1.08678457881041     -0.30192414816379      0.41275517390484
  C   -0.42706388395894     -0.05615084929032      0.52472080901767
  Br  2.01946669880033      0.31684718881411      2.00791550440764
  H   -0.75901710442413     -0.53885457046426      1.45027964317970
  H   1.26676986170577     -1.37860404899385      0.36346229894502
  C   1.65054025517920      0.33468801337143     -0.76992925791781
  N   2.07168074072650      0.83970069520764     -1.74383793314144
  C   -1.16598870289838     -0.66421826184318     -0.67302653582351
  H   -0.86069668149095     -0.18256288316054     -1.60352422787126
  H   -2.24218987821923     -0.53054804251170     -0.55301792417965
  H   -0.95680530293954     -1.73448116552383     -0.74153273725310
  C   -0.71185144990991      1.37557369569574      0.63617642725747
  N   -0.97062913138113      2.51953437686254      0.69055875947442
