13
Coordinates from ORCA-job run
  C   1.08351382279427     -0.28551206967457      0.42950578001619
  C   -0.43029910646999     -0.03164367915691      0.52383817361515
  Br  2.00992863807496      0.39671405062811      2.00209819416204
  H   -0.76732078773246     -0.47197745001270      1.46860657737392
  H   1.26105429003705     -1.36364739407131      0.42584563475042
  C   1.65496802946478      0.29974225103325     -0.77582164838742
  N   2.08410113333974      0.75883112381070     -1.76864929796727
  C   -1.16522838814560     -0.69067871903194     -0.64900579054444
  H   -2.24187227881684     -0.55392906931254     -0.53815165636936
  H   -0.95443542308609     -1.76243797122046     -0.67123128442681
  H   -0.85813687235642     -0.24884645297681     -1.59830942847124
  C   -0.71148964812474      1.40442874408321      0.57234829751423
  N   -0.96478340897865      2.55095663590196      0.57792644873460
