13
Coordinates from ORCA-job run
  C   1.11222388370136      0.15419077917925      0.40332168585007
  C   -0.41091893289717     -0.08670122903253      0.43827021711942
  Br  1.57546468180834      1.81043953206638     -0.51514297752496
  H   -0.54861148939714     -1.02260426442789      0.99621289268144
  H   1.49347733168039      0.27028521666257      1.42025159182276
  C   1.78798077536105     -0.96615602475143     -0.23860822423010
  N   2.29961347924484     -1.89651102114177     -0.74158733188268
  C   -1.04639649704921     -0.23627508545673     -0.94482911786082
  H   -0.96513344911365      0.69098971531647     -1.51148649673495
  H   -2.10299039992110     -0.48621110468553     -0.83843095054789
  H   -0.55476774032934     -1.03787988355245     -1.49961704024815
  C   -1.05564264045172      0.97766510533825      1.21010573856414
  N   -1.58429900263665      1.82876826448542      1.82254001299173
