14

C	-0.588745	0.000134	-1.399342
C	0.0	0.0	0.0
F	-0.241504	-1.156099	-2.025445
H	1.091625	0.0	0.0
H	-1.673312	0.102324	-1.408931
N	-0.06883	1.131584	-2.252447
O	-0.609891	1.212349	-3.353624
O	0.821906	1.842536	-1.81156
C	-0.470349	-1.184861	0.708991
N	-0.852572	-2.150398	1.257632
N	-0.477065	1.199842	0.766496
O	-1.217358	1.989841	0.178355
O	-0.099582	1.293252	1.925048
Br	3.286746	0.0	0.0
