14

C	-0.538168	-0.068491	-1.429544
C	0.0	0.0	0.0
F	-0.142576	-1.222522	-2.001854
H	1.091352	0.0	0.0
H	-1.625826	0.01799	-1.466278
N	-0.007069	1.093364	-2.238649
O	-0.574135	2.158837	-2.003678
O	0.888926	0.886786	-3.040393
C	-0.501969	-1.1548	0.731294
N	-0.900347	-2.100677	1.30234
N	-0.536248	1.251224	0.64774
O	-1.731785	1.239593	0.938151
O	0.24001	2.181252	0.801344
Br	3.33184	0.0	0.0
