14

C	-0.509697	0.025979	-1.424196
C	0.0	0.0	0.0
F	-1.867331	0.130239	-1.455288
H	1.09432	0.0	0.0
H	-0.055656	0.836895	-1.986891
N	-0.132695	-1.255039	-2.126386
O	-0.878357	-2.21545	-1.963495
O	0.88509	-1.212221	-2.807899
C	-0.540255	-1.09613	0.784984
N	-0.964272	-1.990595	1.416941
N	-0.364898	1.318296	0.641621
O	-0.297632	2.307508	-0.080891
O	-0.634557	1.314417	1.835829
Br	3.268431	0.0	0.0
