14

C	-0.391158	-0.033672	-1.471588
C	0.0	0.0	0.0
F	0.00515	1.089285	-2.098234
H	1.09269	0.0	0.0
H	0.035195	-0.915962	-1.949796
N	-1.893176	-0.144855	-1.62874
O	-2.533337	0.89846	-1.681232
O	-2.338849	-1.289512	-1.664847
C	-0.495997	-1.167104	0.710829
N	-0.862163	-2.121318	1.289756
N	-0.527573	1.258717	0.632506
O	0.128293	2.275218	0.445371
O	-1.58677	1.174428	1.254694
Br	3.303444	0.0	0.0
