14

C	0.0	0.0	0.0
C	-0.352525	-0.066459	-1.479646
F	1.393765	0.0	0.0
H	0.116495	0.777803	-2.007476
H	-0.361635	-0.858781	0.549104
H	-1.434321	-0.126134	-1.585761
C	-0.307892	1.347134	0.618526
H	-1.374624	1.528917	0.687519
H	0.177599	1.417097	1.598738
H	0.174534	2.088467	-0.016299
N	0.208421	-1.295623	-2.127312
O	0.0948	-2.342364	-1.502289
O	0.69522	-1.207929	-3.254989
Cl	-3.197046	0.0	0.0
