14

C	0.0	0.0	0.0
C	-0.511195	0.025603	-1.428267
F	1.389744	0.0	0.0
H	-1.596507	0.170092	-1.397173
H	-0.334639	-0.951812	0.422243
H	-0.243008	-0.887764	-1.955125
C	-0.47016	1.137602	0.875731
H	-1.560807	1.149354	0.889587
H	-0.093321	2.088101	0.498836
H	-0.091795	0.980956	1.889358
N	0.112258	1.125608	-2.210882
O	-0.197715	2.281963	-1.929357
O	0.9127	0.813745	-3.095414
Cl	-3.716826	0.0	0.0
