18

C	0.0	0.0	0.0
C	-0.388439	-0.324722	-1.507661
Cl	1.779344	0.0	0.0
H	0.458841	0.031298	-2.097943
N	-0.362166	1.479935	0.232175
O	0.076774	2.273384	-0.596071
O	-1.064873	1.762926	1.190568
N	-0.567682	-0.743043	1.057359
H	-0.445706	-1.730259	0.871864
H	-1.569326	-0.536578	1.093676
N	-1.565712	0.296135	-2.052343
H	-1.4729	1.303188	-2.042791
H	-2.412642	0.057536	-1.534444
C	-0.519829	-1.834161	-1.654316
H	0.33565	-2.374549	-1.239176
H	-1.437543	-2.168036	-1.163465
H	-0.605296	-2.072551	-2.715296
Br	-4.166144	0.0	0.0
