18

C	0.0	0.0	0.0
C	-0.522166	-0.061121	-1.443045
Cl	1.80286	0.0	0.0
H	-0.131623	-1.025459	-1.799991
N	-0.344398	1.312039	0.715095
O	-0.185857	1.312022	1.930009
O	-0.723245	2.262828	0.04305
N	-0.567035	-1.011017	0.787522
H	-0.207161	-1.009984	1.730608
H	-0.494719	-1.920733	0.356016
N	0.10263	0.958429	-2.282442
H	-0.410078	1.824831	-2.162674
H	-0.003851	0.671479	-3.247832
C	-2.047517	-0.089451	-1.489704
H	-2.366712	-0.19952	-2.528717
H	-2.498468	-0.890296	-0.907257
H	-2.486824	0.831661	-1.109547
Br	-5.43175	0.0	0.0
