18

C	0.0	0.0	0.0
C	-0.409505	-0.173985	-1.48196
Cl	1.789382	0.0	0.0
H	0.161862	-1.065827	-1.771411
N	-0.419107	1.36993	0.560079
O	-1.107413	2.089347	-0.157485
O	-0.056443	1.629939	1.698827
N	-0.516025	-0.953228	0.923463
H	-1.525818	-0.826329	0.998224
H	-0.332714	-1.888401	0.580756
N	0.106909	0.923989	-2.298504
H	0.249741	0.579722	-3.240149
H	-0.598733	1.649265	-2.339197
C	-1.887043	-0.474974	-1.687576
H	-2.063147	-0.583915	-2.762344
H	-2.547802	0.301719	-1.309193
H	-2.206441	-1.401279	-1.210804
Br	-4.885784	0.0	0.0
