18

C	0.0	0.0	0.0
C	-0.410705	-0.049647	-1.484244
Cl	1.814703	0.0	0.0
H	0.11018	-0.951869	-1.823063
N	-0.351725	1.3509	0.692625
O	-0.803899	2.271285	0.020745
O	-0.167353	1.378655	1.904937
N	-0.522964	-1.078066	0.734958
H	-0.261771	-0.991762	1.709987
H	-1.540159	-1.06784	0.661026
N	0.176898	1.064387	-2.228048
H	0.201243	0.800258	-3.205466
H	-0.433243	1.86815	-2.141481
C	-1.903298	-0.238927	-1.716407
H	-2.519	0.529169	-1.25064
H	-2.283958	-1.19599	-1.357004
H	-2.07973	-0.205132	-2.796119
Br	-4.872456	0.0	0.0
