18

C	0.0	0.0	0.0
C	-0.407833	-0.01868	-1.519303
Cl	1.777681	0.0	0.0
H	0.365312	0.564201	-2.025945
N	-0.370817	1.39916	0.533893
O	0.023228	2.347347	-0.138963
O	-1.035415	1.472838	1.556821
N	-0.553884	-0.948696	0.888863
H	-1.552152	-0.755939	0.992678
H	-0.437705	-1.876365	0.502198
N	-1.673087	0.564686	-1.865084
H	-1.683305	1.556549	-1.667287
H	-2.471126	0.154198	-1.377909
C	-0.370359	-1.457043	-2.020836
H	-0.46324	-1.44533	-3.106994
H	0.55473	-1.973405	-1.750022
H	-1.226454	-2.010816	-1.625413
Br	-4.352546	0.0	0.0
