18

C	0.0	0.0	0.0
C	-0.403589	-0.163418	-1.487421
Cl	1.783522	0.0	0.0
H	0.396208	0.324042	-2.051804
N	-0.26839	1.49131	0.43679
O	-0.737331	1.638938	1.559864
O	0.063353	2.382244	-0.327629
N	-0.603576	-0.909721	0.864631
H	-0.459005	-0.625807	1.826353
H	-1.613596	-0.902668	0.69112
N	-1.620921	0.555031	-1.811265
H	-1.939607	0.275723	-2.732658
H	-2.398264	0.344757	-1.181869
C	-0.403503	-1.655388	-1.838903
H	-0.491137	-1.757558	-2.925052
H	-1.25608	-2.156048	-1.376498
H	0.514382	-2.157989	-1.519277
Br	-4.290884	0.0	0.0
