14
Coordinates from ORCA-job run
  C   0.86977421366299     -0.10945317283203     -0.21891548265004
  C   -0.41805880954439      0.09598065435258      0.10441389828169
  C   1.67048137125519      0.88110959809932     -0.85198015468105
  N   2.31182861488595      1.72993158443248     -1.35595131812670
  N   1.55222821956527     -1.39649234719170      0.03523658207256
  O   1.29369192923698     -1.96438740555151      1.08868730733916
  O   2.32517356958538     -1.76481084325111     -0.84174976859645
  C   -1.19718806495584      1.34365879103787     -0.10251327975479
  H   -0.59658082361813      2.11105936805130     -0.58982171578059
  H   -1.54574615226990      1.71148112697445      0.86551761444080
  H   -2.07603079444498      1.12970028310302     -0.71780793172169
  N   -1.19023718104218     -0.99785795114356      0.71579446056182
  O   -1.63653108651578     -0.76504525500054      1.83366860348308
  O   -1.36280500580058     -2.00387443108059      0.03642118513217
