14
Coordinates from ORCA-job run
  C   0.79280584831683     -0.38658950199661     -0.24823456974261
  C   -0.45285888037274      0.05840668740128      0.00766629452519
  C   1.08517224699535     -1.54052518196289     -1.02937405181481
  N   1.31671233262719     -2.50957586547927     -1.65631614275261
  N   1.98564895832103      0.32175466890939      0.26190812601836
  O   3.02442500008398      0.13435156114643     -0.36289962353622
  O   1.84550949268375      1.02539270655611      1.25701799986592
  C   -0.93443849467707      1.23015372065985      0.78784726027370
  H   -1.07784669070337      0.93809352806421      1.83083401248932
  H   -1.89731449986179      1.55639022897425      0.39009179977463
  H   -0.22147745961457      2.05011918469405      0.76369674074718
  N   -1.54205096404250     -0.76805079537091     -0.54147497160512
  O   -1.63459986316675     -0.85591625008633     -1.76243039507697
  O   -2.28968702658934     -1.25500469150958      0.30166752083404
