14
Coordinates from ORCA-job run
  C   0.81394621317919     -0.17928729753077     -0.35774306615009
  C   -0.38173974993898      0.12672846376734      0.17310680214436
  C   1.49135148329917      0.68437365319228     -1.26358632037494
  N   2.02579379800192      1.43060228966203     -2.00037340376249
  N   1.51445133213893     -1.44810781302244     -0.06963547359880
  O   1.42553338132979     -1.88438258434155      1.07125603325045
  O   2.13199959430096     -1.93696266484993     -1.00853791405594
  C   -1.16608057130463      1.36690206351855     -0.05818643485660
  H   -1.28329391704719      1.89555829714283      0.89139171678263
  H   -0.67834724990413      2.01751559465943     -0.78287098564279
  H   -2.16619488385221      1.10560877954109     -0.41560191681816
  N   -1.05433752624282     -0.83667521360039      1.06004664374539
  O   -1.39208317024819     -1.90594494438452      0.56404467039041
  O   -1.27999873371182     -0.43592862375395      2.19668964894657
