14
Coordinates from ORCA-job run
  C   0.87720244601789     -0.20413070468753     -0.00244691878761
  C   -0.43344453404967      0.08822447211950      0.04518584584589
  C   1.53939453351477     -0.94699668647960      1.01336799402067
  N   2.06430977634735     -1.54616676224307      1.88019003377943
  N   1.73496302073184      0.20238898782366     -1.13664445532780
  O   1.61210261077130      1.35147673762957     -1.54054946879669
  O   2.50016416905974     -0.65993315789451     -1.55174997726018
  C   -1.38175736103449     -0.25864923622420      1.13427501620022
  H   -1.77519297212907      0.66124029939453      1.57364454921845
  H   -2.22510200641121     -0.82196790373594      0.72461986920710
  H   -0.89478672011342     -0.85269366526082      1.90703928253656
  N   -1.04119238975969      0.82046191963340     -1.07852625808134
  O   -1.61838790651363      1.86063805561058     -0.77938600694099
  O   -0.95827266643171      0.30810764431443     -2.19001950561371
