14
Coordinates from ORCA-job run
  C   0.84241637260890     -0.23441410443785     -0.24321380950318
  C   -0.38977332113201      0.10601103854718      0.17007968220531
  C   1.54074236643082     -1.36510841566876      0.27014282209140
  N   2.10064386069843     -2.28993147852122      0.73482433247186
  N   1.54271617344949      0.49380916758383     -1.32187264233672
  O   1.37697912666036      1.70571160515633     -1.37746422934979
  O   2.22496959737139     -0.20089025013551     -2.06588571879020
  C   -1.20181837358644     -0.57779204463728      1.20613764462366
  H   -1.43443093711006      0.13312347695091      2.00240024592311
  H   -2.14638698298452     -0.92027577232710      0.77351921078198
  H   -0.67360018064459     -1.43133203918814      1.63025285377997
  N   -1.07200615919926      1.25377456645553     -0.45318790808862
  O   -1.27252179009110      2.20858847252127      0.28941557212621
  O   -1.43892975247143      1.11772577770082     -1.61514805593498
