14
Coordinates from ORCA-job run
  C   0.81505439378892     -0.18267723643835     -0.33922280610454
  C   -0.39708706733669      0.12890931949379      0.14853756745077
  C   1.56436835161321      0.69451378055460     -1.17014801816043
  N   2.18162322578613      1.44638987665335     -1.83374253793848
  N   1.47007919573006     -1.47830884240133     -0.05218964442065
  O   1.36402669762442     -1.91293551871584      1.08763105158055
  O   2.06881499764394     -1.98607124530771     -0.99309647613069
  C   -1.13952463477261      1.39788728015905     -0.06541971790330
  H   -2.12124654845402      1.18213541336391     -0.49705462754581
  H   -1.29570958476587      1.88679293178673      0.89943094021017
  H   -0.59562314374552      2.06873860309872     -0.72988486569224
  N   -1.11243234966033     -0.85208151461094      0.97978901273493
  O   -1.42898700525574     -1.90915915044302      0.44463230283363
  O   -1.37335652819589     -0.48413369719296      2.11973781908610
