14
Coordinates from ORCA-job run
  C   0.81663631189031     -0.27707355524034     -0.31995802471597
  C   -0.45103323670538      0.02490058378166      0.01043587673262
  C   1.17529373836871     -1.15080892415047     -1.38384441214234
  N   1.45650123570021     -1.90289599746516     -2.24374276889797
  N   1.95482615354341      0.33970889614236      0.39037900074035
  O   1.80026940249159      0.60016528717077      1.57913186372139
  O   2.95991608296493      0.53955419452679     -0.28430500973996
  C   -0.99792014468800      0.91062114243872      1.07256811568214
  H   -1.95433903999751      1.31895762897635      0.73980604513371
  H   -1.15995908005100      0.32751040663979      1.98390769862294
  H   -0.31358418071476      1.72213640699665      1.31052763226330
  N   -1.49163217354071     -0.65947418872368     -0.77282204367439
  O   -1.79526784044774     -0.15893786324961     -1.85063740579922
  O   -1.99970722881407     -1.63636401784382     -0.23144656792658
