14
Coordinates from ORCA-job run
  C   0.88338324590745     -0.22099846666342     -0.05452410518589
  C   -0.41869829882694      0.10415666424304      0.03636936516190
  C   1.51340506091085     -1.04561516148099      0.92343856307510
  N   1.98354055146230     -1.71842522305783      1.76699142152461
  N   1.76086595927805      0.21250171121885     -1.16270800731118
  O   2.85793544795370     -0.33407282389048     -1.21628045649972
  O   1.32448271471813      1.06679521465321     -1.92260978289476
  C   -1.35052911283837     -0.30136809285469      1.12152991707433
  H   -1.71681988196071      0.59453046335992      1.63029779850928
  H   -2.20979626694443     -0.81795203764441      0.68431579016523
  H   -0.86570685624389     -0.95550965219374      1.84498570126140
  N   -1.06994322641535      0.93984756987155     -0.98494334744331
  O   -1.18508509051153      2.12466743360101     -0.70204457437576
  O   -1.50803424648925      0.34944240083798     -1.96381828306124
