14
Coordinates from ORCA-job run
  C   0.83640484596899     -0.17552382226888     -0.27409283693726
  C   -0.40899655250104      0.12988350828395      0.12805882858996
  C   1.79823547070191      0.81255713379081     -0.61962540125805
  N   2.56974057181913      1.65365599747531     -0.90879957620350
  N   1.31920844446093     -1.57049462788057     -0.36717424907446
  O   0.61892136509131     -2.35840033471694     -0.98952645241927
  O   2.39419737373281     -1.79027916972212      0.17749925316874
  C   -0.99854905107020      1.48969720310350      0.22916625845689
  H   -1.38385807685186      1.65428748916473      1.23909601633058
  H   -1.83823851198576      1.56692628032721     -0.46533233820419
  H   -0.26054183717575      2.25749046139541     -0.00143219348670
  N   -1.31538377786022     -0.96399984533202      0.51439824606638
  O   -2.43048467071346     -0.93281754916316      0.00184792495305
  O   -0.90065559361679     -1.77398272445724      1.33791652001785
