14
Coordinates from ORCA-job run
  C   0.75816056602318     -0.31163435932984     -0.39578427855418
  C   -0.47414898437779      0.00758993486615      0.04466976690004
  C   1.08737352634918     -1.31661912363525     -1.34625715127736
  N   1.42111072647613     -2.15488016971591     -2.10308695314779
  N   1.93295270607162      0.43958064452000      0.10150857758844
  O   2.75170446946341      0.76370325041563     -0.75169234694295
  O   1.98809244213191      0.66815484747305      1.30536176502193
  C   -0.87398884078475      1.03795144940855      1.03976098420880
  H   -0.11937829959738      1.81454504169758      1.13914944966164
  H   -1.01799929251420      0.56936363525319      2.01595955232135
  H   -1.82422743967891      1.48175645105915      0.73732147046755
  N   -1.59307978301841     -0.80169004347905     -0.47626566686347
  O   -2.41094798968050     -1.15456450447213      0.36998104356113
  O   -1.62662380686349     -1.04425705406110     -1.67962621294511
