14
Coordinates from ORCA-job run
  C   0.76803119077965     -0.28544703928894     -0.39602457973696
  C   -0.47082134333580      0.03061326433787      0.02597197621428
  C   1.10224317416958     -1.25744879037619     -1.37895801999206
  N   1.42995378516516     -2.05352466875753     -2.18228152712843
  N   1.94771750598158      0.34557110201488      0.23791653980503
  O   2.84632578585487     -0.42190511478044      0.56476089818756
  O   1.92867610308228      1.56439284551361      0.37311314549758
  C   -0.89071299191688      0.97657635248249      1.09096701238971
  H   -1.57372380814329      0.46295782841167      1.76872416875857
  H   -0.04318895221815      1.37550512767363      1.64112003234861
  H   -1.43112608698876      1.81269475888835      0.63620245419033
  N   -1.58876709696868     -0.67860787176120     -0.63475175021938
  O   -1.57167690894533     -0.74670860918324     -1.86119344570816
  O   -2.45393035651621     -1.12566918517498      0.11343309539333
