14
Coordinates from ORCA-job run
  C   0.85413365144655     -0.25497719694011     -0.14105463967962
  C   -0.41690752642221      0.10229109347301      0.10773358413660
  C   1.50287797185776     -1.31788343362593      0.54611432874903
  N   2.01675793591081     -2.19317711485057      1.14253169985095
  N   1.67351660239950      0.41446901427474     -1.17399315902162
  O   2.37120405242118     -0.32817436564152     -1.85500925412501
  O   1.58933457352904      1.63384511702948     -1.24563801510646
  C   -1.32522696003152     -0.49310310553547      1.12113816582727
  H   -1.61758967551504      0.27970577640229      1.83588624128136
  H   -2.23224724170955     -0.85973971843791      0.63213071124694
  H   -0.84498522721118     -1.31573586069841      1.65001747016818
  N   -1.02467022222126      1.18368982999675     -0.68510692910007
  O   -1.43058976586981      2.14417346688018     -0.03992612622169
  O   -1.11560816858426      1.00461649767348     -1.89482407800585
