14
Coordinates from ORCA-job run
  C   0.76952274244390     -0.26802255948168     -0.40523859081175
  C   -0.46513607001932     -0.01968998879869      0.07069761424493
  C   1.08450756958073     -1.04082033024791     -1.55695066954085
  N   1.38760351806264     -1.66797768116036     -2.50621206426233
  N   1.95035788193980      0.35505979697931      0.23434548289467
  O   2.01187228312283      0.31801091652963      1.45868653949938
  O   2.76876382578310      0.84955147256293     -0.53313143963814
  C   -0.88473501783830      0.82628869196232      1.21711783170927
  H   -1.26997162651179      0.18383614583413      2.01528501152933
  H   -1.69154841090751      1.48358236362107      0.89055646299713
  H   -0.06156077828609      1.41114023303966      1.61750707750985
  N   -1.58408602725543     -0.65575400867594     -0.65898109016982
  O   -1.49405496088933     -1.85736749103149     -0.89749427987142
  O   -2.52153492922524      0.08316243886702     -0.94718788609024
