14
Coordinates from ORCA-job run
  C   0.77385746707049     -0.37099117077140     -0.30726727364736
  C   -0.47024357997997      0.01099162876467      0.03969549920609
  C   1.11008226002055     -1.40827994924817     -1.22025496547086
  N   1.43459965509574     -2.22619235265658     -2.00274292280402
  N   1.94782380686434      0.29389283272331      0.29883151029973
  O   1.90420817385942      1.51357165286359      0.42137452436331
  O   2.86476566752072     -0.45018302160509      0.62845361043418
  C   -0.90219581980153      1.09501637690425      0.96144037839389
  H   -1.13464684275449      1.99315818419586      0.38453203185892
  H   -0.12688866061779      1.34160732086252      1.68268461760050
  H   -1.81010780082072      0.78693136296335      1.48290793678365
  N   -1.58231708374337     -0.69484817581112     -0.62681975452147
  O   -1.55470697439782     -1.92201862870075     -0.66067805171852
  O   -2.45523026831558      0.03834393951557     -1.08415714077804
