14
Coordinates from ORCA-job run
  C   0.85295036062454     -0.22579788464432     -0.23482468437861
  C   -0.40407756541549      0.11367782000227      0.10389749429564
  C   1.70562316426175      0.67856193847493     -0.93203542708907
  N   2.36341069343599      1.46352310584979     -1.51207219183399
  N   1.46621429476501     -1.53252360007641      0.09262911824952
  O   2.66067669742159     -1.63730505727864     -0.16400251514529
  O   0.73998263522393     -2.38654772162816      0.58330599040110
  C   -1.07161847841734      1.40945087222460     -0.18915529768345
  H   -0.40510466122164      2.10117273538866     -0.70216880513453
  H   -1.95278310013212      1.22420403273658     -0.81006426321500
  H   -1.40869046299335      1.85820100666219      0.74987886974571
  N   -1.28061346007023     -0.81905028794330      0.82934045853971
  O   -2.04408941206602     -1.47800470034759      0.13615171369371
  O   -1.21988070541664     -0.77056225942060      2.05111953955454
