14
Coordinates from ORCA-job run
  C   0.76937362769941     -0.29674243653639     -0.38745921849877
  C   -0.46715221288734      0.04272022056693      0.02333486294139
  C   1.08550573471597     -1.27929073649304     -1.36594740835979
  N   1.38692754300560     -2.09136162552265     -2.16349167904301
  N   1.95797557633280      0.30855791180551      0.25502945674356
  O   1.94577383923603      1.52200065961922      0.43173568149575
  O   2.85570407727931     -0.47308471889941      0.54887367236755
  C   -0.88576413157344      0.99399647948594      1.08418495238216
  H   -1.60512490749330      0.49631484536797      1.73594929609001
  H   -0.04212857339631      1.35919951016105      1.66255512947949
  H   -1.38442378302902      1.85181509073808      0.62188066708897
  N   -1.58884960296316     -0.64551181280624     -0.65266470527800
  O   -1.58396280360610     -0.66351483458528     -1.88088154972248
  O   -2.44385438332044     -1.12509855290167      0.08690084231316
