14
Coordinates from ORCA-job run
  C   0.80265801943630     -0.25748812067079     -0.23976410037507
  C   -0.43285223297306      0.14370636614651      0.12534087174287
  C   1.67840257555121      0.58358360894937     -0.97992514268342
  N   2.40887596660586      1.27746718233343     -1.59066954405622
  N   1.40236615552126     -1.57749410343915      0.06367870357546
  O   1.26319034781208     -2.43070035886611     -0.80020684763935
  O   2.02979057910279     -1.64810706917288      1.10997549091658
  C   -1.02298696339634      1.47335222874150     -0.18459210841499
  H   -1.93850187321640      1.34640701195141     -0.76572263631156
  H   -0.32185405702087      2.08964324435435     -0.74666907687433
  H   -1.29363039628834      1.98459182385678      0.74087130295920
  N   -1.30042090520654     -0.77023897810608      0.89475945679868
  O   -0.88634114307591     -1.90231169715043      1.13175819897512
  O   -2.38769607285203     -0.31141113892790      1.24116543138705
