14
Coordinates from ORCA-job run
  C   0.77979731767046     -0.30105231620044     -0.37070981761097
  C   -0.46354082948010      0.03696584785058      0.01820092124815
  C   1.11022956639923     -1.11163209504881     -1.49382758883372
  N   1.40283524051743     -1.82029778315913     -2.38636745895742
  N   1.95495184603492      0.22110267900068      0.35314402302991
  O   1.88375531179456      0.28480323306573      1.57735636638748
  O   2.91017555350214      0.53888532085002     -0.34704882491034
  C   -0.90674749973445      0.87665393592344      1.16418522319996
  H   -1.18077461049475      0.23364100120775      2.00183900260218
  H   -1.79066007149319      1.44177523066602      0.86856950910937
  H   -0.12807441352328      1.56258825071817      1.48887804129062
  N   -1.57291214344155     -0.52489811315336     -0.77167782695510
  O   -1.58590812407429     -0.29588900373693     -1.97794053874894
  O   -2.41412714367713     -1.14264618798371     -0.12460103085119
