14
Coordinates from ORCA-job run
  C   0.76690996174162     -0.28321501460691     -0.40229772570628
  C   -0.46381068331318     -0.01498284240405      0.07237510573386
  C   1.06925806001537     -1.06026688331167     -1.55486968453287
  N   1.36176018260340     -1.68849936204267     -2.50665922215300
  N   1.95718250854649      0.32163715180166      0.23631398344371
  O   2.77441078888381      0.81798637462083     -0.53117929548316
  O   2.02647231198125      0.27036341389415      1.45972421609565
  C   -0.87275661450371      0.84453955773581      1.21170469257022
  H   -0.03158250947465      1.38052574857344      1.64208514231798
  H   -1.31861903272545      0.22122275351233      1.99280570755365
  H   -1.63314462872206      1.54616431985686      0.86601474289686
  N   -1.59304237447387     -0.63450866167207     -0.65537235762205
  O   -2.52092559293103      0.11736697256176     -0.94139608133235
  O   -1.52211237762799     -1.83833352851945     -0.89024922378221
