14
Coordinates from ORCA-job run
  C   0.76357636847165     -0.29115791248528     -0.40292459152306
  C   -0.46463313928407     -0.01023832192358      0.07097031396673
  C   1.06022257789070     -1.06904785324936     -1.55591487710886
  N   1.35213888065211     -1.70027002696840     -2.50592122902211
  N   1.95961080091085      0.29856863066711      0.24125697256467
  O   2.02836300444866      0.23598583604129      1.46421864444109
  O   2.78254462414012      0.79121723047449     -0.52259189363525
  C   -0.86546163554493      0.84824765462665      1.21461155472674
  H   -1.60598071394693      1.56994499859377      0.86731914174653
  H   -0.01663387802931      1.36240920408341      1.65632989725635
  H   -1.33236180472188      0.22816165567145      1.98568502745142
  N   -1.60034761303073     -0.60914051372709     -0.66269580433645
  O   -1.54865067307930     -1.81319470841936     -0.90095688317498
  O   -2.51338679887695      0.15951412661489     -0.95138627335283
