14
Coordinates from ORCA-job run
  C   0.77382889120483     -0.29835949090761     -0.37560017636356
  C   -0.46852084400681      0.03608206546489      0.02069332143111
  C   1.10874048694670     -1.30208492189914     -1.32606069192163
  N   1.42196488885770     -2.13804975313767     -2.09378692131870
  N   1.95121756808878      0.34268825793374      0.25233558223684
  O   2.85781002361979     -0.41681936663096      0.57571049154796
  O   1.92295680562568      1.56143938971192      0.38661204154533
  C   -0.90191485300859      1.01291738200573      1.05190077468292
  H   -0.06537911221727      1.39851605028424      1.62766541301829
  H   -1.39972584039864      1.85582180456430      0.56202273306671
  H   -1.62424139457881      0.52947831369356      1.71080888007965
  N   -1.57892822507958     -0.68651168378953     -0.63827754654904
  O   -1.56501216442117     -0.74857493947496     -1.86495790678490
  O   -2.43479623063260     -1.14754310781851      0.11193400532902
