14
Coordinates from ORCA-job run
  C   0.76414369249706     -0.28394617423528     -0.40361064327409
  C   -0.46707406703086     -0.00962243075842      0.06690153057743
  C   1.07103185661271     -1.05832472875630     -1.55621060205302
  N   1.37032598624082     -1.68942659313552     -2.50411852608959
  N   1.95440006219310      0.30750135772169      0.24837372020434
  O   2.78092271349788      0.80327407304397     -0.50957081447331
  O   2.01443194040166      0.24594822325873      1.47175196026918
  C   -0.87065701350107      0.83843273387519      1.21769496090882
  H   -1.28269451501864      0.20105150035869      2.00641798810495
  H   -1.65397763957857      1.52329233379903      0.89070753907548
  H   -0.03329219376942      1.39398784997839      1.63031011815667
  N   -1.59766641209879     -0.61151433602960     -0.67362197416883
  O   -1.52860243983893     -1.80901954329584     -0.93808544724252
  O   -2.52229197060695      0.14936573417526     -0.94593980999550
