14
Coordinates from ORCA-job run
  C   0.76581847734413     -0.27857789077998     -0.40801310196267
  C   -0.47264201430670      0.02477223532777      0.02635269906889
  C   1.09451398311024     -1.11888860911611     -1.50720480811777
  N   1.41716505586675     -1.83290995103665     -2.38606571700050
  N   1.94714942318446      0.31087305015146      0.26240453877198
  O   1.94288711047793      0.34226508710965      1.48864944031717
  O   2.82978099916268      0.71781474188856     -0.48509933359435
  C   -0.88207211281510      0.88821936879270      1.16584009001317
  H   -1.09848876868260      0.26687468650069      2.03787942023322
  H   -0.10200858197410      1.59651129991302      1.43447219944074
  H   -1.79467491730764      1.42535850697959      0.90120286815509
  N   -1.59663803063969     -0.62124735235377     -0.67864307259095
  O   -1.58809193642345     -0.62803767125899     -1.90652173408865
  O   -2.46169868699691     -1.09202750211795      0.05574651135462
