14
Coordinates from ORCA-job run
  C   0.78919862891212     -0.25321651000433     -0.31749229913047
  C   -0.42215842372318      0.14468238352248      0.11214646020674
  C   1.58620579391674      0.53232141849758     -1.19297477837791
  N   2.23250462653816      1.20236411262237     -1.91490609872615
  N   1.41763852973427     -1.52637410233476      0.09828778573101
  O   1.73251283133428     -1.61661142823367      1.27687398905959
  O   1.58717018142039     -2.34374064191334     -0.79585670608392
  C   -1.08617627606711      1.43381806486620     -0.21035627751018
  H   -0.48344116937928      2.02620179515443     -0.89860651251847
  H   -1.23189595686331      1.99532282044668      0.71436077433336
  H   -2.06989043059818      1.25471521263748     -0.65418090175476
  N   -1.16031274133416     -0.73528095962881      1.03212652537376
  O   -1.11033138594360     -1.94399360420483      0.82081053645147
  O   -1.78002420794714     -0.17120856142747      1.92976750294591
