14
Coordinates from ORCA-job run
  C   0.76369083323180     -0.28380656614790     -0.40617103553912
  C   -0.47375821160670      0.03634265456300      0.01922797693375
  C   1.09067586430257     -1.11757479084223     -1.51091701163802
  N   1.41530591375506     -1.83104241159331     -2.38961864507184
  N   1.94782068436836      0.27129746829431      0.28740822956135
  O   2.84552620359334      0.67674298189948     -0.44256615331731
  O   1.93158894621623      0.27660954924117      1.51388158989679
  C   -0.87840809996325      0.88845532157387      1.16878394999162
  H   -1.77837068714672      1.44694066583018      0.90504327263511
  H   -1.11455022055287      0.25691313597203      2.02831896138661
  H   -0.08775749895583      1.57742901727274      1.45618772173947
  N   -1.60116654276048     -0.58032694828661     -0.70653262263487
  O   -1.57454260744408     -0.58114275678362     -1.93427698430829
  O   -2.48605457703740     -1.03883732099309      0.01223075036473
