14
Coordinates from ORCA-job run
  C   0.76473638612416     -0.29229948041160     -0.39893064967402
  C   -0.47467557849297      0.03810488092411      0.01323550380218
  C   1.09943548698077     -1.13819151090651     -1.49169838423405
  N   1.43254361382226     -1.86070830445347     -2.35970338076864
  N   1.94322746032971      0.26599970043767      0.30069552149316
  O   2.84452972783927      0.67186217153069     -0.42495172682577
  O   1.91951995460311      0.27637875395677      1.52708340066796
  C   -0.88184455643088      0.90350446408389      1.15214750470152
  H   -0.09049645152340      1.59323021376078      1.43599725566901
  H   -1.77905521904366      1.46190521176344      0.87909512980643
  H   -1.12317887036874      0.28208142481415      2.01752185729376
  N   -1.60006795084658     -0.58059964195070     -0.71384634195183
  O   -1.55988357040306     -0.60420536613555     -1.94075168380756
  O   -2.49679043258999     -1.01806251741368      0.00310599382787
