17

C	0.0	0.0	0.0
C	-0.614742	-0.096639	-1.395925
Br	1.970401	0.0	0.0
H	-1.720357	-0.005713	-1.109996
C	-0.464533	1.205446	0.814743
H	-1.559825	1.148193	0.768292
H	-0.0974	1.106837	1.838609
H	-0.086952	2.131022	0.382777
C	-0.370177	-1.229342	0.712563
N	-0.553994	-2.184303	1.371594
N	-0.288331	-1.321498	-2.035719
H	0.637131	-1.279734	-2.444082
H	-0.961933	-1.519744	-2.762161
N	-0.200956	1.112651	-2.21511
O	-0.676542	2.206373	-1.911761
O	0.573798	0.935695	-3.161092
F	-2.833713	0.0	0.0
