17

C	0.0	0.0	0.0
C	-0.428908	0.327738	-1.476028
Br	1.97671	0.0	0.0
H	0.459213	0.664585	-2.018814
C	-0.475859	1.067069	0.979479
H	-0.153269	2.052595	0.644282
H	-1.568134	0.983011	0.96917
H	-0.068925	0.855088	1.970917
C	-0.412783	-1.312029	0.494011
N	-0.653604	-2.344953	1.000047
N	-1.468725	1.252067	-1.562071
H	-1.698979	1.408898	-2.534696
H	-2.285073	0.829406	-1.00378
N	-0.697708	-1.019855	-2.231901
O	-1.646633	-1.046254	-3.007701
O	0.131695	-1.918209	-2.095662
F	-2.931816	0.0	0.0
