17

C	0.0	0.0	0.0
C	-0.627396	-0.146333	-1.40057
Br	1.962315	0.0	0.0
H	-1.72088	-0.154176	-1.127951
C	-0.519055	1.249685	0.698221
H	-0.175591	1.279831	1.733654
H	-0.15963	2.137641	0.174559
H	-1.616317	1.138125	0.633854
C	-0.399839	-1.204253	0.728752
N	-0.652388	-2.191354	1.313267
N	-0.206049	-1.262145	-2.191301
H	0.770503	-1.485571	-2.032201
H	-0.782004	-2.063824	-1.96831
N	-0.389426	1.094324	-2.216612
O	-1.378218	1.684325	-2.64578
O	0.775081	1.421985	-2.45476
F	-2.877333	0.0	0.0
