17

C	0.0	0.0	0.0
C	-0.622587	-0.039102	-1.395886
Br	1.952554	0.0	0.0
H	-1.730714	0.036232	-1.098774
C	-0.46616	1.168952	0.86934
H	-0.097666	1.02341	1.886931
H	-1.560786	1.115749	0.821989
H	-0.088151	2.112252	0.479561
C	-0.379725	-1.255921	0.660295
N	-0.573859	-2.238608	1.274418
N	-0.297546	-1.236903	-2.086512
H	0.624495	-1.176206	-2.501956
H	-0.975236	-1.406863	-2.817107
N	-0.219686	1.202626	-2.170619
O	-0.666577	2.286454	-1.799333
O	0.512705	1.060265	-3.155032
F	-2.839639	0.0	0.0
