17

C	0.0	0.0	0.0
C	-0.616815	-0.071027	-1.416598
Br	1.957956	0.0	0.0
H	-1.706372	0.077559	-1.170408
C	-0.469064	1.210712	0.807441
H	-1.565149	1.147849	0.763033
H	-0.096236	1.12984	1.832962
H	-0.092393	2.131712	0.359515
C	-0.390038	-1.232771	0.693428
N	-0.590469	-2.229888	1.282348
N	-0.402629	-1.272277	-2.15723
H	-1.050943	-1.969076	-1.817937
H	0.549677	-1.609037	-2.07561
N	-0.112277	1.086271	-2.224631
O	-0.701774	2.164539	-2.10866
O	0.867428	0.897618	-2.947541
F	-2.815064	0.0	0.0
