16

C	0.0	0.0	0.0
C	-0.511595	-0.03776	-1.525724
Cl	1.765489	0.0	0.0
H	0.411801	-0.202279	-2.085957
C	-0.454567	1.137567	0.78516
N	-0.673714	2.090106	1.438167
N	-0.381428	-1.289356	0.739961
O	-0.035279	-2.330021	0.191659
O	-0.961631	-1.188446	1.809308
N	-0.979719	1.30783	-1.796216
H	-1.888575	1.395397	-1.337875
H	-1.166313	1.344665	-2.792705
N	-1.440685	-1.047841	-1.923186
H	-2.333777	-0.917513	-1.44205
H	-1.081935	-1.976128	-1.744071
Br	-3.904172	0.0	0.0
