18

C	0.0	0.0	0.0
C	-0.566498	-0.331883	-1.381283
Cl	1.854327	0.0	0.0
H	-1.643831	-0.419889	-1.164159
N	-0.500829	1.219045	0.489254
H	-0.253822	2.004022	-0.093675
H	-0.264006	1.387978	1.455979
C	-0.319476	-1.074021	0.955575
N	-0.496396	-1.946619	1.721035
C	-0.036187	-1.647677	-1.934018
H	1.018034	-1.571443	-2.21508
H	-0.613166	-1.918634	-2.821827
H	-0.144812	-2.459128	-1.210803
C	-0.375791	0.817813	-2.363532
H	-0.982814	1.67981	-2.079372
H	-0.720434	0.505826	-3.352985
H	0.675406	1.111869	-2.448906
Br	-4.001669	0.0	0.0
