18

C	0.0	0.0	0.0
C	-0.381127	0.357618	-1.466138
Cl	1.808004	0.0	0.0
H	0.288919	1.188487	-1.725491
N	-0.472852	0.890577	1.025187
H	-0.328862	1.847716	0.721047
H	-1.475256	0.74495	1.143068
C	-0.413148	-1.369132	0.337324
N	-0.708889	-2.479594	0.579623
C	-1.820882	0.831369	-1.596641
H	-2.005581	1.758672	-1.05222
H	-2.559301	0.112908	-1.235049
H	-2.03405	1.02662	-2.652255
C	-0.112749	-0.803467	-2.421478
H	0.882686	-1.233286	-2.293165
H	-0.202185	-0.455442	-3.454124
H	-0.855299	-1.591422	-2.269841
Br	-4.841612	0.0	0.0
