18

C	0.0	0.0	0.0
C	-0.486914	-0.667491	-1.295532
Cl	1.852633	0.0	0.0
H	0.016635	-0.118489	-2.104651
N	-0.515108	1.305528	0.135837
H	-0.327534	1.870253	-0.68207
H	-0.201048	1.769873	0.97668
C	-0.35202	-0.792948	1.185733
N	-0.577199	-1.452924	2.130547
C	-2.00266	-0.514766	-1.434104
H	-2.333345	-1.02433	-2.342253
H	-2.318035	0.525544	-1.492329
H	-2.557799	-0.937462	-0.593404
C	-0.077746	-2.135269	-1.374789
H	-0.602709	-2.71633	-0.612417
H	0.995556	-2.28132	-1.247785
H	-0.365763	-2.535234	-2.34908
Br	-5.356442	0.0	0.0
