19

C	-0.410162	-0.022455	-1.473519
C	0.0	0.0	0.0
Br	-2.368601	-0.099227	-1.66371
H	1.095135	0.0	0.0
N	0.066181	1.29284	-2.099231
O	-0.730396	2.17548	-2.388016
O	1.281434	1.340517	-2.248816
C	0.214489	-1.162299	-2.254402
H	1.286209	-1.175425	-2.039577
H	0.049908	-1.028039	-3.32569
H	-0.237486	-2.107148	-1.952922
C	-0.452149	-1.24451	0.757965
H	-0.058214	-2.162837	0.317054
H	-1.543389	-1.310154	0.804672
H	-0.060245	-1.179352	1.775953
N	-0.427805	1.259166	0.592519
H	-1.373566	1.185671	0.951624
H	0.198202	1.48775	1.355462
Br	3.575233	0.0	0.0
