19

C	-0.43325	-0.056772	-1.466961
C	0.0	0.0	0.0
Br	-2.366928	-0.397202	-1.630635
H	1.095184	0.0	0.0
N	-0.159582	1.320911	-2.070879
O	1.027776	1.527469	-2.298001
O	-1.073107	2.11202	-2.25434
C	0.329064	-1.090961	-2.27149
H	0.025046	-2.091674	-1.964955
H	1.396074	-0.957338	-2.07741
H	0.122197	-0.979085	-3.337975
C	-0.399754	-1.247949	0.78509
H	0.098936	-1.201102	1.75638
H	-1.481016	-1.29771	0.941659
H	-0.071849	-2.167814	0.295886
N	-0.440021	1.247623	0.605188
H	0.258134	1.546585	1.273714
H	-1.325542	1.127925	1.081873
Br	3.559222	0.0	0.0
