19

C	-0.395173	-0.01648	-1.487937
C	0.0	0.0	0.0
Br	-0.194947	-1.786222	-2.301395
H	1.106928	0.0	0.0
N	-1.877223	0.322738	-1.608457
O	-2.190732	1.308585	-2.267118
O	-2.670615	-0.393667	-1.001806
C	0.438537	0.968087	-2.27507
H	0.279345	1.96222	-1.860579
H	1.48659	0.689403	-2.148071
H	0.167864	0.965889	-3.33033
C	-0.475672	-1.140486	0.885044
H	-1.560976	-1.133823	1.002981
H	-0.003318	-1.010665	1.862825
H	-0.171518	-2.11143	0.496727
N	-0.432603	1.313441	0.500335
H	-1.13208	1.2012	1.221728
H	0.367308	1.784081	0.902984
Br	3.57344	0.0	0.0
