19

C	-0.354972	0.097838	-1.511738
C	0.0	0.0	0.0
Br	0.381524	-1.413072	-2.492657
H	1.095175	0.0	0.0
N	-1.869719	0.045759	-1.625917
O	-2.447102	1.126048	-1.444715
O	-2.442438	-1.030206	-1.764166
C	0.181628	1.366912	-2.140566
H	-0.25657	2.241798	-1.663924
H	1.264199	1.3669	-1.990606
H	-0.041272	1.394763	-3.208803
C	-0.555581	-1.239568	0.679234
H	-1.643294	-1.174718	0.792939
H	-0.112865	-1.289553	1.674428
H	-0.314349	-2.153796	0.137696
N	-0.393471	1.181234	0.757768
H	0.281126	1.921395	0.613568
H	-1.315194	1.513797	0.498179
Br	3.557532	0.0	0.0
