19

C	-0.575626	-0.00563	-1.42331
C	0.0	0.0	0.0
Br	0.32572	1.349268	-2.507981
H	1.100696	0.0	0.0
N	-0.250027	-1.360399	-2.039131
O	0.904829	-1.58994	-2.364299
O	-1.181534	-2.167735	-2.088412
C	-2.066914	0.246073	-1.499272
H	-2.604557	-0.486825	-0.899035
H	-2.266071	1.239094	-1.104635
H	-2.410851	0.174968	-2.531924
C	-0.454546	-1.216026	0.797979
H	0.004244	-1.155251	1.788377
H	-0.10455	-2.145771	0.348632
H	-1.540122	-1.252594	0.917198
N	-0.491394	1.223095	0.664924
H	-0.206129	1.148994	1.636781
H	0.055101	1.995749	0.29242
Br	3.617696	0.0	0.0
