12

C	0.0	0.0	0.0
C	-0.532712	0.386995	-1.365854
Cl	1.842093	0.0	0.0
H	-1.640554	0.40764	-1.197785
H	-0.236963	0.793294	0.716761
H	-0.285587	-0.410236	-2.073375
N	-0.539605	-1.283484	0.313833
H	-0.329534	-1.502169	1.283008
H	-1.57112	-1.101232	0.264469
C	-0.050517	1.659519	-1.871736
N	0.348607	2.666923	-2.328371
H	-3.011557	0.0	0.0
