12

C	0.0	0.0	0.0
C	-0.527373	-0.014344	-1.424351
Cl	1.785812	0.0	0.0
H	-0.182977	0.870085	-1.967074
H	-0.280712	0.968042	0.432429
H	-1.632625	0.037469	-1.281435
N	-0.533923	-1.135488	0.687579
H	-1.563115	-0.988274	0.597922
H	-0.306778	-1.057241	1.672842
C	-0.156989	-1.208301	-2.173534
N	0.105253	-2.145946	-2.83196
H	-3.029603	0.0	0.0
