12

C	0.0	0.0	0.0
C	-0.509373	-0.072759	-1.442633
Cl	1.790761	0.0	0.0
H	-0.138321	0.760606	-2.046557
H	-0.310811	0.969103	0.392282
H	-1.613642	0.005535	-1.302182
N	-0.528691	-1.008208	0.864081
H	-0.375243	-1.919056	0.438662
H	-1.552352	-0.820031	0.824179
C	-0.175721	-1.331215	-2.090773
N	0.092357	-2.354143	-2.6027
H	-3.00886	0.0	0.0
