12

C	0.0	0.0	0.0
C	-0.529705	-0.060045	-1.422745
Cl	1.785237	0.0	0.0
H	-0.183953	0.803286	-1.997869
H	-0.278199	0.984291	0.396878
H	-1.634874	-0.001552	-1.279561
N	-0.539828	-1.107514	0.729409
H	-0.325878	-0.986671	1.715252
H	-1.568741	-0.959861	0.624736
C	-0.166993	-1.282229	-2.126295
N	0.091459	-2.246508	-2.744614
H	-3.015651	0.0	0.0
