12

C	0.0	0.0	0.0
C	-0.507703	-0.044967	-1.444661
Cl	1.789516	0.0	0.0
H	-1.612464	0.028312	-1.302805
H	-0.312054	0.960518	0.411051
H	-0.138193	0.801613	-2.031014
N	-0.526938	-1.026323	0.844743
H	-0.372509	-1.929929	0.401273
H	-1.550263	-0.835404	0.813948
C	-0.167996	-1.288926	-2.118127
N	0.09733	-2.303032	-2.64978
H	-3.010689	0.0	0.0
