14
Coordinates from ORCA-job run
  C   0.80959617989063      0.24574071282971     -0.03001326639256
  C   -0.54949669919462     -0.09361150314385      0.61273174601961
  F   1.75749590825070      0.00943573649171      0.98169058097906
  H   -0.61687242614425      0.54811446011214      1.49919566747048
  C   1.12328713183752     -0.69675681697082     -1.12402197767065
  N   1.33212084591826     -1.44352232871450     -2.00557356951819
  N   0.82771302306357      1.55787989189789     -0.52439216495095
  H   1.75067090404261      1.83802531661166     -0.82823882803609
  H   0.43130808568749      2.22497329329841      0.12281041936288
  C   -0.52143820203962     -1.49289496363560      1.08626108551884
  N   -0.58485075564827     -2.61058737613798      1.44199007371300
  N   -1.64663136998255      0.22834703206270     -0.27627529618166
  H   -1.58341425467941     -0.31894672604444     -1.12801664065644
  H   -2.52748837100205      0.00380327134299      0.17085217034267
