14
Coordinates from ORCA-job run
  C   0.59833895413091      0.35936091293197     -0.29416717382910
  C   -0.46221429285590     -0.54093179406374      0.36035131108646
  F   0.16072534374554      1.68318198551622     -0.08438603021675
  H   -0.08119203531061     -1.56503594551416      0.31607021056918
  C   1.87962199209199      0.22018320235257      0.42066219269788
  N   2.92505341007471      0.11523729983521      0.94291807503600
  N   0.77328844247369      0.04362958495609     -1.65502815616749
  H   1.53306976750350      0.56724351919064     -2.06958764788207
  H   -0.07888693137590      0.19006779228920     -2.18312039728553
  C   -1.69368716372253     -0.47198157313675     -0.45558884840046
  N   -2.68049697942301     -0.39100784210363     -1.08792461611633
  N   -0.62207748088953     -0.15233205611486      1.74409065227424
  H   -1.19608820260084     -0.82046992187447      2.24144073139171
  H   -1.05445482384201      0.76085483573570      1.80426969684225
