14
Coordinates from ORCA-job run
  C   0.76875896524651      0.41320517643544      0.07217121806651
  C   -0.41672486360238     -0.46193948325399      0.54172325684784
  F   1.07519270806023      1.18274603020819      1.21405865263383
  H   -0.09528930674260     -0.99310269551565      1.44835741633052
  C   1.95273867419931     -0.41739696269445     -0.20280618267849
  N   2.88640387277878     -1.09354000953907     -0.42527463986299
  N   0.44509181508325      1.23270382968680     -1.01193472764181
  H   0.98174752941204      1.11151192279068     -1.85275965210066
  H   -0.54839183957938      1.35133331379019     -1.14468859979894
  C   -0.73328372672198     -1.44829895888356     -0.49448209740510
  N   -1.00334081315239     -2.23890138314279     -1.31890888183694
  N   -1.55425906484240      0.43041635183082      0.72966181181961
  H   -2.39313274983035     -0.10250469551082      0.92259640397375
  H   -1.36651120030865      1.03476756379821      1.52128602165288
