14
Coordinates from ORCA-job run
  C   0.76785839289986      0.40564767267817      0.09243614114211
  C   -0.42701742589067     -0.47465613358100      0.52518946823124
  F   1.06682376449562      1.14256793010547      1.26053796987331
  H   -0.11905389690296     -1.02499919069164      1.42492206495164
  C   1.95238136783763     -0.42170454702296     -0.18975010620122
  N   2.88460103055698     -1.09339322551697     -0.43103933605034
  N   0.45709128032502      1.25121588723801     -0.97226920373948
  H   -0.53239066422766      1.36826430387700     -1.12948983597319
  H   1.02948388580772      1.19075198657413     -1.79535949318849
  C   -0.73205751428152     -1.43887380542757     -0.53512164153073
  N   -0.99439166363429     -2.21283180233624     -1.37763014596393
  N   -1.56467907340625      0.41688593239744      0.71571021060928
  H   -2.40566936710513     -0.11760830804144      0.89464134983164
  H   -1.38198011647434      1.00973329974762      1.51722255800821
