14
Coordinates from ORCA-job run
  C   0.49477109285961      0.52853003951462     -0.23183731469959
  C   -0.47644760764202     -0.56932490674867      0.22405687265786
  F   -0.04579944545769      1.74534547705968      0.13909079565462
  H   -0.02283278535514     -1.53748853524984     -0.01722084501446
  C   1.77534050952888      0.38513415727457      0.50544198941245
  N   2.84256464524448      0.25853410509046      0.97924423659676
  N   0.62530269825494      0.53648683343033     -1.65240555842004
  H   0.95750432512609     -0.35509788404023     -1.99898722295855
  H   1.26589175348091      1.26450039739144     -1.94613380092394
  C   -1.73844096306073     -0.44982585757707     -0.53311202171558
  N   -2.78875362100517     -0.40358261505794     -1.05648472301155
  N   -0.62239914746393     -0.48058830442238      1.66282963988967
  H   -1.12719314512392     -1.28135488590762      2.02015846903366
  H   -1.13850830938629      0.35673197924265      1.90435948349873
