14
Coordinates from ORCA-job run
  C   0.65659371217261      0.37592168702340      0.05761405006998
  C   -0.44831609061818     -0.54864482010010      0.63319986116302
  F   0.96865038483008      1.28584564392972      1.04896801419872
  H   -0.00209892627191     -1.10651227686654      1.46327273781982
  C   1.89025637275598     -0.39362973790090     -0.22532984274552
  N   2.84936731545333     -1.02186787509898     -0.48354516141359
  N   0.13879043340633      1.11935318105526     -1.05042153858838
  H   -0.07195632453689      0.50749156610952     -1.83134504886218
  H   0.81568278541490      1.81118241576159     -1.35168563006095
  C   -0.83142882794228     -1.50114929360332     -0.41670206573874
  N   -1.10790107572864     -2.22128927785057     -1.30178814575469
  N   -1.60492221183736      0.16779651611916      1.11968117228880
  H   -1.33638848749134      0.70837230836575      1.93295465391999
  H   -1.91532905960663      0.81712996305604      0.40512694370372
