14
Coordinates from ORCA-job run
  C   0.50734273243658      0.42074388872718     -0.23451287972992
  C   -0.52284578287910     -0.63603693967260      0.24141483335233
  F   -0.04364153842723      1.67567475327704      0.09123518796779
  H   -0.06625517028206     -1.61795274369939      0.08267729365701
  C   1.73042332659559      0.28139255568414      0.57781713561957
  N   2.67918475110112      0.13513441955038      1.25331669502489
  N   0.81092491986069      0.27739619943329     -1.59915217664998
  H   1.52730381096022      0.92362233434670     -1.90359733223032
  H   -0.01570944944672      0.37369246148079     -2.17715155413964
  C   -1.69565013864425     -0.53514388431644     -0.64060900386113
  N   -2.59882175674006     -0.42126363035580     -1.38147856035975
  N   -0.92941241802632     -0.52131294661753      1.62227704152427
  H   -1.21178575696473      0.42866200232983      1.82842769101304
  H   -0.17105752954375     -0.78360847016758      2.23933562881183
