14
Coordinates from ORCA-job run
  C   0.51399639369740      0.37122974863522     -0.29701967638769
  C   -0.53160366822228     -0.58447142449733      0.33447417584647
  F   -0.01315012391695      1.67058340301383     -0.15875571315253
  H   -0.09353988536649     -1.58733012899278      0.32034452079663
  C   1.73898404084042      0.33120798852511      0.52330539648075
  N   2.68803011418867      0.26430581931924      1.21066523643385
  N   0.80599975833460      0.02206822263345     -1.62650007864971
  H   -0.02283457375513      0.04768476982866     -2.20877884899538
  H   1.53171238748291      0.60302110312119     -2.02568492144331
  C   -1.70862787653084     -0.59152997045800     -0.54763380624731
  N   -2.61901377512287     -0.56115554187642     -1.28775083938370
  N   -0.92671712136107     -0.25995367208724      1.68477567549283
  H   -0.16819048417882     -0.43989048776689      2.33046042521816
  H   -1.19404518608954      0.71423017060192      1.74909845399091
