14
Coordinates from ORCA-job run
  C   0.65972872736620      0.36817858103021      0.07739392290019
  C   -0.46257336107539     -0.56013475932442      0.61197930611676
  F   0.96457773305213      1.24994044264442      1.09591307600506
  H   -0.03418680049149     -1.14395451290997      1.43347353304565
  C   1.89034459726117     -0.40840058127732     -0.20282016925758
  N   2.84532924286106     -1.04450307860470     -0.45691758477033
  N   0.16765776756999      1.14333015666653     -1.01995899339093
  H   -0.04201100444483      0.55261301662975     -1.81724338667329
  H   0.85760791389454      1.83225762107496     -1.29711467584149
  C   -0.83881587406947     -1.47957305139938     -0.46958746436272
  N   -1.11496138108324     -2.15941585869145     -1.38605341519065
  N   -1.61982595221817      0.15403758802278      1.09995346677744
  H   -1.35966893961863      0.66856549385494      1.93260464951305
  H   -1.91320266900386      0.82605894228364      0.39937773512886
