14
Coordinates from ORCA-job run
  C   0.73206099487073      0.27464746710916     -0.01098610126277
  C   -0.43931066619957     -0.53267863303936      0.60352323930476
  F   1.17142100727683      1.10635700934996      1.04481606837728
  H   -0.02839154724774     -1.03064192295504      1.48837878827261
  C   1.86023464528267     -0.60859623092946     -0.34614133312058
  N   2.75364166967727     -1.33537801248037     -0.57459974323450
  N   0.32637266090190      1.00218170288230     -1.14301806259746
  H   -0.41152838422180      1.65396934123305     -0.91239023128755
  H   1.09476669679717      1.49109743308427     -1.58287140408087
  C   -0.87869348918999     -1.55993935478629     -0.34479697467057
  N   -1.23943879334619     -2.38043348026458     -1.10208506409563
  N   -1.56815997284207      0.27048653447350      1.02221938362794
  H   -1.26753082001130      1.02948396210380      1.61964812209015
  H   -2.10444400174793      0.61944418421905      0.23930331267718
