14
Coordinates from ORCA-job run
  C   0.77330144483680      0.30952505964838     -0.07848474063208
  C   -0.40399240529989     -0.47149863537041      0.53856213134558
  F   1.21194347495523      1.15140611441230      0.97702922651676
  H   -0.00982010209493     -0.99524740445747      1.42021142019218
  C   1.90657120689509     -0.58071854015045     -0.38179733972621
  N   2.80514923693488     -1.30350831731434     -0.60082116490904
  N   0.35469809961088      1.00498476143085     -1.21446023522456
  H   1.07810426210300      1.58436515656029     -1.61662061449222
  H   -0.49302925690742      1.52240779240919     -1.01604846797647
  C   -0.90021161580685     -1.47052223647840     -0.40937480373075
  N   -1.33388781247476     -2.28446710753438     -1.13517404567557
  N   -1.45183509277493      0.49940936504082      0.84043004326986
  H   -2.33583207120860      0.03113421973098      0.99382854977041
  H   -1.20115936876848      1.00272977207266      1.68272004127212
