14
Coordinates from ORCA-job run
  C   0.76602761531347      0.20284863537072     -0.14115461733575
  C   -0.46206641455665     -0.25943386205084      0.66011304212826
  F   1.89024099164157     -0.08241625022618      0.63993189721621
  H   -0.45784170052560      0.34506661265024      1.58389060516055
  C   0.89646906814656     -0.55099562891722     -1.39921884699299
  N   1.05600624702285     -1.12791566978087     -2.40844885019562
  N   0.63848734924061      1.58798934210729     -0.41932867821404
  H   0.72996044567345      2.12260047732337      0.43746832803901
  H   1.33286867091961      1.90133870439085     -1.08596937085383
  C   -0.31088980649180     -1.66256052226478      1.05878487996699
  N   -0.23272158340771     -2.78701842689412      1.38439136821913
  N   -1.63181214119398     -0.10546570089312     -0.18172318332864
  H   -2.46083771605722     -0.45644823738901      0.27969619150069
  H   -1.75389102572514      0.87341052657368     -0.40843276530994
