14
Coordinates from ORCA-job run
  C   0.79182011344792      0.08735618062324      0.12699461225725
  C   -0.58849934880607     -0.37187862518165      0.64455649253521
  F   1.75936037913558     -0.49035864911587      0.91431826849572
  H   -0.59467094106146     -0.06989741284181      1.69711424178422
  C   0.99421638770498     -0.37559261523377     -1.26853453242486
  N   1.09461001602919     -0.67593293441590     -2.40023737177292
  N   0.91056499073901      1.51218046616396      0.28954223422208
  H   1.88812863140944      1.76951372980436      0.20254488037423
  H   0.39636495897361      1.99731485753027     -0.43572758961393
  C   -0.66819133346312     -1.83685105782754      0.57816626310275
  N   -0.72091381605930     -3.00718098731479      0.50953145610672
  N   -1.72851695068066      0.22005960851125     -0.01508721303166
  H   -1.78930094982526      1.21157486765227      0.16799349178812
  H   -1.74397213754389      0.03069257164600     -1.00917523382295
