14
Coordinates from ORCA-job run
  C   0.74102413887464      0.23195505035382      0.03471724824818
  C   -0.58977727568587     -0.28621368209891      0.63405787972523
  F   1.76446813747374     -0.13542754376494      0.91281542099638
  H   -0.72224757025842      0.26255887392810      1.57606074554488
  C   1.00241169497815     -0.42453772981956     -1.25835587613230
  N   1.17924394867819     -0.96212064886584     -2.28693272283188
  N   0.65235108623602      1.63341544335970     -0.14681735486458
  H   0.58073630678193      2.09989844295709      0.75055149623913
  H   1.44810731539730      1.99974612086146     -0.65413775839865
  C   -0.45977038405419     -1.70885134581616      0.96478822493556
  N   -0.36070757274169     -2.85389097098714      1.20039082016175
  N   -1.75133785728465     -0.07306571499594     -0.20053949586251
  H   -1.76666784664335      0.89151236678592     -0.50966877799222
  H   -1.71983412175183     -0.67397866189762     -1.01592984976897
