14
Coordinates from ORCA-job run
  C   0.88700162340204      0.30718320736454     -0.05047084288009
  C   -0.45047608613418     -0.07549865569863      0.63046647565231
  F   1.86148769453289      0.24455167188705      0.91752160584910
  H   -0.63497670140585      0.70675111549898      1.37460052633337
  C   1.17453066743299     -0.69126524667942     -1.10382230255082
  N   1.32527636398776     -1.49865731364523     -1.94252923978492
  N   0.91366528674613      1.61698712013498     -0.61904770656935
  H   0.14567185100926      1.70917599530297     -1.27454262280375
  H   0.79601290547213      2.30048786649478      0.12158194408954
  C   -0.33408728712134     -1.36443357350543      1.33331603300609
  N   -0.28510044380588     -2.41402032277381      1.85889415723776
  N   -1.49881847041621     -0.02235644254022     -0.37604352683166
  H   -2.40766363917403      0.05424213991953      0.06288305471545
  H   -1.49552376452576     -0.87114756176008     -0.93180755546307
