14
Coordinates from ORCA-job run
  C   0.50605164062222      0.50835047986298     -0.26194821460696
  C   -0.48457744977166     -0.54396432100328      0.25682262754845
  F   -0.02102558728361      1.75432564633318      0.02128788817720
  H   -0.03738067167485     -1.53126541746456      0.09375273768799
  C   1.77648054921903      0.39378982454610      0.49765126067929
  N   2.82650953787280      0.24818991739842      1.00332281404413
  N   0.65031658568841      0.42005041908076     -1.67820160750731
  H   0.96979459607415     -0.49769388681268     -1.96275963692665
  H   1.30518122347171      1.11705113704960     -2.01264809828904
  C   -1.73419346686448     -0.46657451954920     -0.52522607549304
  N   -2.77856173508527     -0.43983104633812     -1.06167566536910
  N   -0.65018045323766     -0.34976699387257      1.68301692503963
  H   -1.16225423941278      0.50665963048849      1.85599764622474
  H   -1.16516052961804     -1.11932086971911      2.09060739879066
