14
Coordinates from ORCA-job run
  C   0.60217263921180      0.37025014447800     -0.34171567145175
  C   -0.52587582150534     -0.43705513548808      0.34049803076218
  F   0.17990276456265      1.69907325916086     -0.39351280515190
  H   -0.21085499525970     -1.48718277306669      0.32774588239973
  C   1.79916806094494      0.32696469538692      0.51720492466365
  N   2.74229336825792      0.25804446745481      1.21159073328996
  N   0.90553982933547     -0.16825328497890     -1.61397754780699
  H   1.69895782154599      0.29908775789128     -2.03412101825538
  H   0.10716927043176     -0.09771462618463     -2.23508373427974
  C   -1.72097987506612     -0.32080124248395     -0.50282982844615
  N   -2.66759171704814     -0.22374615049576     -1.19016553435600
  N   -0.75606886699082      0.07209844941366      1.68165075164083
  H   -1.72586312032684      0.28996830506451      1.85485981915099
  H   -0.42896935809362     -0.58173386615203      2.37785599784057
