14
Coordinates from ORCA-job run
  C   0.61025169348517      0.31307971863455     -0.32617165031562
  C   -0.47713053612192     -0.48325847884118      0.41341774327958
  F   0.19803577789351      1.66014757826918     -0.28150066909665
  H   -0.11674170583360     -1.51232177755455      0.49723205415679
  C   1.87777815865293      0.23333422317793      0.42178807620886
  N   2.90625796640512      0.16843081246840      0.98263204845279
  N   0.79741878243295     -0.16536348573271     -1.63725233106287
  H   -0.04459693551583     -0.06702118926838     -2.19234082848030
  H   1.57254202031355      0.29243584420539     -2.09877923079976
  C   -1.69565348530479     -0.49266565778955     -0.42489915508666
  N   -2.67177346583758     -0.48044282754305     -1.07866094319593
  N   -0.64898475281667      0.07027090477547      1.73798976076471
  H   -1.23973233201798     -0.52510513319461      2.30338272521852
  H   -1.06667118573490      0.99047946839306      1.68316239995658
