14
Coordinates from ORCA-job run
  C   0.48466462425328      0.56516900929517     -0.26919189474422
  C   -0.51912624078955     -0.50973139687987      0.19498500995573
  F   -0.08120421993259      1.80034554077307     -0.08189629034445
  H   -0.08961997897201     -1.48983412279285     -0.05248996647808
  C   1.68333238791565      0.48290817981307      0.60494818436576
  N   2.65285572210656      0.31784023960874      1.24734956603851
  N   0.75319344990112      0.42776545779216     -1.66748808224629
  H   1.32973642168726      1.19645019581847     -1.98950922674680
  H   1.22801254932802     -0.44382846165713     -1.86862007849733
  C   -1.75544762786484     -0.35560207377167     -0.58056773597363
  N   -2.78510868457796     -0.25070325374950     -1.13400214119086
  N   -0.74926251602246     -0.36923372938471      1.62312888481597
  H   -1.71828615902333     -0.19080432445431      1.84086920194283
  H   -0.43273972800915     -1.18074126041067      2.13248456910289
