14
Coordinates from ORCA-job run
  C   0.79142965814295      0.29754313882064     -0.02890580032958
  C   -0.57570177582776     -0.04987503840623      0.59249356362353
  F   1.69586069701321      0.27127803110648      1.04785782739033
  H   -0.73588505382709      0.70108562447918      1.37519365017437
  C   1.22614136350754     -0.76010591343660     -0.96480537699350
  N   1.53173490014503     -1.60256022068360     -1.72331260069202
  N   0.74980763057425      1.52751660687035     -0.70034134506638
  H   1.66651728254068      1.83080074211055     -1.00051107399986
  H   0.27379070697190      2.24621036673497     -0.17339073229648
  C   -0.47936399791537     -1.36338376131801      1.26200663907262
  N   -0.47835319731716     -2.41428243462699      1.78676214580035
  N   -1.64054232007951      0.06410223957177     -0.38255581525588
  H   -2.52879768893684     -0.15528523826105      0.05227258905639
  H   -1.49663820499184     -0.59304414296144     -1.14176367048389
