14
Coordinates from ORCA-job run
  C   0.60205666750606      0.51639422455336     -0.17598390387593
  C   -0.47582949523961     -0.51628667018863      0.22908094356969
  F   0.11816731382424      1.73673138314333      0.28365790111411
  H   -0.07950214234809     -1.50664090240635     -0.01761954886211
  C   1.84963343178692      0.20532651844897      0.54770493489201
  N   2.86205784859042     -0.06862382748991      1.07346322519359
  N   0.88001448395537      0.63301899500946     -1.56054055477559
  H   0.05188178956789      0.57947647562646     -2.13858279649810
  H   1.61064450256712      0.01909706293097     -1.88587584158525
  C   -1.67017678845123     -0.28446597571263     -0.61107668688704
  N   -2.62473442244133     -0.09366868032256     -1.26913544258497
  N   -0.69849931545098     -0.44550921824028      1.65544973274548
  H   -1.14124646530850      0.43180460927595      1.89725121599791
  H   -1.28346740855823     -1.20765399462816      1.97220682155613
