15

C	-0.598057	-0.099718	-1.394438
C	0.0	0.0	0.0
Cl	0.18618	1.1658	-2.442034
H	1.091648	0.0	0.0
H	-0.323493	-1.046995	-1.848908
N	-2.015614	0.037047	-1.312684
H	-2.423908	-0.038242	-2.23295
H	-2.220193	0.96253	-0.953963
N	-0.388375	-1.307186	0.692986
O	-0.094778	-2.346708	0.113675
O	-0.960705	-1.246812	1.780399
N	-0.487191	1.141543	0.705612
H	0.249327	1.489755	1.306026
H	-1.272307	0.881206	1.284967
Br	3.466352	0.0	0.0
