15

C	-0.531856	0.02835	-1.433884
C	0.0	0.0	0.0
Cl	0.003831	1.53442	-2.229759
H	1.088792	0.0	0.0
H	-0.069195	-0.779763	-2.003502
N	-1.983565	0.031801	-1.415924
H	-2.336068	0.040107	-2.365749
H	-2.318191	-0.812126	-0.962767
N	-0.428767	-1.382869	0.498384
O	-1.262316	-1.471804	1.396412
O	0.063113	-2.339203	-0.100825
N	-0.494233	1.015688	0.849685
H	-1.345706	1.424854	0.491877
H	0.220679	1.71208	0.997321
Br	3.487834	0.0	0.0
