15

C	-0.518915	-0.006141	-1.440846
C	0.0	0.0	0.0
Cl	0.215506	1.362897	-2.33004
H	1.088806	0.0	0.0
H	-0.142589	-0.904002	-1.943196
N	-1.953598	0.167119	-1.458244
H	-2.316609	0.025568	-2.393962
H	-2.38255	-0.495783	-0.819801
N	-0.460587	-1.339691	0.556697
O	0.30141	-2.292591	0.434969
O	-1.598413	-1.404588	1.032241
N	-0.493096	1.057899	0.810168
H	-1.293236	1.508127	0.388634
H	0.250289	1.72053	0.975009
Br	3.526382	0.0	0.0
