15

C	-0.452337	0.19179	-1.451014
C	0.0	0.0	0.0
Cl	-0.468064	-1.444944	-2.341795
H	1.090631	0.0	0.0
H	-1.497952	0.496264	-1.495873
N	0.399151	1.140357	-2.037373
H	1.379516	0.926492	-1.874324
H	0.21583	1.277588	-3.019595
N	-0.526704	-1.314615	0.52955
O	-1.744572	-1.346628	0.744638
O	0.249002	-2.239912	0.729249
N	-0.47047	1.090835	0.796051
H	-1.419574	0.920229	1.104288
H	0.143229	1.220466	1.589293
Br	3.513502	0.0	0.0
