15

C	-0.592544	-0.130299	-1.39559
C	0.0	0.0	0.0
Cl	0.067454	1.271698	-2.382252
H	1.096977	0.0	0.0
H	-0.210386	-1.015911	-1.895115
N	-2.005293	-0.140786	-1.298683
H	-2.288276	0.689064	-0.787897
H	-2.441725	-0.153998	-2.210297
N	-0.389672	-1.259982	0.73366
O	-0.143837	-2.317605	0.165656
O	-0.8994	-1.166025	1.850336
N	-0.549785	1.159854	0.674382
H	-0.790306	0.883152	1.619564
H	0.193539	1.847152	0.73106
Br	3.467936	0.0	0.0
