15

C	-0.391482	-0.144283	-1.471672
C	0.0	0.0	0.0
Cl	-2.177753	-0.456686	-1.576466
H	1.102912	0.0	0.0
H	-0.25324	0.852377	-1.88994
N	0.328915	-1.094226	-2.263927
H	0.369223	-1.969746	-1.755045
H	1.287233	-0.754524	-2.321315
N	-0.410135	-1.24535	0.776466
O	-1.063997	-1.095984	1.807503
O	-0.060536	-2.336254	0.328823
N	-0.498205	1.198873	0.571513
H	0.031885	1.425902	1.40211
H	-1.473733	1.101239	0.821819
Br	3.447038	0.0	0.0
