19

C	0.0	0.0	0.0
C	-0.310248	0.138489	-1.521427
Cl	1.805768	0.0	0.0
H	0.0999	1.104015	-1.828456
N	-0.487724	1.132999	0.734768
H	-1.492345	1.025545	0.867868
H	-0.316302	1.99668	0.232072
C	-0.524331	-1.261483	0.651292
H	-0.154955	-2.149568	0.144961
H	-0.205755	-1.266002	1.694948
H	-1.618741	-1.248077	0.613335
C	-1.760169	0.00605	-1.925671
H	-2.403587	0.699149	-1.388123
H	-2.147157	-0.988622	-1.712382
H	-1.848729	0.201677	-2.998892
N	0.466145	-0.832868	-2.36652
O	1.205809	-0.362072	-3.230335
O	0.280079	-2.034047	-2.186131
Br	-4.526777	0.0	0.0
