19

C	0.0	0.0	0.0
C	-0.226852	-0.02651	-1.547445
Cl	1.870776	0.0	0.0
H	0.539207	-0.675068	-1.972079
N	-0.534288	1.15359	0.576381
H	-0.778812	1.071395	1.549428
H	-0.077424	2.020952	0.351853
C	-0.470461	-1.226729	0.747934
H	-1.565095	-1.229527	0.732431
H	-0.111805	-1.163245	1.7792
H	-0.094665	-2.139736	0.294261
C	-0.172833	1.356149	-2.160625
H	-0.191621	1.291153	-3.248388
H	0.75073	1.857061	-1.861541
H	-1.039417	1.930873	-1.836581
N	-1.484813	-0.738102	-2.014855
O	-1.54612	-1.937039	-1.751553
O	-2.265385	-0.127424	-2.73198
Br	-4.187508	0.0	0.0
