19

C	0.0	0.0	0.0
C	-0.527898	0.315197	-1.407504
Cl	1.857693	0.0	0.0
H	-1.579402	0.594325	-1.24071
N	-0.480082	0.940944	0.927772
H	-0.151349	0.758437	1.86431
H	-0.327265	1.900303	0.654203
C	-0.425266	-1.391759	0.433841
H	-0.103165	-1.552309	1.465559
H	0.033751	-2.161569	-0.184848
H	-1.517422	-1.437877	0.387383
C	-0.418685	-0.811254	-2.409196
H	-1.111552	-1.599335	-2.116305
H	0.598696	-1.201238	-2.472521
H	-0.71432	-0.454861	-3.39656
N	0.163372	1.540885	-1.926818
O	-0.073932	2.603614	-1.348752
O	0.935112	1.429483	-2.876737
Br	-3.980118	0.0	0.0
