19

C	0.0	0.0	0.0
C	-0.406907	-0.181442	-1.476503
Cl	1.844943	0.0	0.0
H	-0.120396	0.728641	-2.007441
N	-0.509003	1.260145	0.400215
H	-0.063599	2.029211	-0.080615
H	-0.461547	1.395311	1.40065
C	-0.493959	-1.07685	0.940747
H	-1.586359	-1.035203	0.968337
H	-0.164719	-2.059791	0.613743
H	-0.101968	-0.887138	1.94373
C	-1.874077	-0.503585	-1.672645
H	-2.521208	0.187012	-1.130665
H	-2.107274	-1.504293	-1.312265
H	-2.116204	-0.452378	-2.737596
N	0.405241	-1.241661	-2.158441
O	1.055139	-0.903535	-3.147381
O	0.340954	-2.388201	-1.719787
Br	-4.974194	0.0	0.0
