19

C	0.0	0.0	0.0
C	-0.27043	-0.001569	-1.537319
Cl	1.797131	0.0	0.0
H	0.226103	0.892894	-1.912413
N	-0.497216	1.272352	0.479426
H	-1.515633	1.236922	0.38917
H	-0.31436	1.324792	1.475941
C	-0.522707	-1.192507	0.776353
H	-1.613914	-1.202285	0.688985
H	-0.260905	-1.060515	1.830589
H	-0.112418	-2.135017	0.421416
C	-1.697537	-0.075899	-2.030777
H	-1.674079	-0.085102	-3.125192
H	-2.213258	-0.959014	-1.666815
H	-2.28114	0.782686	-1.708851
N	0.462863	-1.12166	-2.222219
O	0.190878	-2.277287	-1.903202
O	1.253033	-0.811182	-3.114889
Br	-4.337784	0.0	0.0
