14
Coordinates from ORCA-job run
  C   -0.78918280752420      0.32277439849067      0.12445544566758
  C   0.46935602485048      0.40324469430737     -0.73850846114316
  Br  -2.10689195512305      1.67467769904591     -0.65040955821964
  H   0.18643800110754      0.10220860172701     -1.75304161718216
  H   0.77943901050841      1.44865966549079     -0.79359207810298
  C   -0.53740451538262      0.80009513023916      1.48491014069934
  N   -0.30124753397362      1.16539429480946      2.57649301976328
  N   -1.31147771861847     -0.98952034883280      0.16573464939909
  H   -1.51520450500175     -1.33212196975484     -0.76531915593583
  H   -2.13658264609381     -1.06385154942921      0.74696779119042
  C   1.59763639923649     -0.47156219870073     -0.19929143910046
  H   1.89248304710160     -0.15782916803485      0.80447654763239
  H   2.47225753568022     -0.38413217815324     -0.84775163200920
  H   1.30038166323277     -1.51903707120469     -0.15512365265867
