14
Coordinates from ORCA-job run
  C   1.20966001864855     -0.18370311852554     -0.19232514890913
  C   -0.29615989569572     -0.20000173441380     -0.47015844292164
  Br  2.01845991203289     -1.92103139082346     -0.60496969327940
  H   -0.40346009020927     -0.47063120261553     -1.53293963115202
  H   1.70618584641215      0.51923036906029     -0.86509933863175
  C   1.51067960382047      0.17188879512393      1.18784872014064
  N   1.75736078566301      0.51027280712156      2.28513314334764
  C   -0.86526753269532      1.19606137666687     -0.25086543539275
  H   -0.34544431854401      1.94045416124620     -0.85865714950931
  H   -1.92112366296968      1.21501438241287     -0.53430696378537
  H   -0.78773310223367      1.47340955845336      0.80228715314642
  N   -0.93778225583445     -1.12948314089452      0.44292523433118
  H   -0.70069595339517     -2.08545913667425      0.20695725277021
  H   -1.94367935499978     -1.03402172613797      0.38317029984528
