14
Coordinates from ORCA-job run
  C   1.03741197261143      0.07840264966966      0.61047621205995
  C   -0.15844856374230      0.08642562661641     -0.36192927809138
  Br  1.69454371290337      1.87265700285657      1.03159521913303
  H   0.20296072712281      0.49838985322315     -1.31025123093305
  H   0.72558131663155     -0.36514020615848      1.55907882754994
  C   2.13880496215129     -0.69782341157832      0.05456727653173
  N   3.02613384157803     -1.30242121453156     -0.42126296286353
  C   -1.32586213024598      0.91853262947631      0.14911156201362
  H   -1.07434540760270      1.97373008512172      0.24873425542229
  H   -2.16468106370484      0.82694540065924     -0.54445967211959
  H   -1.65027450887655      0.55163132703618      1.12864434382351
  N   -0.50384644942972     -1.32155027542710     -0.53960637124280
  H   -0.56526085047972     -1.57583178077128     -1.51464557008549
  H   -1.38171755891664     -1.54394768619250     -0.08905261119825
