14
Coordinates from ORCA-job run
  C   1.10342297629781     -0.48586922395480      0.28521922433117
  C   -0.24054652085543     -0.15610599437215     -0.39065269426939
  Br  0.94333278448665     -0.79529295631126      2.20412864616650
  H   0.03541484443632      0.08408895926515     -1.43198368593654
  H   1.49384237700003     -1.42281816554127     -0.12038769509139
  C   2.07715961186575      0.57335002142107      0.05148723717409
  N   2.83049732119254      1.44571284930673     -0.17661622421255
  C   -0.91984686028355      1.06024538794129      0.21424150830869
  H   -1.77970093703436      1.34375164849296     -0.39844124376516
  H   -1.27087729987405      0.83222732063629      1.22144307714918
  H   -0.24295534878085      1.91539452141463      0.25863878344193
  N   -1.10644577203268     -1.31914796163450     -0.28776315183237
  H   -2.06845207447393     -1.05466713126027     -0.45719327269725
  H   -0.85384510194425     -2.02186927540385     -0.97212050876693
