14
Coordinates from ORCA-job run
  C   0.97459712470449      0.06254963512999      0.56445241409765
  C   -0.21494694006927      0.16405075172449     -0.42286512501327
  Br  1.83704964346387      1.79064877578224      0.88091736100122
  H   0.16697565745190      0.63231238924221     -1.33623924259929
  H   0.61686383790572     -0.27579609032873      1.54133100084424
  C   1.97916638081018     -0.86965968747261      0.06931125505407
  N   2.74722718689060     -1.63989033753224     -0.37535367183262
  C   -1.34020199108403      1.00759637312602      0.15454802184467
  H   -1.72455091669963      0.55139621904961      1.07319185036116
  H   -1.01602913252961      2.02181065749111      0.38513344419889
  H   -2.15505469270071      1.04950287517944     -0.56857456638509
  N   -0.73628092026357     -1.14274690620015     -0.78078371058916
  H   -0.03197038997583     -1.72584427576087     -1.21632653423141
  H   -1.10284484790411     -1.62593037943051      0.03125750324893
