14
Coordinates from ORCA-job run
  C   1.17714292975587     -0.19389610274821     -0.20365786907484
  C   -0.33234320252249     -0.16714266532760     -0.55125027984857
  Br  1.97946923365947     -1.90817110149819     -0.69955451784543
  H   -0.39632363190847     -0.40139914654509     -1.61942984804554
  H   1.72149768819502      0.55496262429023     -0.78384174182501
  C   1.38657368295237      0.03640949928743      1.21842050407994
  N   1.48075297443642      0.23749205137377      2.37243901945348
  C   -0.87299790783021      1.23706974001837     -0.30933555816930
  H   -0.30616707582813      1.98957745172160     -0.86283692184264
  H   -0.83556106620986      1.49175204371797      0.75372861786796
  H   -1.91449379761543      1.27358700581929     -0.63037871671905
  N   -1.14461369909987     -1.12794302682230      0.16051017937335
  H   -0.82194034488715     -2.07356390353068     -0.00310597052502
  H   -1.12099578309753     -0.94873446975658      1.15829310312066
