19

C	0.0	0.0	0.0
C	-0.269294	-0.284654	-1.537807
Br	1.976384	0.0	0.0
H	0.566626	0.142618	-2.092986
C	-0.40512	1.386471	0.476543
H	-0.058178	1.48963	1.506268
H	-1.493534	1.457004	0.447645
H	0.027114	2.167785	-0.143328
N	-0.507685	-0.955889	0.926355
H	-0.345231	-1.903033	0.609004
H	-1.522872	-0.800814	0.961991
N	-1.418457	0.463207	-2.19736
O	-2.186119	-0.173907	-2.907776
O	-1.387937	1.688075	-2.116333
C	-0.395337	-1.765077	-1.832903
H	-0.400013	-1.942053	-2.9082
H	-1.331346	-2.145526	-1.421981
H	0.456024	-2.297168	-1.400473
Cl	-3.587143	0.0	0.0
