19

C	0.0	0.0	0.0
C	-0.402993	0.200907	-1.475816
Br	2.032129	0.0	0.0
H	-0.123796	-0.704431	-2.020191
C	-0.480881	1.067862	0.959026
H	-0.143742	2.053803	0.649564
H	-1.574161	1.03395	0.98169
H	-0.096989	0.857311	1.960136
N	-0.500874	-1.259404	0.38631
H	-0.087694	-2.0303	-0.120651
H	-0.448975	-1.415847	1.382658
N	0.397152	1.272003	-2.156965
O	0.358795	2.406982	-1.68681
O	1.000308	0.955576	-3.182093
C	-1.873696	0.529651	-1.658548
H	-2.123285	0.480981	-2.721657
H	-2.522838	-0.155881	-1.111711
H	-2.096952	1.531321	-1.293967
Cl	-4.825463	0.0	0.0
