19

C	0.0	0.0	0.0
C	-0.540809	-0.046317	-1.439648
Br	1.976868	0.0	0.0
H	-1.621821	-0.191817	-1.316947
C	-0.427907	1.300398	0.674057
H	-1.520961	1.34227	0.639514
H	0.008425	2.182324	0.202643
H	-0.103057	1.276928	1.717714
N	-0.435732	-1.189507	0.681382
H	-1.452134	-1.236654	0.572314
H	-0.237021	-1.091376	1.671495
N	-0.053655	-1.274534	-2.147868
O	0.953554	-1.170638	-2.852231
O	-0.696479	-2.310387	-1.994704
C	-0.262005	1.177181	-2.285892
H	-0.851867	2.01248	-1.908097
H	-0.572939	0.988859	-3.315389
H	0.797081	1.435095	-2.287479
Cl	-3.681109	0.0	0.0
