19

C	0.0	0.0	0.0
C	-0.499747	-0.076637	-1.450723
Br	2.049959	0.0	0.0
H	-1.564591	-0.345327	-1.351096
C	-0.397307	1.310301	0.655137
H	-1.489436	1.380621	0.59944
H	0.083447	2.163457	0.179019
H	-0.093074	1.290625	1.704052
N	-0.485167	-1.066405	0.745694
H	-0.22744	-1.056836	1.719146
H	-0.426576	-1.971027	0.309198
N	0.157194	-1.23091	-2.160607
O	-0.044584	-2.360544	-1.708932
O	0.853435	-1.002733	-3.147202
C	-0.342568	1.188983	-2.261653
H	-0.643386	1.006898	-3.292701
H	-1.006795	1.948901	-1.848101
H	0.689007	1.545881	-2.258972
Cl	-3.803407	0.0	0.0
