19

C	0.0	0.0	0.0
C	-0.26189	-0.092672	-1.565159
Br	1.975678	0.0	0.0
H	0.569708	0.411359	-2.057458
C	-0.416523	1.318178	0.632493
H	-0.076283	1.306403	1.669647
H	0.013785	2.168291	0.108504
H	-1.50554	1.384793	0.603324
N	-0.509436	-1.063831	0.797845
H	-1.525548	-0.919152	0.845449
H	-0.33774	-1.965213	0.371069
N	-1.419992	0.71715	-2.129531
O	-1.373429	1.9308	-1.942082
O	-2.217974	0.149523	-2.864414
C	-0.371838	-1.524346	-2.041489
H	-0.373505	-1.566167	-3.130982
H	0.482305	-2.098966	-1.675598
H	-1.304756	-1.96239	-1.685921
Cl	-3.617714	0.0	0.0
