19

C	0.0	0.0	0.0
C	-0.369367	-0.126221	-1.508362
Br	1.967438	0.0	0.0
H	-0.140797	-1.155751	-1.785244
C	-0.473704	1.288002	0.656819
H	-0.105163	2.169029	0.132475
H	-1.569178	1.289576	0.660168
H	-0.122833	1.314708	1.692177
N	-0.491738	-1.202048	0.630139
H	-1.501963	-1.22773	0.48121
H	-0.351582	-1.124626	1.632658
N	0.515857	0.694134	-2.402502
O	0.542197	1.911075	-2.234341
O	1.115703	0.098288	-3.296876
C	-1.787703	0.260359	-1.872591
H	-2.546985	-0.22327	-1.256712
H	-1.933196	1.333489	-1.752004
H	-1.97224	-0.001829	-2.917997
Cl	-4.482396	0.0	0.0
