19

C	0.0	0.0	0.0
C	-0.302031	0.09578	-1.551963
Br	1.976113	0.0	0.0
H	0.485942	-0.456101	-2.066764
N	-0.548818	1.027426	0.809227
H	-1.584154	0.804203	0.678457
H	-0.346253	1.937729	0.407899
C	-0.393372	-1.343422	0.600051
H	-0.029438	-1.360966	1.629318
H	0.025092	-2.179558	0.041018
H	-1.484098	-1.361156	0.577103
C	-0.353531	1.529963	-2.03028
H	-0.389109	1.575516	-3.119069
H	0.536314	2.062455	-1.687352
H	-1.254291	2.001506	-1.639126
N	-1.531093	-0.636713	-2.060279
O	-1.506279	-1.862542	-1.965986
O	-2.376746	-0.004378	-2.679718
F	-2.762379	0.0	0.0
