19

C	0.0	0.0	0.0
C	-0.54532	0.087486	-1.437208
Br	1.976869	0.0	0.0
H	-1.634649	0.153246	-1.24372
N	-0.507673	1.138452	0.714611
H	-1.536659	0.999244	0.603894
H	-0.283629	1.015527	1.698112
C	-0.43017	-1.332228	0.61329
H	-0.112476	-1.352767	1.660036
H	-1.525176	-1.310179	0.549217
H	0.001905	-2.198848	0.108907
C	-0.191952	-1.065351	-2.353084
H	-0.527516	-0.844393	-3.36897
H	-0.716249	-1.96084	-2.018253
H	0.882115	-1.252946	-2.381222
N	-0.138083	1.37227	-2.082942
O	-0.884283	2.342067	-1.956392
O	0.913107	1.386194	-2.732265
F	-2.898213	0.0	0.0
