19

C	0.0	0.0	0.0
C	-0.341106	0.15942	-1.519264
Br	1.985576	0.0	0.0
H	0.460686	-0.330324	-2.075969
N	-0.535839	1.096699	0.738232
H	-0.335555	0.925197	1.719882
H	-1.570803	0.885564	0.584948
C	-0.3568	-1.362714	0.594529
H	0.034733	-1.395385	1.61674
H	0.058166	-2.195426	0.027729
H	-1.447995	-1.389707	0.598806
C	-0.467959	1.60971	-1.927655
H	0.366004	2.172595	-1.511687
H	-0.475292	1.702892	-3.014844
H	-1.395713	2.007551	-1.52726
N	-1.536332	-0.625679	-2.038306
O	-2.3704	-0.037581	-2.712649
O	-1.479774	-1.846725	-1.915037
F	-2.741029	0.0	0.0
