19

C	0.0	0.0	0.0
C	-0.673567	0.042755	-1.355682
Br	2.04974	0.0	0.0
H	-1.780994	0.217777	-0.947103
N	-0.368757	1.115715	0.796717
H	0.234374	1.204933	1.600794
H	-0.389392	1.969145	0.258786
C	-0.401086	-1.266361	0.739551
H	-0.041413	-1.206012	1.769648
H	-1.497691	-1.228691	0.717904
H	0.005893	-2.168009	0.280542
C	-0.617171	-1.247203	-2.140644
H	0.401531	-1.630336	-2.256057
H	-1.037869	-1.093926	-3.134244
H	-1.239215	-1.977661	-1.624142
N	-0.185367	1.17657	-2.174383
O	-0.27627	2.320896	-1.711313
O	0.276646	0.952436	-3.297802
F	-2.918275	0.0	0.0
