19

C	0.0	0.0	0.0
C	-0.215261	-0.064783	-1.564059
Br	2.031591	0.0	0.0
H	0.144435	0.900389	-1.920773
N	-0.590062	1.22906	0.42804
H	-1.615275	0.993506	0.336262
H	-0.411416	1.31365	1.426346
C	-0.464323	-1.213672	0.778059
H	-0.184791	-1.094084	1.829346
H	-0.045881	-2.142153	0.395572
H	-1.558395	-1.181982	0.683597
C	-1.586471	-0.372485	-2.1453
H	-2.375743	0.147556	-1.598488
H	-1.551743	-0.136348	-3.214276
H	-1.807636	-1.433598	-2.017787
N	0.686815	-1.055096	-2.258569
O	1.354982	-0.634769	-3.204664
O	0.640824	-2.234985	-1.916208
F	-3.034032	0.0	0.0
