19

C	0.0	0.0	0.0
C	-0.227226	8.4e-05	-1.562074
Br	1.96744	0.0	0.0
H	0.326946	0.8721	-1.908058
N	-0.595742	1.226863	0.448626
H	-0.402907	1.316372	1.442994
H	-1.619941	0.971236	0.362528
C	-0.478376	-1.219077	0.768703
H	-0.048933	-2.150993	0.407155
H	-0.211797	-1.083817	1.822636
H	-1.570331	-1.193396	0.658398
C	-1.615807	0.029369	-2.180852
H	-2.157429	-0.8925	-1.9969
H	-1.470327	0.190854	-3.256944
H	-2.22329	0.811528	-1.742336
N	0.464022	-1.148492	-2.248164
O	1.266012	-0.874326	-3.142705
O	0.133278	-2.294453	-1.946375
F	-2.977203	0.0	0.0
