19

C	0.0	0.0	0.0
C	-0.227887	-0.104374	-1.575486
Br	1.979937	0.0	0.0
H	0.069489	0.871568	-1.968538
N	-0.622364	1.164791	0.525544
H	-1.64324	0.925627	0.473224
H	-0.443256	1.961747	-0.0778
C	-0.500767	-1.208189	0.763434
H	-1.594076	-1.170608	0.671497
H	-0.094731	-2.132062	0.355733
H	-0.214925	-1.104284	1.812467
C	-1.598992	-0.497445	-2.09483
H	-1.750617	-1.566636	-1.937703
H	-2.394348	-0.005421	-1.518549
H	-1.630119	-0.287814	-3.169903
N	0.71339	-1.04305	-2.293506
O	0.711402	-2.230161	-1.974156
O	1.373263	-0.57774	-3.224588
F	-3.109801	0.0	0.0
