15

C	0.0	0.0	0.0
C	-0.532519	0.038461	-1.431229
Br	1.938638	0.0	0.0
H	-1.626941	0.154403	-1.305253
H	-0.333661	0.885684	0.537962
C	-0.415668	-1.215753	0.691854
N	-0.608947	-2.23233	1.248482
C	-0.202403	-1.169141	-2.275429
H	-0.622937	-2.052983	-1.792453
H	-0.653085	-1.06762	-3.261092
H	0.874935	-1.298004	-2.396434
N	-0.064345	1.31132	-2.069876
O	-0.034161	2.317811	-1.36388
O	0.209405	1.2923	-3.269792
Br	-3.545705	0.0	0.0
