15

C	0.0	0.0	0.0
C	-0.375062	0.328063	-1.480476
Br	1.950982	0.0	0.0
H	0.534627	0.198918	-2.073181
H	-0.354259	0.795777	0.653367
C	-0.38296	-1.290673	0.569412
N	-0.504004	-2.307812	1.145517
C	-0.849468	1.757436	-1.621889
H	-1.795222	1.878354	-1.095654
H	-0.978956	2.013982	-2.670989
H	-0.083232	2.413896	-1.194085
N	-1.267337	-0.669476	-2.183258
O	-1.959762	-0.238453	-3.0962
O	-1.070469	-1.852739	-1.934515
Br	-3.310848	0.0	0.0
