14

C	0.0	0.0	0.0
C	-0.492403	-0.111075	-1.441027
Cl	1.801567	0.0	0.0
H	-0.041646	-0.999203	-1.896167
H	-0.296164	-0.90186	0.539049
H	-1.574422	-0.264025	-1.381213
C	-0.505428	1.227766	0.723577
H	-1.599261	1.204499	0.700312
H	-0.141521	2.137771	0.240936
H	-0.164502	1.235711	1.761119
N	-0.232366	1.040444	-2.29943
H	0.70699	1.384446	-2.140759
H	-0.879786	1.780126	-2.060357
Br	-3.969394	0.0	0.0
