14

C	0.0	0.0	0.0
C	-0.628727	0.006426	-1.359692
Br	1.953512	0.0	0.0
H	-0.409029	-0.881932	-1.95014
H	-0.276343	0.923639	0.507473
H	-1.743517	0.077684	-1.09895
C	-0.500641	-1.202559	0.774494
H	-1.597845	-1.120523	0.774509
H	-0.188336	-2.132554	0.290486
H	-0.121252	-1.19525	1.798475
N	-0.249896	1.169032	-2.171042
O	-0.060939	0.994303	-3.380521
O	-0.192973	2.26709	-1.612481
H	-3.11151	0.0	0.0
