14

C	0.0	0.0	0.0
C	-0.571126	-0.043407	-1.399498
Br	1.955162	0.0	0.0
H	-1.680181	-0.085033	-1.222793
H	-0.308239	0.961804	0.41458
H	-0.273498	0.825924	-1.984939
C	-0.466821	-1.124839	0.90563
H	-0.049113	-2.080202	0.589311
H	-1.563216	-1.137118	0.841019
H	-0.156574	-0.925559	1.934402
N	-0.132899	-1.219457	-2.178912
O	-0.496995	-2.335136	-1.800135
O	0.561731	-1.020296	-3.183846
H	-3.14789	0.0	0.0
