17

C	0.0	0.0	0.0
C	-0.307788	-0.084885	-1.534574
Br	1.954289	0.0	0.0
H	0.249046	0.734509	-1.990297
N	-0.460258	1.31485	0.403891
H	-1.483971	1.232758	0.384469
H	-0.193056	1.460647	1.373149
N	-0.486969	-1.130131	0.734109
H	-1.501453	-1.139566	0.57523
H	-0.35099	-0.939681	1.723515
N	-1.666235	-0.112065	-1.908052
H	-2.374621	-0.143865	-1.116718
H	-1.889967	0.651852	-2.531226
N	0.37312	-1.317826	-2.16493
O	1.188625	-1.091452	-3.065402
O	-0.000737	-2.432921	-1.827178
H	-3.286453	0.0	0.0
