17

C	0.0	0.0	0.0
C	-0.441499	0.067493	-1.471632
Br	1.9646	0.0	0.0
H	-0.103329	1.014669	-1.907161
N	-0.515514	1.143008	0.700929
H	-0.090525	1.987648	0.335757
H	-0.250362	1.043078	1.674924
N	-0.414329	-1.181942	0.704569
H	-1.427173	-1.110341	0.73924
H	-0.205288	-1.928729	0.020061
N	-1.947313	0.0233	-1.461057
H	-2.272223	0.895718	-1.868762
H	-2.156721	-0.702013	-2.145111
N	0.138372	-0.979104	-2.340871
O	-0.305593	-0.708339	-3.608456
O	-0.047562	-2.223141	-1.810197
H	-2.990107	0.0	0.0
