15

C	-0.508981	0.019314	-1.455806
C	0.0	0.0	0.0
Cl	0.354081	1.343799	-2.295017
H	1.090825	0.0	0.0
C	-0.121386	-1.245554	-2.111983
N	0.063694	-2.289242	-2.621304
N	-1.918665	0.291952	-1.526328
H	-2.415345	-0.351029	-0.91859
H	-2.243394	0.193412	-2.481022
N	-0.478258	-1.278813	0.655927
O	0.36717	-2.085877	1.014804
O	-1.701155	-1.421852	0.764708
C	-0.52959	1.12844	0.752324
N	-0.92709	2.031357	1.38995
Cl	3.184403	0.0	0.0
