15

C	-0.316896	0.030397	-1.511018
C	0.0	0.0	0.0
Cl	-0.00675	-1.673077	-2.159883
H	1.092659	0.0	0.0
C	-1.716215	0.319434	-1.842643
N	-2.813549	0.586875	-2.166583
N	0.536276	1.014467	-2.048424
H	0.461568	1.082311	-3.054659
H	1.504349	0.854655	-1.756308
N	-0.582737	-1.204295	0.670744
O	0.188624	-1.988187	1.207858
O	-1.808892	-1.300072	0.621478
C	-0.520877	1.190444	0.654078
N	-0.941604	2.142034	1.200158
Cl	3.196316	0.0	0.0
