15

C	-0.550784	-0.02736	-1.435304
C	0.0	0.0	0.0
Cl	0.059995	1.520716	-2.216715
H	1.091141	0.0	0.0
C	-0.012119	-1.109341	-2.265781
N	0.313002	-1.920293	-3.050975
N	-1.969357	-0.12331	-1.41046
H	-2.350712	-0.165526	-2.347559
H	-2.369782	0.666613	-0.916268
N	-0.426086	-1.251074	0.72426
O	-0.909046	-1.132086	1.847937
O	-0.210724	-2.305674	0.140127
C	-0.527717	1.160866	0.70255
N	-0.982611	2.110805	1.223843
Cl	3.115436	0.0	0.0
