15

C	-0.330142	-0.091558	-1.504413
C	0.0	0.0	0.0
Cl	-2.082816	-0.516175	-1.745783
H	1.093716	0.0	0.0
C	-0.174846	1.250158	-2.099594
N	-0.022451	2.27111	-2.664031
N	0.496366	-1.084333	-2.104652
H	0.538512	-0.958281	-3.107555
H	1.435187	-1.042017	-1.7033
N	-0.448644	-1.244398	0.713156
O	0.170948	-2.267185	0.451644
O	-1.391411	-1.146976	1.496185
C	-0.57262	1.173914	0.628628
N	-1.007863	2.137345	1.140831
Cl	3.142006	0.0	0.0
