16
Coordinates from ORCA-job run
  C   0.68273066335280     -0.48722940804959     -0.06742767127247
  C   -0.79490040954251     -0.14660468797287      0.16129204946006
  Cl  0.94584248931958     -2.15764183604370     -0.56785838306504
  H   -1.20191777740111     -0.81986040885778      0.91167537628960
  N   1.31388023462391     -0.39852454380942      1.37405709561624
  O   0.71097685320634     -0.95043359976810      2.28346461075734
  O   2.37167689254855      0.20947325336055      1.45816122532692
  N   1.28252747504201      0.39765561069212     -0.97271588976856
  H   2.24046617136322      0.13505827382374     -1.16477096686000
  H   1.26719878562006      1.33701194273744     -0.59319308466164
  N   -1.57256859716004     -0.43737374942660     -1.11543698748115
  O   -2.01095414973598     -1.57555035059199     -1.24532350623764
  O   -1.70722361515169      0.49061793078915     -1.90768355783666
  N   -0.87776912376073      1.22245034920762      0.55233290899985
  H   -0.98447380911419      1.80361491876903     -0.27244560935326
  H   -1.66549208321024      1.37933630514040      1.16587239008643
