16
Coordinates from ORCA-job run
  C   0.66982561631828     -0.36371795089778      0.36700361056202
  C   -0.56027963192293      0.17143092723459     -0.40171772130246
  Cl  0.11638255242113     -1.14692554832591      1.84342682862085
  H   -0.18696252098180      0.80080408302489     -1.21197589467288
  N   1.59381802146251      0.82270967040978      0.69605670961588
  O   1.82989083755541      1.10923564825556      1.85415792047692
  O   2.03607230261605      1.37164453470622     -0.30893861161016
  N   1.47661303681834     -1.26167725639195     -0.38925266376644
  H   0.88119786882770     -1.99456934986997     -0.75770634169319
  H   1.89519373571834     -0.75475817308478     -1.16199837806337
  N   -1.34674119451647      1.12785287789706      0.49991399074545
  O   -0.75727709677513      2.15088553968827      0.83402401054375
  O   -2.48555941872544      0.80457961505134      0.81834789851987
  N   -1.32798331024319     -0.90838220976068     -0.89881817056398
  H   -1.87550650109457     -1.32777826190184     -0.15692983253515
  H   -1.95868429747822     -0.60133414603480     -1.62659335487711
