16
Coordinates from ORCA-job run
  C   0.59852805663288     -0.36566482388761      0.31624065327643
  C   -0.62692882665492      0.20725448462328     -0.41468312793430
  Cl  0.15350053744616     -0.96176345551089      1.92016252737556
  H   -0.27548147184110      0.89550543693715     -1.18613823841177
  N   1.62652771763141      0.80974096040887      0.49736580506754
  O   2.09895910888458      1.04707077218467      1.59435561832277
  O   1.93417358209745      1.33526555324837     -0.56736677157496
  N   1.17197476901124     -1.40828159412555     -0.43282031908267
  H   2.06497664085669     -1.70542623359644     -0.06149837681485
  H   1.22465623155367     -1.19034115213636     -1.41817955356309
  N   -1.36317915342650      1.13146042318340      0.57394796549267
  O   -2.53393435145914      0.87449335207298      0.82496867251816
  O   -0.70962794785808      2.07273742483677      1.01016086530288
  N   -1.41939262892522     -0.81493000880283     -0.96866207470966
  H   -1.70402937444070     -1.49048283402989     -0.27105975441873
  H   -2.24072288950842     -0.43563830540590     -1.41979389084595
