16
Coordinates from ORCA-job run
  C   0.73550685376638     -0.38264832309931     -0.14735901462398
  C   -0.78184898293331     -0.25905895589001      0.03779133771648
  Cl  1.21264480029279     -1.79409372837906     -1.09112401169431
  H   -1.15555732287975     -1.16258377808616      0.51311410814501
  N   1.26655708645456     -0.67831701476247      1.30648209719322
  O   2.24655790054411     -0.03692152663741      1.65840083045950
  O   0.67334057568374     -1.52691151932807      1.95697076257386
  N   1.28528013495229      0.78363866503874     -0.69459078076549
  H   1.13753018543213      1.56076223728168     -0.06136700965051
  H   2.27745096813028      0.67930190219234     -0.86267068536841
  N   -1.44344242647589     -0.21142438642182     -1.33280151964675
  O   -1.73989013653755     -1.28909742694361     -1.83798803599253
  O   -1.63523259854995      0.89916113684381     -1.81929238003849
  N   -1.03972896845194      0.91203566437030      0.81016676962928
  H   -1.87112546855175      0.80132288421511      1.37408320352460
  H   -1.16804260087615      1.70483416960593      0.19018432853853
