16
Coordinates from ORCA-job run
  C   0.77300290142471     -0.44535448001450      0.02370032043555
  C   -0.74695151721284     -0.22969231644645      0.17538010486503
  Cl  1.05416712452617     -2.15871738176180     -0.38440561724220
  H   -1.14451138468567     -0.92327245583114      0.91369831299652
  N   1.30529757867905     -0.21614930419963      1.45642982963074
  O   2.11289683382785      0.68762134700634      1.61806532799352
  O   0.84264417861024     -0.94562454230477      2.31969313031154
  N   1.47430194393162      0.40502603768921     -0.84484421146495
  H   1.77891891648426      1.25562545670491     -0.39499290588069
  H   0.99176881885084      0.55052330302573     -1.71962778845387
  N   -1.41818015466048     -0.62155492663529     -1.13348072230330
  O   -1.18489478477619      0.10420859528641     -2.10261868096352
  O   -2.15845113132171     -1.59836487880012     -1.12706450901857
  N   -0.97871997830636      1.11892568646932      0.54357540665966
  H   -0.77892921784624      1.75066378726097     -0.22108353824892
  H   -1.92136012752522      1.26713607255082      0.87757554068347
