16
Coordinates from ORCA-job run
  C   0.65776986309850     -0.29909782086393      0.29260365507028
  C   -0.57336209524417      0.23731287911515     -0.44579368270982
  Cl  0.12353917041977     -0.93604862458940      1.89545986612949
  H   -0.21604961058240      0.85328549469839     -1.27196323523731
  N   1.68437251490407      0.83297400500283      0.53296656381884
  O   1.82699118233392      1.59370169440642     -0.41199362609225
  O   2.32507454566027      0.81837805952303      1.57082196521127
  N   1.31018305650842     -1.22944301396460     -0.52679792662199
  H   2.03792778281674     -1.73452777758272     -0.03814230532823
  H   0.63955820138414     -1.85007968617881     -0.96195225613809
  N   -1.33086701511620      1.20693808849414      0.47066847829948
  O   -2.54669915873475      1.06836914220807      0.54050387648292
  O   -0.66229779429820      2.06378678664989      1.03422152570396
  N   -1.36687386311872     -0.83916938793246     -0.91259324735125
  H   -2.02081731527353     -0.53068985508098     -1.61827898676057
  H   -1.88944946475787     -1.25668998390502     -0.15173066447673
