16

C	-0.333515	0.096121	-1.47514
C	0.0	0.0	0.0
F	-1.659593	0.623158	-1.657348
H	1.093939	0.0	0.0
H	-0.361027	-0.948521	0.41149
N	0.55465	1.028824	-2.088327
H	0.533685	0.934111	-3.097502
H	1.498456	0.8295	-1.745126
N	-0.314697	-1.204319	-2.092076
H	-0.58386	-1.104072	-3.067001
H	-1.006557	-1.793011	-1.637065
C	-0.50608	1.189536	0.801209
H	-0.177548	2.116514	0.328239
H	-1.596976	1.209646	0.8736
H	-0.084131	1.159847	1.80996
H	3.053068	0.0	0.0
