16

C	-0.326151	-0.170306	-1.471802
C	0.0	0.0	0.0
F	-0.127695	1.132259	-2.077107
H	1.091896	0.0	0.0
H	-0.370076	0.971906	0.340119
N	0.578013	-1.098321	-2.05326
H	1.514671	-0.900797	-1.686757
H	0.592026	-0.975132	-3.059709
N	-1.689352	-0.54447	-1.741613
H	-1.79111	-0.707019	-2.738577
H	-2.27387	0.248714	-1.501846
C	-0.506807	-1.147142	0.861615
H	-0.161365	-2.096513	0.448236
H	-1.598355	-1.181405	0.915599
H	-0.102464	-1.054619	1.874352
H	3.078004	0.0	0.0
