16

C	-0.363982	-0.091402	-1.46585
C	0.0	0.0	0.0
F	-1.713818	-0.586534	-1.588593
H	1.093796	0.0	0.0
H	-0.329241	-0.937858	0.455867
N	-0.337422	1.190425	-2.118911
H	-1.0303	1.795085	-1.688907
H	-0.613166	1.057407	-3.087674
N	0.485313	-1.059865	-2.079603
H	1.433398	-0.906542	-1.729398
H	0.489576	-0.943682	-3.085565
C	-0.562048	1.201608	0.738402
H	-0.326885	1.125304	1.80311
H	-0.103518	2.124699	0.376072
H	-1.651533	1.277207	0.640386
H	3.058116	0.0	0.0
