16

C	-0.334038	0.160966	-1.475595
C	0.0	0.0	0.0
F	-1.630391	0.772663	-1.604595
H	1.093696	0.0	0.0
H	-0.366644	-0.959598	0.381935
N	0.564591	1.040089	-2.189283
H	0.43397	1.972302	-1.814628
H	1.508886	0.758151	-1.916059
N	-0.324881	-1.091543	-2.143007
H	-0.521485	-0.931568	-3.123241
H	-1.015121	-1.712206	-1.739414
C	-0.485022	1.152481	0.868299
H	-1.574342	1.197603	0.941852
H	-0.133811	2.10913	0.47198
H	-0.062376	1.05306	1.87157
H	3.063132	0.0	0.0
