16

C	-0.447237	-0.039862	-1.44611
C	0.0	0.0	0.0
F	-1.882699	-0.191388	-1.453409
H	1.093696	0.0	0.0
H	-0.3469	0.938596	0.45048
N	-0.076521	1.136216	-2.136576
H	-0.322589	1.964149	-1.613775
H	-0.512743	1.137709	-3.048052
N	0.031152	-1.159294	-2.222447
H	-0.305393	-2.009349	-1.786702
H	1.045033	-1.146046	-2.13201
C	-0.499725	-1.180112	0.8238
H	-0.074152	-2.117568	0.456144
H	-1.589312	-1.261075	0.814979
H	-0.160985	-1.071911	1.857007
H	3.117023	0.0	0.0
