16

C	-0.427465	0.080458	-1.467189
C	0.0	0.0	0.0
F	-0.747887	-1.242881	-1.900796
H	1.093935	0.0	0.0
H	-0.280811	0.958254	0.458667
N	-1.671034	0.799875	-1.752122
H	-2.44117	0.244043	-1.397293
H	-1.647429	1.664401	-1.222899
N	0.610189	0.618003	-2.232642
H	1.513562	0.693618	-1.775784
H	0.350182	1.326375	-2.892663
C	-0.577856	-1.156104	0.797355
H	-1.674285	-1.168262	0.786387
H	-0.248735	-1.089077	1.838507
H	-0.225698	-2.105155	0.393624
H	3.075218	0.0	0.0
