16

C	-0.352945	-0.109568	-1.477832
C	0.0	0.0	0.0
F	-0.226702	1.204224	-2.007854
H	1.095736	0.0	0.0
H	-0.374895	0.952524	0.386036
N	0.543667	-1.016555	-2.091087
H	1.495407	-0.818678	-1.773754
H	0.471464	-0.932542	-3.097177
N	-1.706006	-0.486855	-1.850575
H	-1.860855	-1.429246	-1.51476
H	-2.352345	0.129657	-1.370309
C	-0.487717	-1.181901	0.825564
H	-0.128611	-2.114725	0.384699
H	-0.079065	-1.120989	1.837825
H	-1.580254	-1.229017	0.904118
H	3.068184	0.0	0.0
