12

C	-0.572626	0.016783	-1.395207
C	0.0	0.0	0.0
Br	0.199939	-1.389721	-2.494923
H	1.087988	0.0	0.0
H	-0.371145	0.870391	0.54534
H	-0.348323	-0.908445	0.496129
C	-2.025577	-0.138484	-1.41234
N	-3.190744	-0.280706	-1.354459
N	-0.279084	1.341849	-2.118287
O	-0.91188	1.542654	-3.149857
O	0.551514	2.079235	-1.612349
Cl	3.450274	0.0	0.0
