12

C	-0.509649	0.006618	-1.41597
C	0.0	0.0	0.0
Br	0.059416	1.614085	-2.359815
H	1.090214	0.0	0.0
H	-0.369283	0.881848	0.520862
H	-0.364243	-0.902751	0.499585
C	-0.09731	-1.159922	-2.186666
N	0.243122	-2.108045	-2.792298
N	-2.053636	0.055337	-1.451228
O	-2.598621	0.704531	-0.568623
O	-2.61688	-0.530702	-2.369117
Cl	3.416345	0.0	0.0
