16

C	0.0	0.0	0.0
C	-0.276695	0.070277	-1.561515
Cl	1.765441	0.0	0.0
H	0.49254	-0.586468	-1.976502
C	-0.454727	1.183429	0.7236
N	-0.610829	2.212059	1.27968
N	-0.666432	-1.178339	0.593345
O	-0.65268	-2.217523	-0.142774
O	-0.666997	-1.241628	1.846365
N	0.017191	1.427501	-1.986664
H	0.169039	1.434257	-2.98855
H	-0.817148	1.976876	-1.80112
N	-1.604273	-0.346291	-2.018741
H	-1.775675	-1.258509	-1.599369
H	-1.501093	-0.503101	-3.022628
H	-1.946451	0.0	0.0
