16

C	0.0	0.0	0.0
C	-0.266465	-0.026886	-1.562407
Cl	1.772954	0.0	0.0
H	0.552499	-0.634963	-1.959841
C	-0.674218	1.088095	0.678442
N	-0.696114	2.125948	1.261082
N	-0.338892	-1.312473	0.675358
O	-0.548398	-1.286554	1.886044
O	-0.187579	-2.327864	0.001277
N	-0.177092	1.37884	-1.992197
H	0.072397	1.388435	-2.975765
H	0.561431	1.863812	-1.491435
N	-1.459645	-0.663385	-2.078657
H	-1.394263	-0.610406	-3.092982
H	-2.25821	-0.127352	-1.756848
H	-2.010757	0.0	0.0
