16

C	0.0	0.0	0.0
C	-0.320329	0.120483	-1.556416
Cl	1.750227	0.0	0.0
H	-1.420202	7e-05	-1.656859
C	-0.743623	0.986175	0.833896
N	-0.926541	1.939709	1.557433
N	-0.351119	-1.562194	0.413701
O	0.531504	-2.225584	0.940897
O	-1.461298	-1.989383	0.14532
N	0.208637	-1.032248	-2.287241
H	1.211891	-0.946112	-2.322763
H	-0.103583	-0.960637	-3.251071
N	0.183046	1.453285	-2.03726
H	-0.309944	1.728745	-2.852257
H	-0.015034	2.143362	-1.303102
H	-2.156182	0.0	0.0
