18

C	0.0	0.0	0.0
C	-0.535067	-0.052725	-1.430817
Cl	1.809245	0.0	0.0
H	-1.63706	-0.04282	-1.290102
C	-0.438901	1.318712	0.619718
H	-0.040459	2.174918	0.076511
H	-1.536657	1.310556	0.589257
H	-0.100908	1.350262	1.660167
N	-0.496958	-1.160032	0.685535
H	-1.528138	-1.087949	0.574967
H	-0.302276	-1.043421	1.675794
N	-0.21045	-1.403497	-2.059449
O	0.831678	-1.481358	-2.720586
O	-1.012051	-2.320682	-1.909148
N	-0.073908	1.026187	-2.238647
H	0.897902	0.870117	-2.480121
H	-0.618268	1.068476	-3.090666
H	-3.129454	0.0	0.0
