18

C	0.0	0.0	0.0
C	-0.533354	-0.04542	-1.431643
Cl	1.807536	0.0	0.0
H	-1.635146	-0.029455	-1.29308
C	-0.437941	1.316154	0.626488
H	-0.038827	2.174589	0.087116
H	-0.098242	1.34219	1.666524
H	-1.535561	1.309153	0.597322
N	-0.499831	-1.162388	0.678961
H	-0.301653	-1.05309	1.669635
H	-1.531572	-1.083977	0.570822
N	-0.215675	-1.396217	-2.062815
O	0.830007	-1.480784	-2.716839
O	-1.024865	-2.307038	-1.921328
N	-0.06354	1.032766	-2.234885
H	0.908205	0.872129	-2.473577
H	-0.60466	1.080524	-3.088451
H	-3.128045	0.0	0.0
