18

C	0.0	0.0	0.0
C	-0.544747	0.080695	-1.431119
Cl	1.791068	0.0	0.0
H	-0.297037	-0.848723	-1.957885
C	-0.429181	1.179658	0.859413
H	-1.516056	1.149761	0.997949
H	-0.162561	2.105273	0.352619
H	0.051827	1.093266	1.835926
N	-0.431224	-1.225713	0.658214
H	-0.229276	-2.010969	0.044135
H	-1.446414	-1.156872	0.734767
N	-0.035894	1.177272	-2.256308
O	0.130068	0.879259	-3.524683
O	-0.548567	2.362894	-1.877115
N	-1.996912	0.229085	-1.270963
H	-2.062875	1.260945	-1.358343
H	-2.46728	-0.176042	-2.077648
H	-2.97918	0.0	0.0
