18

C	0.0	0.0	0.0
C	-0.528388	0.032786	-1.441965
Cl	1.837749	0.0	0.0
H	-1.628322	-0.003211	-1.300579
C	-0.421493	1.28235	0.701592
H	-0.095188	1.241883	1.744657
H	0.007803	2.174786	0.24071
H	-1.520104	1.29474	0.660904
N	-0.509778	-1.190777	0.608419
H	-1.539583	-1.102687	0.486947
H	-0.328469	-1.143515	1.606796
N	-0.145906	-1.229902	-2.162891
O	0.942303	-1.23873	-2.739742
O	-0.942008	-2.165198	-2.148744
N	-0.14762	1.140543	-2.266853
H	0.824551	1.381867	-2.118107
H	-0.739077	1.930142	-2.046019
H	-3.100306	0.0	0.0
