18

C	0.0	0.0	0.0
C	-0.493723	-0.10342	-1.456164
Cl	1.801628	0.0	0.0
H	-1.586292	-0.178003	-1.283791
N	-0.55444	1.081848	0.757037
H	-1.587746	0.875718	0.692366
H	-0.389515	1.940598	0.241835
C	-0.342802	-1.255298	0.710834
N	-0.505548	-2.266345	1.28682
C	0.003228	-1.341646	-2.19062
H	-0.181968	-2.250066	-1.612077
H	-0.534316	-1.439869	-3.139142
H	1.073818	-1.284867	-2.410557
C	-0.214301	1.160457	-2.258266
H	-0.726257	2.029419	-1.837273
H	-0.596367	1.031012	-3.275541
H	0.857934	1.376777	-2.324722
H	-3.008961	0.0	0.0
