18

C	0.0	0.0	0.0
C	-0.313294	0.005781	-1.55639
Cl	1.808179	0.0	0.0
H	0.571154	-0.416219	-2.041692
N	-0.615103	0.983715	0.824962
H	-1.640947	0.761221	0.76868
H	-0.485747	1.897997	0.401351
C	-0.323525	-1.333444	0.547
N	-0.472254	-2.43205	0.935603
C	-0.466805	1.444987	-2.037583
H	-1.405525	1.87302	-1.674253
H	-0.488553	1.459949	-3.131166
H	0.372793	2.074469	-1.7159
C	-1.505757	-0.848542	-1.976509
H	-1.677596	-0.699733	-3.046628
H	-1.301017	-1.911646	-1.814986
H	-2.398989	-0.572261	-1.400999
H	-3.349779	0.0	0.0
