18

C	0.0	0.0	0.0
C	-0.359825	0.036463	-1.551516
Cl	1.808092	0.0	0.0
H	0.579737	-0.115815	-2.087978
N	-0.58712	0.973566	0.861232
H	-1.613167	0.751021	0.785133
H	-0.45406	1.889972	0.446053
C	-0.322549	-1.330959	0.556145
N	-0.513528	-2.396502	1.011223
C	-0.910103	1.40457	-1.940614
H	-0.220368	2.218654	-1.679551
H	-1.878486	1.558825	-1.458624
H	-1.049768	1.435133	-3.025716
C	-1.310278	-1.075414	-1.999756
H	-1.51567	-0.9498	-3.070431
H	-2.24231	-0.998505	-1.434641
H	-0.858309	-2.062115	-1.854445
H	-3.133898	0.0	0.0
