18
Coordinates from ORCA-job run
  C   -0.75312011596544      0.13333984617154      0.02589133172990
  C   0.74473388890266     -0.14486642282243      0.05842615522679
  F   -1.00433315874978      1.46697555677627      0.08218348705219
  H   0.91613497623634     -1.19738662500941     -0.16377098082460
  N   -1.40755150285023     -0.51065455527702      1.24163027556702
  O   -2.28581698389448      0.11187002159090      1.81399252139138
  O   -1.02373160810368     -1.65160639386052      1.48519947857832
  C   -1.44015064235208     -0.45275591837727     -1.18727244696602
  H   -2.50505398853181     -0.22117936078772     -1.12418869857524
  H   -1.04255873730597     -0.00018763460134     -2.09578657110527
  H   -1.30602554839967     -1.53385952772694     -1.22345056571505
  N   1.31341468074148      0.04474481563429      1.43796321582652
  O   2.36973909835089     -0.53740374516385      1.66054486885233
  O   0.72150989386868      0.79754518419107      2.20629086525352
  C   1.52771430954693      0.75967295938412     -0.88089387660135
  H   1.40293327262952      1.80302767454244     -0.59049822030801
  H   1.18690231875063      0.63723434320696     -1.90953098119197
  H   2.58425984712601      0.49448978212892     -0.83572985819046
