18
Coordinates from ORCA-job run
  C   -0.76050633878720      0.14139270883337     -0.44973921607554
  C   0.69824523298701      0.53436232297076     -0.20411499786858
  F   -1.11528264857463      0.59603568863546     -1.68848358670057
  H   0.79717601654036      1.57046529896040     -0.53226989698038
  N   -1.54571077183064      0.99159436562381      0.54921747803132
  O   -1.98037247287088      0.42879170519783      1.54941533650647
  O   -1.62346451686733      2.18691003262226      0.28954767399825
  C   -1.13662025332335     -1.30791282409882     -0.32486519025883
  H   -0.83931787193273     -1.72416042349971      0.63412281995447
  H   -2.21817448411551     -1.39949153338805     -0.42913743682659
  H   -0.65361044102538     -1.86757924083604     -1.12492013633696
  N   1.54246232932375     -0.25739418566982     -1.16043514219133
  O   1.86646325232776      0.29746707979473     -2.20702050992595
  O   1.83586939333189     -1.40502872433532     -0.82892944119652
  C   1.18368109182067      0.33381077782490      1.21669510519583
  H   2.24874294332498      0.56467553615639      1.27208148285586
  H   0.65831797217714      1.00813569157399      1.89409113959447
  H   1.03910156749408     -0.69307427636614      1.54774451822459
