18

C	-0.323629	0.038219	-1.469672
C	0.0	0.0	0.0
Br	-2.292825	-0.031524	-1.898952
H	1.093278	0.0	0.0
N	0.247023	1.143368	-2.083967
H	1.188686	1.280218	-1.710026
H	0.264542	1.043692	-3.089649
N	0.215099	-1.31329	-2.094207
O	-0.326952	-2.369728	-1.79574
O	1.184104	-1.191708	-2.837052
C	-0.512053	-1.15152	0.828227
H	-1.598945	-1.231816	0.807037
H	-0.188863	-0.988779	1.858494
H	-0.066875	-2.081409	0.480589
N	-0.402155	1.289684	0.617553
O	0.28743	2.280509	0.369649
O	-1.36877	1.292602	1.391218
H	2.594494	0.0	0.0
