18

C	-0.627064	-0.021829	-1.385434
C	0.0	0.0	0.0
Br	0.18834	-1.496998	-2.419674
H	1.087696	0.0	0.0
N	-2.044515	-0.170076	-1.493084
H	-2.45607	0.656329	-1.070146
H	-2.316769	-0.990257	-0.965781
N	-0.227242	1.237934	-2.178343
O	0.92138	1.621089	-2.029697
O	-1.06737	1.72686	-2.921014
C	-0.250501	-1.251552	0.826587
H	-1.310865	-1.407509	1.05508
H	0.298105	-1.132723	1.759979
H	0.155686	-2.119957	0.307865
N	-0.450402	1.152786	0.714007
O	-1.047791	2.07186	0.092168
O	-0.134063	1.24515	1.917109
H	2.389397	0.0	0.0
