18

C	-0.243525	-0.047716	-1.514419
C	0.0	0.0	0.0
Br	-0.009959	1.73735	-2.267745
H	1.091928	0.0	0.0
N	0.684793	-0.92535	-2.151265
H	1.605256	-0.713013	-1.724621
H	0.432855	-1.87568	-1.902896
N	-1.665679	-0.538283	-1.844692
O	-1.797671	-1.763499	-1.81608
O	-2.568964	0.265151	-2.031392
C	-0.456305	-1.235576	0.754133
H	-1.539477	-1.359163	0.751506
H	-0.101793	-1.143414	1.78423
H	0.015466	-2.121096	0.328663
N	-0.589842	1.182791	0.670833
O	-1.823915	1.232624	0.717501
O	0.16503	2.012355	1.167999
H	2.753661	0.0	0.0
