12

C	0.0	0.0	0.0
C	-0.521255	0.122074	-1.421507
F	1.404365	0.0	0.0
H	-1.619752	0.204671	-1.259974
H	-0.275997	0.907607	0.551818
H	-0.291406	-0.807301	-1.950105
N	-0.534164	-1.200181	0.557836
H	-1.561258	-1.000156	0.454699
H	-0.330915	-1.196597	1.553231
C	0.037957	1.254025	-2.141763
N	0.477474	2.167539	-2.734855
F	-2.824327	0.0	0.0
