12

C	0.0	0.0	0.0
C	-0.507965	0.136446	-1.435586
F	1.394815	0.0	0.0
H	-1.607909	0.200257	-1.265319
H	-0.318646	0.883498	0.556081
H	-0.273513	-0.778658	-1.991114
N	-0.538857	-1.140956	0.666744
H	-0.429474	-1.942909	0.049389
H	-1.558545	-0.891138	0.63894
C	0.028546	1.283802	-2.150979
N	0.456464	2.215435	-2.725134
F	-2.816995	0.0	0.0
