12

C	0.0	0.0	0.0
C	-0.492029	-0.063977	-1.450321
F	1.387486	0.0	0.0
H	-1.595254	-0.031588	-1.301132
H	-0.338842	0.956321	0.402328
H	-0.142928	0.800466	-2.026127
N	-0.518789	-1.02701	0.842106
H	-0.340919	-1.924424	0.397649
H	-1.543247	-0.830188	0.753885
C	-0.065703	-1.285999	-2.117574
N	0.274468	-2.280198	-2.64418
F	-2.799771	0.0	0.0
