12

C	0.0	0.0	0.0
C	-0.486952	-0.143238	-1.442662
F	1.413565	0.0	0.0
H	-0.139832	0.69225	-2.060543
H	-0.326853	0.979666	0.350782
H	-1.589839	-0.105203	-1.294449
N	-0.510367	-0.979149	0.90021
H	-1.533751	-0.780801	0.811115
H	-0.340988	-1.896945	0.498364
C	-0.057321	-1.39529	-2.047312
N	0.280913	-2.412502	-2.528293
F	-2.78934	0.0	0.0
