12

C	0.0	0.0	0.0
C	-0.36969	-0.104216	-1.488227
F	1.389342	0.0	0.0
H	0.490149	0.303986	-2.040075
H	-0.302904	0.970548	0.408436
H	-0.427841	-1.176215	-1.700759
N	-0.499217	-1.125026	0.721176
H	-1.533591	-0.945463	0.56651
H	-0.328981	-0.958602	1.70948
C	-1.556048	0.565682	-2.028664
N	-2.290717	1.112715	-2.767809
F	-2.663354	0.0	0.0
