12

C	0.0	0.0	0.0
C	-0.487688	-0.063057	-1.453171
F	1.387391	0.0	0.0
H	-1.59006	-0.023588	-1.31179
H	-0.331009	0.958785	0.403132
H	-0.127084	0.796725	-2.026128
N	-0.51601	-1.026862	0.840685
H	-0.328503	-1.924744	0.404758
H	-1.541152	-0.836174	0.757795
C	-0.063553	-1.289141	-2.11365
N	0.27407	-2.287085	-2.634215
F	-2.798344	0.0	0.0
