12

C	0.0	0.0	0.0
C	-0.482976	-0.002443	-1.453159
F	1.387855	0.0	0.0
H	-0.112265	0.875471	-1.991247
H	-0.332911	0.936579	0.451003
H	-1.585646	0.035953	-1.314467
N	-0.501766	-1.074082	0.793936
H	-0.308561	-1.946155	0.304794
H	-1.529237	-0.897322	0.732264
C	-0.058878	-1.205816	-2.156808
N	0.277317	-2.186974	-2.709709
F	-2.788078	0.0	0.0
