14

C	0.0	0.0	0.0
C	-0.66014	0.061466	-1.354731
Br	1.944598	0.0	0.0
H	-1.716266	0.242418	-1.059594
H	-0.314596	-0.896983	0.531779
H	-0.301511	0.864227	0.591973
N	-0.531154	-1.235402	-2.040182
H	-0.897069	-1.113529	-2.980479
H	-1.202131	-1.849341	-1.580317
C	-0.153341	1.18201	-2.239106
H	0.868022	0.989058	-2.580292
H	-0.802541	1.284281	-3.115557
H	-0.170871	2.134947	-1.702489
H	-3.328229	0.0	0.0
