14

C	0.0	0.0	0.0
C	-0.5548	0.031664	-1.433117
Br	1.946845	0.0	0.0
H	0.245196	0.386199	-2.093137
H	-0.300205	0.90677	0.519495
H	-0.322245	-0.874765	0.561979
N	-1.629182	1.017664	-1.472437
H	-1.991331	1.046515	-2.422939
H	-2.427181	0.665504	-0.888701
C	-0.95049	-1.382051	-1.874574
H	-1.279862	-1.371726	-2.919193
H	-0.104966	-2.078812	-1.793551
H	-1.786286	-1.728251	-1.26093
H	-3.698163	0.0	0.0
