14

C	0.0	0.0	0.0
C	-0.63048	-0.014933	-1.364941
Br	1.955159	0.0	0.0
H	-1.705438	-0.082172	-1.079214
H	-0.292339	-0.90074	0.535407
H	-0.313934	0.874737	0.567585
N	-0.262926	-1.233882	-2.084879
H	0.611571	-1.086084	-2.578409
H	-0.980305	-1.423786	-2.775467
C	-0.41265	1.271337	-2.148236
H	-0.788196	2.131873	-1.586489
H	-0.966343	1.225227	-3.091619
H	0.646949	1.434838	-2.37571
H	-3.305959	0.0	0.0
