18

C	-0.421784	0.071683	-1.464557
C	0.0	0.0	0.0
Cl	0.128314	-1.403491	-2.347121
H	1.091494	0.0	0.0
C	-1.869619	0.203001	-1.653666
N	-3.017807	0.417161	-1.794573
C	0.307247	1.25364	-2.111161
H	0.175852	1.219261	-3.193565
H	1.366473	1.164543	-1.850648
H	-0.089899	2.200129	-1.739347
N	-0.517594	-1.196985	0.690991
O	-1.383445	-1.891559	0.144028
O	-0.046898	-1.424992	1.807741
C	-0.407792	1.218637	0.814676
H	-0.103716	1.041689	1.846851
H	-1.48543	1.412042	0.777127
H	0.140462	2.093976	0.464811
H	2.679713	0.0	0.0
