18

C	-0.361614	-0.017793	-1.479129
C	0.0	0.0	0.0
Cl	-2.182743	-0.047619	-1.719538
H	1.092825	0.0	0.0
C	0.084409	1.248731	-2.071272
N	0.406279	2.268769	-2.557458
C	0.249586	-1.16698	-2.267278
H	1.315915	-1.1948	-2.019875
H	0.100788	-1.000004	-3.336413
H	-0.20799	-2.108864	-1.97673
N	-0.423366	-1.246871	0.651189
O	-1.241039	-1.191274	1.582786
O	0.119776	-2.295603	0.281538
C	-0.491094	1.205839	0.764292
H	-0.130603	1.136811	1.79153
H	-1.578674	1.285254	0.778968
H	-0.056179	2.103358	0.320153
H	2.601298	0.0	0.0
