18

C	-0.43497	0.068351	-1.458366
C	0.0	0.0	0.0
Cl	0.208979	-1.338301	-2.388381
H	1.091504	0.0	0.0
C	-1.892237	0.102812	-1.620421
N	-3.051232	0.276415	-1.719911
C	0.191979	1.31147	-2.091562
H	0.043525	1.286292	-3.17188
H	1.259883	1.294703	-1.854886
H	-0.268542	2.217312	-1.694458
N	-0.498067	-1.203873	0.685367
O	-0.102302	-1.381739	1.841055
O	-1.250607	-1.981826	0.08489
C	-0.388304	1.227157	0.812787
H	-0.149635	1.019605	1.855841
H	-1.451116	1.487483	0.725823
H	0.232777	2.072248	0.505563
H	2.637442	0.0	0.0
