18

C	-0.464396	-0.033532	-1.461399
C	0.0	0.0	0.0
Cl	0.030971	1.526306	-2.253316
H	1.090471	0.0	0.0
C	0.202096	-1.073945	-2.258714
N	0.641055	-1.846105	-3.02875
C	-1.976702	-0.154495	-1.624604
H	-2.303182	-1.104995	-1.202723
H	-2.464767	0.672696	-1.106121
H	-2.245911	-0.115656	-2.68258
N	-0.377914	-1.212053	0.669598
O	-0.542401	-2.248899	-0.012789
O	-0.364702	-1.21644	1.916401
C	-0.394975	1.210725	0.819355
H	-1.459205	1.221518	1.07499
H	-0.132915	2.124578	0.28854
H	0.182638	1.181292	1.743363
H	2.438793	0.0	0.0
