18

C	-0.435086	0.043042	-1.459052
C	0.0	0.0	0.0
Cl	0.218292	-1.375224	-2.366475
H	1.091488	0.0	0.0
C	-1.891342	0.060494	-1.625311
N	-3.049506	0.219108	-1.742194
C	0.18077	1.283919	-2.109549
H	-0.28434	2.190592	-1.719865
H	1.249277	1.280936	-1.875206
H	0.030608	1.24557	-3.190327
N	-0.496073	-1.186595	0.712103
O	-0.108438	-1.326165	1.875651
O	-1.23622	-1.988944	0.1308
C	-0.386563	1.244762	0.785551
H	0.24703	2.075962	0.474817
H	-0.170415	1.053423	1.835692
H	-1.442273	1.511495	0.67211
H	2.626781	0.0	0.0
