18

C	-0.368165	-0.093669	-1.48074
C	0.0	0.0	0.0
Cl	-2.156807	-0.443194	-1.699808
H	1.095353	0.0	0.0
C	-0.165474	1.226538	-2.089134
N	-0.00394	2.257028	-2.631314
C	0.451941	-1.097651	-2.284064
H	1.5	-0.937525	-2.001878
H	0.307177	-0.92866	-3.353512
H	0.165176	-2.110205	-2.020123
N	-0.38741	-1.205299	0.734878
O	-0.776409	-1.079462	1.90429
O	-0.209193	-2.303938	0.195508
C	-0.480848	1.24702	0.705217
H	-1.571845	1.311617	0.741669
H	-0.077013	2.123712	0.196593
H	-0.094692	1.245897	1.723686
H	2.574501	0.0	0.0
