18

C	-0.354056	-0.170738	-1.47133
C	0.0	0.0	0.0
Cl	-2.171534	-0.362281	-1.697729
H	1.107628	0.0	0.0
C	-0.014566	1.075981	-2.168936
N	0.253558	2.042696	-2.780418
C	0.356298	-1.311608	-2.190588
H	-0.038397	-2.268554	-1.863753
H	1.41497	-1.246875	-1.915157
H	0.230179	-1.200984	-3.269568
N	-0.395141	-1.156654	0.796908
O	-0.060532	-2.281353	0.396531
O	-0.947818	-0.963524	1.891442
C	-0.477937	1.288124	0.627016
H	-0.088006	1.348332	1.642765
H	-1.567287	1.357824	0.666369
H	-0.07313	2.131376	0.064458
H	2.539005	0.0	0.0
