18

C	-0.426282	-0.080688	-1.469101
C	0.0	0.0	0.0
Cl	-0.104624	-1.742802	-2.093748
H	1.108968	0.0	0.0
C	-1.852107	0.186932	-1.688825
N	-2.969223	0.482999	-1.905581
C	0.43406	0.894102	-2.272381
H	0.160399	1.922188	-2.025174
H	1.480169	0.72033	-1.993627
H	0.277734	0.736814	-3.341038
N	-0.556109	-1.157433	0.754992
O	0.218964	-2.003121	1.191411
O	-1.783195	-1.184747	0.903782
C	-0.462653	1.275064	0.681833
H	0.058705	2.127374	0.242728
H	-1.543228	1.421017	0.626142
H	-0.160877	1.229733	1.731402
H	2.807108	0.0	0.0
