17

C	0.0	0.0	0.0
C	-0.527959	0.092974	-1.436925
F	1.38827	0.0	0.0
H	-1.579299	-0.2158	-1.410747
N	-0.539528	0.933924	0.858707
H	-0.240089	1.872439	0.659208
H	-0.501627	0.666343	1.827866
N	-0.333793	-1.388946	0.562434
O	-0.425134	-2.315943	-0.234595
O	-0.379208	-1.493851	1.780937
N	0.244357	-0.579813	-2.442588
H	1.221109	-0.572047	-2.176313
H	-0.066631	-1.539016	-2.496995
N	-0.562723	1.546269	-1.861833
O	0.298481	2.306544	-1.407286
O	-1.390544	1.847108	-2.70732
Cl	-3.684375	0.0	0.0
