17

C	0.0	0.0	0.0
C	-0.438217	0.027798	-1.479838
F	1.366986	0.0	0.0
H	0.322262	0.642248	-1.97477
N	-0.515229	1.087054	0.707688
H	-1.489839	1.246462	0.465245
H	-0.401024	0.948676	1.704007
N	-0.359462	-1.332912	0.694032
O	-1.168045	-2.074366	0.151522
O	0.158134	-1.495366	1.796792
N	-1.711142	0.544188	-1.689756
H	-2.490674	0.100022	-1.184653
H	-1.937072	0.636852	-2.668115
N	-0.158246	-1.361035	-2.149413
O	-0.955884	-1.720283	-3.005937
O	0.886152	-1.936569	-1.859208
Cl	-4.250969	0.0	0.0
