17

C	0.0	0.0	0.0
C	-0.579574	0.101899	-1.458371
F	1.355572	0.0	0.0
H	-1.394612	0.818504	-1.393411
N	-0.455391	0.982706	0.902428
H	-1.469919	0.868036	0.983092
H	-0.269424	1.885128	0.475383
N	-0.321458	-1.384938	0.595287
O	-0.982097	-1.458314	1.617596
O	0.208788	-2.327748	0.006413
N	-1.055011	-1.030845	-2.159247
H	-0.494624	-1.851283	-1.981472
H	-2.011551	-1.178856	-1.848347
N	0.520171	0.797674	-2.234648
O	1.208293	0.141752	-3.005895
O	0.670324	1.996299	-1.985269
Cl	-3.479633	0.0	0.0
