17

C	0.0	0.0	0.0
C	-0.41211	0.018762	-1.490664
F	1.382232	0.0	0.0
H	0.462938	-0.36559	-2.022064
N	-0.570279	0.977323	0.78477
H	-1.595494	0.875183	0.687042
H	-0.338921	0.812443	1.75723
N	-0.156398	-1.460776	0.62796
O	-0.81857	-1.559285	1.652848
O	0.511943	-2.346992	0.112515
N	-0.694873	1.346017	-1.903539
H	-1.523137	1.667165	-1.408075
H	-0.923039	1.323859	-2.890598
N	-1.494539	-0.994249	-1.992559
O	-1.615801	-2.084033	-1.464449
O	-2.028917	-0.646447	-3.042181
Cl	-3.486599	0.0	0.0
