13
Coordinates from ORCA-job run
  C   -1.18410877392546     -0.65370733626563      0.28559297710165
  C   -0.08013243280601      0.15430212302842     -0.37681765458206
  Cl  -2.80632020273620     -0.15217578226852     -0.25219149772837
  H   -0.26801404287554      0.15052115704367     -1.45556157975097
  H   -1.14664627705928     -0.52627585087787      1.37015000361194
  H   -1.08042094610225     -1.71299020133623      0.04872538298030
  C   1.26990892015591     -0.51441444769753     -0.10350596142531
  H   1.31475932556641     -1.53070587466913     -0.50550539510021
  H   2.07554273075054      0.06591877024540     -0.55971643095463
  H   1.46168863802591     -0.56430792974104      0.97343525109962
  N   -0.16114673051801      1.54132962275266      0.06499253094801
  H   0.43234599686817      2.12524429700170     -0.51095670604565
  H   0.17454379465582      1.61726145278408      1.01935907984569
