13
Coordinates from ORCA-job run
  C   -1.27022485410862     -0.48388609812340      0.20737566120094
  C   -0.00174346104015      0.15487249641347     -0.33909952673981
  Cl  -1.55539488908234     -2.10224837379683     -0.49423398921632
  H   -0.04095716783112      0.09870214953760     -1.43773808476580
  H   -2.14272803802676      0.12381668928807     -0.03582137194283
  H   -1.19719495351818     -0.58990126953196      1.28956434836943
  C   1.24755176499834     -0.56109188011580      0.14428443395071
  H   2.14278452494956     -0.10324303642319     -0.28579977115248
  H   1.23877230423739     -1.61315192708091     -0.14136017086944
  H   1.31369253006290     -0.48702536368083      1.23293457900558
  N   0.00838026692606      1.52725113855155      0.17014255840867
  H   -0.66385557988271      2.09396925273706     -0.33400338269693
  H   0.92091755231563      1.94193622222514      0.02375471644828
