13
Coordinates from ORCA-job run
  C   -1.28291392264967     -0.60529270225273      0.02948483065446
  C   -0.05043029051940      0.14813674072957     -0.43904769776836
  Cl  -1.40224796726843     -0.66126241233760      1.81761531763675
  H   -0.09985872945031      0.10332346180233     -1.53535825318927
  H   -2.17745965893403     -0.09810117366761     -0.32833251865832
  H   -1.26657864559538     -1.63872559267371     -0.31721239362831
  C   1.25239008485952     -0.51212857757324      0.00943711985638
  H   2.10627078749750      0.01172585603756     -0.42786155997476
  H   1.30316604083316     -1.55957092491649     -0.30328262676442
  H   1.35120977719658     -0.47483508804354      1.09609978669799
  N   -0.18644800882951      1.55547637790318     -0.07387584756816
  H   0.58553641551911      2.08352070987691     -0.46342224167640
  H   -0.13263588265913      1.64673332511537      0.93475608438240
