12
Coordinates from ORCA-job run
  C   -0.35545832820463      0.34630912159076      0.17607522089099
  C   0.78628944447886     -0.36808264384846      0.45383759536692
  H   1.42350346274902     -0.13361702404185      1.29253253449972
  N   -1.26294542080525      0.01673930776446     -0.77978212488885
  H   -1.81344283983389      0.75950481005362     -1.17705769512968
  H   -0.94519802642318     -0.70823375276350     -1.40949821267037
  N   -0.69546892556228      1.39910388956691      0.99698719380287
  H   -1.41222319608928      2.02302494300280      0.66620033820198
  H   0.06955993714034      1.86180743298528      1.45760083292854
  N   1.26305566719431     -1.43427147608617     -0.33964150258791
  O   2.34703519454090     -1.92969584292291     -0.02016958402817
  O   0.59629303081510     -1.83358876530095     -1.31508459638605
