12
Coordinates from ORCA-job run
  C   -0.49769950604767      0.16547716657366      0.00334224757497
  C   0.39613863373748     -0.87165843773241      0.03234828404133
  H   0.09366383117735     -1.89603194369929      0.18827401973231
  N   -1.83388649043206     -0.05682302188181      0.29187000744292
  H   -2.46782998378869      0.42235793058121     -0.33054644558584
  H   -2.08079949166515     -1.02470265742703      0.42484833729618
  N   -0.20942592271998      1.45977896230041     -0.31105304774762
  H   -0.76676281452813      2.14732062266187      0.17095597140262
  H   0.78130186775617      1.65074084984737     -0.37193916582830
  N   1.80471754678792     -0.70353419736260     -0.01679365614053
  O   2.28730652257290      0.41896814655970     -0.25041015929512
  O   2.49227580714985     -1.70989342042109      0.17010360710708
