12
Coordinates from ORCA-job run
  C   -0.31841800810766      0.40271660305207      0.10690113940951
  C   0.75818620425066     -0.36870188686889      0.45490743164432
  H   1.39458642960659     -0.13384357654329      1.29459669172415
  N   -1.23550039532162      0.10564219453165     -0.85634138896208
  H   -1.62184062741684      0.90405880362461     -1.33486706567012
  H   -0.97339892050959     -0.67933716533579     -1.43682198385821
  N   -0.56453771529752      1.59522945823853      0.76707619276370
  H   0.04450076126332      1.77599924859543      1.54933564794833
  H   -1.53755967968731      1.74011551755341      0.99331994759202
  N   1.22010243708305     -1.47275119231361     -0.30790940854538
  O   0.54834325940069     -1.88522233091511     -1.27039839407204
  O   2.28653625473623     -1.98390567361902      0.04120119002581
