12
Coordinates from ORCA-job run
  C   -0.47290103699375      0.06449104826653      0.08802269560795
  C   0.50255148226517     -0.85844737404822      0.26106577762219
  H   0.38157099427615     -1.76594401822351      0.83164339855215
  N   -1.78444492890744     -0.23775924617694      0.42861831296030
  H   -2.43714821022090      0.52623215951450      0.45531917276366
  H   -2.15853256631197     -1.09561278829493      0.06167897466539
  N   -0.21850893988605      1.32925302975763     -0.40514408048583
  H   0.58822654097819      1.81267612648043     -0.04966903630477
  H   -1.00793209977992      1.91437357822295     -0.61352816613814
  N   1.84417244320283     -0.61365723028481     -0.22823140328077
  O   2.00179034345428     -0.33703591724128     -1.41836664215819
  O   2.76115597792342     -0.73856936797233      0.58959099619605
