12
Coordinates from ORCA-job run
  C   -0.35710657468799      0.36952969878306      0.10419480003702
  C   0.92849892854883     -0.08845758327170      0.21702085224993
  H   1.67315510197845      0.40983992543378      0.81900361044337
  N   -1.31155282944135     -0.12679299247961     -0.73209195176274
  H   -1.05179220211626     -0.99788497535383     -1.17403142840057
  H   -2.25444442877694     -0.06817667772751     -0.38109815860223
  N   -0.78511633308330      1.44326922371704      0.86762158289321
  H   -1.33821794425492      2.11205963141463      0.35211031178792
  H   -0.06371689626860      1.88189001046922      1.41787421313412
  N   1.38591043422878     -1.30974183363949     -0.34317694766781
  O   0.64669564840150     -1.95659962448107     -1.10651674349869
  O   2.52668709547180     -1.66793480286452     -0.04191014061353
