12
Coordinates from ORCA-job run
  C   -0.33683914574528      0.37192067287479      0.15187414350651
  C   0.89283760700142     -0.21932161193973      0.26965738243703
  H   1.67861891577175      0.19218641734847      0.88483346161355
  N   -1.41345364641379     -0.14866479453714     -0.50167666536299
  H   -2.01879914862180      0.53312429521876     -0.93113192763897
  H   -1.19491807732108     -0.96463435423350     -1.05680567876694
  N   -0.58007272779157      1.59961112985487      0.74421544266182
  H   -1.47532540155977      1.65844628673446      1.20655603654085
  H   0.17361445522143      1.94984971000013      1.31397434907358
  N   1.30514508075783     -1.34509507003320     -0.48972444899467
  O   2.48950334176327     -1.67569226752030     -0.39794705203589
  O   0.47968874693759     -1.95273041376761     -1.19482504303389
