12
Coordinates from ORCA-job run
  C   -0.35608945638547      0.36987715225561      0.10684475504166
  C   0.92939607175235     -0.08966291489208      0.21171512006449
  H   1.67891533057900      0.41030743849314      0.80624282536277
  N   -1.31907073019235     -0.12990162883607     -0.71808480119441
  H   -2.25780234714197     -0.07070816935962     -0.35603698958660
  H   -1.06535205884210     -1.00621443871010     -1.15296981660790
  N   -0.77511066605842      1.44820282366298      0.86892259700944
  H   -1.33955164373566      2.11078309654036      0.35773917504822
  H   -0.04461154390211      1.89439324498642      1.40080629341004
  N   1.38278332564120     -1.31136624209531     -0.35119554178070
  O   0.63513160089769     -1.96259448326095     -1.10233680688455
  O   2.53136211738783     -1.66111587878439     -0.07064680988245
