12
Coordinates from ORCA-job run
  C   -0.32721481987516      0.38633139404431      0.13658565179460
  C   0.89231684768610     -0.22226943361375      0.26830435192991
  H   1.69401644255714      0.20225450767430      0.85335401619388
  N   -1.42291327499723     -0.14459225413691     -0.47638063799131
  H   -1.22618861807974     -0.99067099316257     -0.99343416252008
  H   -2.01779858822829      0.52753883985261     -0.93485978142905
  N   -0.53847723812039      1.64760301330548      0.66787643451816
  H   -1.42736273706597      1.74727513809832      1.13559205547452
  H   0.22805330969394      2.00974383861990      1.21256746036645
  N   1.27128920012555     -1.39584332597104     -0.43436147138152
  O   2.44833186779273     -1.74929535459703     -0.33412220662365
  O   0.42594760851133     -2.01907537011361     -1.10112171033191
