12
Coordinates from ORCA-job run
  C   -0.35570203966764      0.37404298052778      0.09236946753740
  C   0.88962060810539     -0.14620923461091      0.32409420901355
  H   1.63493695166449      0.36943194861247      0.91045709207153
  N   -0.66676015066238      1.65466246738903      0.51781756053296
  H   0.04904796896110      2.10142034495784      1.06868028890863
  H   -1.58206254865434      1.73223338794907      0.93618999361321
  N   -1.38600383778555     -0.26674411582834     -0.52824558824171
  H   -1.11512734221398     -1.13426994546777     -0.97075826373638
  H   -1.99859140794305      0.33113373860953     -1.06021820983554
  N   1.37144486582022     -1.34118929302702     -0.27099538253212
  O   0.59807768984430     -2.06280533621434     -0.92577252070835
  O   2.56111924253145     -1.61170694289734     -0.09261864662317
