12
Coordinates from ORCA-job run
  C   -0.33687031924456      0.37321185329403      0.15041854518373
  C   0.78904113938866     -0.36342687010020      0.40316344175354
  H   1.44248307149167     -0.16175973836769      1.23844451444216
  N   -1.26579164626907      0.10677339561014     -0.81055865344840
  H   -0.98115701117160     -0.61140510233819     -1.46230718410125
  H   -1.70907617588219      0.91951304562082     -1.20881482378732
  N   -0.62649724002954      1.49187123261055      0.91536015150611
  H   -0.00749071906274      1.63421971605367      1.69808496563462
  H   -1.59906011660180      1.55805149827329      1.17858930067969
  N   1.28923657143671     -1.36835409072642     -0.46642286189575
  O   0.60912830647259     -1.74065644380910     -1.43904443660642
  O   2.39705413947187     -1.83703849612091     -0.19591295936070
