12
Coordinates from ORCA-job run
  C   -0.49812825053952      0.15331700684169      0.05963210476680
  C   0.44120142843121     -0.84030023524738      0.13381661835695
  H   0.18418965674644     -1.87129965180894      0.32451808968116
  N   -1.84637911562896     -0.15358190647532      0.13619790159791
  H   -2.37452052055847      0.48223642259352      0.71554869060697
  H   -2.04628677277021     -1.11971323238624      0.34159653931628
  N   -0.24037140561177      1.48600994111945     -0.06898335512820
  H   -0.93121632377658      2.00298432630735     -0.58991324584765
  H   0.72740195001859      1.69181837693144     -0.27761703994859
  N   1.81343554489607     -0.65544373016645     -0.17873822824040
  O   2.25697665090420      0.49174205166073     -0.36550442678265
  O   2.51369715788899     -1.66876936936986     -0.23255364837859
