12
Coordinates from ORCA-job run
  C   -0.33352853767015      0.38154732341383      0.13338865333824
  C   0.88056024235576     -0.22921533011516      0.30029728231130
  H   1.65410941381964      0.17797182144866      0.93356323880980
  N   -1.39924598970567     -0.13070345500199     -0.54439478268608
  H   -1.97594740949962      0.55502235415944     -1.00580407476690
  H   -1.17915007874901     -0.96027507270469     -1.07822690960293
  N   -0.57254748761878      1.62503059925233      0.69440357728052
  H   0.16833246674075      1.97138482752954      1.28310779396605
  H   -1.48111727618648      1.70687425244139      1.12643771115111
  N   1.29350107406118     -1.37993601617994     -0.42102102301243
  O   2.46590592936958     -1.73472603377212     -0.28022188236790
  O   0.48012765308280     -1.98297527047128     -1.14352958442079
