12
Coordinates from ORCA-job run
  C   -0.29230039347505      0.43180602949921      0.06727052737357
  C   0.96968521049278     -0.11127853669745      0.11499225929646
  H   1.78679262792330      0.37181914762154      0.62845851054516
  N   -1.32150857374607     -0.05035358039130     -0.68490772997165
  H   -1.12205405236658     -0.95390730222532     -1.09525875352769
  H   -2.24769890910708      0.06846720637864     -0.30753604613330
  N   -0.53402187329003      1.61163104735075      0.72233287595327
  H   -1.45513289680845      2.00928141929186      0.67937503808771
  H   0.00481827233409      1.81957501170344      1.54323109718116
  N   1.30341868483192     -1.37961267811204     -0.40973291367307
  O   2.43887729563307     -1.80213328516846     -0.17379826629489
  O   0.47012460757810     -2.01729447925085     -1.08342659883675
