12
Coordinates from ORCA-job run
  C   -0.49483465017360      0.16258450895914      0.06044092939868
  C   0.39194187404075     -0.86798796242410     -0.10462742964629
  H   0.07578948017626     -1.88936807139915     -0.25296138323965
  N   -1.85525025347555     -0.06115095156412     -0.07119781895056
  H   -2.41201313254694      0.39747548780481      0.63484991418592
  H   -2.11263009554613     -1.02703141665050     -0.19855199046951
  N   -0.17419453995907      1.44917170980368      0.37337294349325
  H   -0.78962733831551      2.14715184096950     -0.01341459017902
  H   0.81579996414829      1.64564209012329      0.31885860096669
  N   1.79566423015608     -0.69293359371395     -0.21935789612764
  O   2.45913557118700     -1.68972247010733     -0.51367114361228
  O   2.29921889030840      0.42616882819871     -0.01474013581960
