12
Coordinates from ORCA-job run
  C   -0.50495342840723      0.13774139876186      0.03299309692932
  C   0.43851568699807     -0.84398743293159     -0.11304028055785
  H   0.18760197663822     -1.89361716825138     -0.13475906119990
  N   -0.28300332450307      1.47922921849593     -0.06094349339572
  H   -0.86742177973425      2.04781797735460      0.53141264989077
  H   0.69694729231609      1.72573963691195     -0.08926298989073
  N   -1.82529412447227     -0.19609289777113      0.28339950424356
  H   -2.02441713462763     -1.18346754091650      0.25593245102039
  H   -2.49004185885672      0.34865621140190     -0.24582685406825
  N   1.83652482259072     -0.60068877465661     -0.14187773063041
  O   2.26179964579355      0.56777164715683     -0.18009428073731
  O   2.57374222626453     -1.58910227555587     -0.13693301160386
