12
Coordinates from ORCA-job run
  C   -0.34065637563607      0.38047784789081      0.12006485559562
  C   0.94852752794366     -0.08096639573456      0.10395065932378
  H   1.76414341157687      0.45474470703474      0.56540129188288
  N   -0.66672601380509      1.51272350260891      0.84751566570934
  H   0.11783225952155      1.98772617143287      1.26483560359754
  H   -1.28864233204734      2.14271879443647      0.36269889319497
  N   -1.39406443167093     -0.16881860173552     -0.54798660730941
  H   -2.28379313789755     -0.07887987670740     -0.08321191081030
  H   -1.19038862143595     -1.07383659212181     -0.94964594913926
  N   1.33073065052511     -1.34481365494016     -0.41670868373609
  O   2.50129695204768     -1.68921089948182     -0.23881593042188
  O   0.49974011087803     -2.04086500268253     -1.02709788788718
