12
Coordinates from ORCA-job run
  C   -0.29982923926549      0.41010693322794      0.13643645516105
  C   0.96769364127250     -0.12237664532838      0.10461548383336
  H   1.78266590065326      0.29362544710088      0.67662908428501
  N   -1.32336040075718      0.02684025311112     -0.67136852398255
  H   -2.25977247623331      0.13697899475936     -0.31939766721524
  H   -1.12950230797891     -0.81199937450454     -1.20241611558747
  N   -0.54188196838137      1.49653384842087      0.94537145298263
  H   0.02144466033228      1.57313965307846      1.77438601535804
  H   -1.49793774866286      1.78682576112793      1.05942737220953
  N   1.32161553056979     -1.27451553947721     -0.63104965877741
  O   0.48790788885374     -1.81513858655786     -1.38494106049346
  O   2.47095651959756     -1.70002074495858     -0.48769283777348
