12
Coordinates from ORCA-job run
  C   -0.48827383085535      0.15791652846070      0.10123419645850
  C   0.38608488504689     -0.85130717028506     -0.20827825003009
  H   0.07409232407623     -1.88153420498845     -0.28784294593644
  N   -0.20887871062864      1.48946907986305      0.08303066241757
  H   -0.73002896799049      2.05130597059850      0.73663810181659
  H   0.76871525341182      1.70638623230510     -0.05190550975654
  N   -1.78802338299710     -0.14122178656110      0.47285760469251
  H   -2.48217763641965      0.45583162644556      0.04839950781676
  H   -2.02954473386090     -1.11765769693139      0.41902314222051
  N   1.77860527749465     -0.66714828036076     -0.39139305467874
  O   2.25898397512262      0.48121575799870     -0.37953710876675
  O   2.46144554759992     -1.68325605654487     -0.54222634625388
