12
Coordinates from ORCA-job run
  C   -0.36680231555051      0.34389481633784      0.14445734526363
  C   0.94537761123549     -0.05157350625353      0.14877810653488
  H   1.71310022302066      0.47060764865029      0.69899503304866
  N   -0.77498914468834      1.39501741194619      0.94165951038614
  H   -0.03646498398295      1.90195539390197      1.40270772415881
  H   -1.41139933955993      2.03208695959082      0.48548473793150
  N   -1.35993447492672     -0.20223109496776     -0.61034625011589
  H   -2.27677981010395     -0.14909056270590     -0.19907143062754
  H   -1.07815332084161     -1.04595972718909     -1.09073382636286
  N   1.40929003617600     -1.24560974099500     -0.45990803808437
  O   0.65210536861435     -1.89460100815246     -1.20600773207328
  O   2.58465015060752     -1.55749659016337     -0.25701518005968
