12
Coordinates from ORCA-job run
  C   -0.50365195140140      0.14402347112881      0.02294460031706
  C   0.42991153343177     -0.83787803292741     -0.17560472762843
  H   0.16390871850500     -1.87625404348527     -0.30301788776536
  N   -0.25700972296909      1.48368265822873      0.06661967223573
  H   0.72669141124165      1.71325944544622      0.10383786172423
  H   -0.85909524560874      2.00539874965607      0.68388462038234
  N   -1.83939805927342     -0.18539071918950      0.18234938410361
  H   -2.05124414211159     -1.16163610650244      0.05001800717110
  H   -2.46955074329434      0.41964828009229     -0.32330523301244
  N   1.83140409297134     -0.62131822798750     -0.11528957558977
  O   2.27615979893688      0.53724291342464     -0.02882962251310
  O   2.55187430957192     -1.62077838788464     -0.16360709942496
