12
Coordinates from ORCA-job run
  C   -0.50643632380971      0.09343002116396     -0.04424724283121
  C   0.50389106352662     -0.75639185891976      0.26215330184098
  H   0.33775427036887     -1.62907708160205      0.86975493018563
  N   -0.37601895842186      1.33143900763271     -0.55519281494712
  H   -1.10919911775513      1.85154850325486     -0.99080443176729
  H   0.51758534643504      1.78209726215932     -0.55666048421795
  N   -1.80405111137914     -0.34266693851099      0.17161683194856
  H   -2.38914763240425      0.34418686209060      0.61213651443518
  H   -1.89958440671021     -1.27858607584446      0.52031426524322
  N   1.86755469180079     -0.51486121939611     -0.02790608169757
  O   2.18476060186124      0.28071841011380     -0.91476817272896
  O   2.67289157648774     -1.16183689214189      0.65360338453652
