12
Coordinates from ORCA-job run
  C   -0.34394000006714      0.37175632539770      0.12397768396676
  C   0.73850318113796     -0.38557643918186      0.51417901706392
  H   1.36912986196544     -0.09873650601917      1.34223868227669
  N   -0.79794863531786      1.40824897243375      0.93134205241507
  H   -1.06556052939236      2.22549550049769      0.40224190877595
  H   -0.15337640882763      1.63988522109629      1.67079938710777
  N   -1.10724418685816      0.13346405905295     -0.96031184449557
  H   -0.82780146436515     -0.60155775005611     -1.58974590982599
  H   -1.95453978250440      0.65088992528340     -1.10677623883352
  N   1.24507099825223     -1.47100873366365     -0.24248713228865
  O   2.28430645969661     -2.00061743164401      0.15548356362937
  O   0.61240050628046     -1.87124314319697     -1.23994116979179
