12
Coordinates from ORCA-job run
  C   -0.33933376457011      0.39322003526734      0.07211651148318
  C   0.93144338931145     -0.10047435212350      0.20041724382606
  H   1.70838959607920      0.42562163687458      0.73407717706538
  N   -0.70575010795427      1.55581273604007      0.72936090833720
  H   0.04699737203225      2.02441941475074      1.20813059634831
  H   -1.25634888095146      2.18516647622235      0.16404014601674
  N   -1.33441022374971     -0.14974758249604     -0.68450028832398
  H   -1.11681755578340     -1.07144529739246     -1.03795057151563
  H   -2.26396278280337     -0.02240346557546     -0.31650154577545
  N   1.32619370978626     -1.39218623248470     -0.23564658099583
  O   2.45792924077737     -1.76513000909989      0.08115763235267
  O   0.54467000782580     -2.08285335998303     -0.91370122881865
