12
Coordinates from ORCA-job run
  C   -0.50335171939747      0.14720349319418      0.00063348746920
  C   0.42749115871286     -0.85598918773908     -0.04629209433341
  H   0.15858206795819     -1.90076347518606     -0.00954917537665
  N   -0.25325527213086      1.47695853671293     -0.16266156227440
  H   -0.85262955179975      2.08907971968647      0.36815421448902
  H   0.73119660277979      1.70642256868860     -0.16286004822199
  N   -1.83944621958436     -0.15014201367186      0.21110722149608
  H   -2.46933975382031      0.37249558018739     -0.37958403490166
  H   -2.05426975029516     -1.13448972305898      0.22982899502065
  N   1.82947436123049     -0.63629315226241     -0.02012387294103
  O   2.54736253821266     -1.63290664296958      0.08794544408293
  O   2.27718553813394      0.52042429641841     -0.11559857450873
