12
Coordinates from ORCA-job run
  C   -0.30409530576083      0.41192343735333      0.06975619175494
  C   0.79294605768338     -0.31308836499109      0.46522684065058
  H   1.30767927428823     -0.12824568557126      1.39507130395133
  N   -0.99548220640834      0.22220267865162     -1.07373231807317
  H   -0.82717122488382     -0.63143603939483     -1.58054267768609
  H   -1.81296416074136      0.77434194454627     -1.25755274179448
  N   -0.70634339097824      1.50674575029219      0.82342395638540
  H   -1.70588773479634      1.59507947947266      0.92967478413908
  H   -0.22096562164907      1.60072941511756      1.70114665186640
  N   1.33698230761672     -1.37998956690709     -0.28753673501829
  O   2.35942337055997     -1.91307993129976      0.15232070965399
  O   0.77487863506970     -1.74418311726959     -1.33725596582967
