12
Coordinates from ORCA-job run
  C   -0.33474191426898      0.39282550518032      0.09271046733362
  C   0.95161053386693     -0.07621254616855      0.07656810263619
  H   1.78405967831637      0.49472238034206      0.45900995111110
  N   -0.63129701726215      1.59389358481949      0.71539066010108
  H   -1.26662014152492      2.17678964313291      0.19060299631383
  H   0.17081579439436      2.10222044530124      1.05258011233085
  N   -1.41285844212411     -0.21216568225187     -0.48087017690778
  H   -2.28565139915087     -0.06950972610915      0.00241159212880
  H   -1.22764339483346     -1.15370964200743     -0.79849538946694
  N   1.31041508431560     -1.38956563819775     -0.32498103557786
  O   0.45732875988544     -2.13535459023393     -0.83832983913670
  O   2.48358245838579     -1.72493373380734     -0.14759744086619
