12
Coordinates from ORCA-job run
  C   -0.33610175548876      0.39730840779739      0.06477365753374
  C   0.92630773475544     -0.11180433874153      0.21742851552835
  H   1.70133974032269      0.41032136116676      0.75774319079216
  N   -0.69662950635369      1.57048218316900      0.70586509142782
  H   -1.23443601571043      2.19937052169781      0.12779095932188
  H   0.05740723800589      2.03731005767681      1.18438763153440
  N   -1.32584586940170     -0.14017854147673     -0.70203063817997
  H   -1.11694371885466     -1.06988003480393     -1.03927711625415
  H   -2.26040106734974      0.00745734809979     -0.35477034129910
  N   1.31327422022238     -1.41043621837764     -0.20366440308377
  O   0.53185312245395     -2.10063684474560     -0.88265985609278
  O   2.43917587739861     -1.79031390146214      0.12541330877141
