12
Coordinates from ORCA-job run
  C   -0.27304528949834      0.42992753819601      0.12915916861160
  C   0.87000719546684     -0.31599492723482      0.25300152944443
  H   1.63373002429853     -0.08469579498665      0.98013281244236
  N   -0.52412830832387      1.47155129221854      1.00391647866924
  H   0.22009630525806      1.67458763194779      1.65143434017671
  H   -0.89081964334794      2.29732593981475      0.55441128274301
  N   -1.22426701195086      0.26508764463508     -0.83117543013048
  H   -1.12094707428603     -0.58558280585993     -1.36639403832184
  H   -2.16362173689337      0.49795325762982     -0.55172097547204
  N   1.09123962157217     -1.54273304601498     -0.42330646785677
  O   2.07813353800209     -2.19889764229612     -0.08300828793639
  O   0.30562237970272     -1.90652908804948     -1.31745041236982
