12
Coordinates from ORCA-job run
  C   -0.49973047407231      0.11648413052865      0.10782853625659
  C   0.52526935283315     -0.79131087865086      0.12186332177031
  H   0.43584778762302     -1.76242087769382      0.58472236049831
  N   -0.50931682702530      1.30111679057672     -0.56636024053626
  H   0.39116921363583      1.55658401959970     -0.94804183273001
  H   -1.02714029075715      2.03969044290749     -0.11667392427314
  N   -1.66630746606570     -0.13787818062482      0.80987616228879
  H   -1.71476135294754     -1.05404112467891      1.22694653709928
  H   -2.50510853766716      0.09980876042281      0.30098016949124
  N   1.82870537537154     -0.52241747789175     -0.37145771426288
  O   2.68880708194443     -1.38242108196036     -0.16948343718694
  O   2.05356613712721      0.53780547746515     -0.98219993841530
