12
Coordinates from ORCA-job run
  C   -0.50006953355137      0.14748838237701      0.11822843453726
  C   0.54171298296050     -0.68931435425782      0.43261143826730
  H   0.35927674004760     -1.68422613053185      0.81340240104955
  N   -1.76942041113749     -0.17978528642243      0.49811912307929
  H   -2.02169260087139     -1.13258510831094      0.68606849557531
  H   -2.50370060876047      0.48343196545341      0.32834287231501
  N   -0.39101887474054      1.38896936188988     -0.47745489897765
  H   -1.03667691169221      1.52630928577216     -1.24161353247774
  H   0.56803874695400      1.57560897056657     -0.74390019138717
  N   1.87828418960529     -0.51901723940189     -0.02078146411005
  O   2.21314393774925      0.52208551056267     -0.61228540072160
  O   2.66212234343684     -1.43996535769679      0.22026272285048
