13
Coordinates from ORCA-job run
  C   -0.51986785935077     -0.02190197155636      0.19229545891402
  C   0.23529377757005     -0.78838569929901     -0.88336694557472
  Cl  -2.29527353381390     -0.39789326354854     -0.04111868521087
  H   -0.16682516505226     -0.53429023733418     -1.86351767093856
  H   0.07001401289747     -1.85728369245747     -0.71956958809743
  N   -0.02019827808486     -0.25198240644548      1.47333495432938
  H   -0.47120277312135      0.32417139100304      2.17169561483278
  H   -0.04167699856529     -1.22939860071583      1.72832170979600
  N   -0.43201244226474      1.48509814313505     -0.06923414232806
  O   -0.22522910272168      1.83726418268779     -1.22266346106546
  O   -0.61747787748477      2.20917313245585      0.89886028641516
  C   1.66626165719246     -0.49742608021697     -0.84138717309990
  N   2.81819458279962     -0.27714489770790     -0.82165035797236
