13
Coordinates from ORCA-job run
  C   -0.59921213455976     -0.15259272129389      0.14617250652098
  C   0.28391807148567     -0.77989463869224     -0.92576275176834
  Cl  -2.29306795881133     -0.59382994481966     -0.15567959102872
  H   0.17375041716252     -1.86380576994467     -0.85211298434988
  H   -0.04225144907099     -0.45135626745235     -1.91163817721612
  N   -0.22604960918609     -0.53670200629376      1.44125449874058
  H   0.75159950521846     -0.33337142561158      1.61834084181092
  H   -0.79966499498904     -0.08152488796925      2.14015362878948
  N   -0.57083116723302      1.40261928710493     -0.05742194522791
  O   -0.46823390186004      1.81844427996227     -1.20374865768493
  O   -0.67843517607131      2.07458821722953      0.96035392673172
  C   1.67965755349264     -0.40663089761290     -0.71225332356171
  N   2.78882084442228     -0.09594322460645     -0.48665797175607
