13
Coordinates from ORCA-job run
  C   -0.54214347333543      0.02430801096402      0.07662705712649
  C   0.71213082252321     -0.10210603945515     -0.80931500034666
  Cl  -1.84630693301046     -0.92153223376668     -0.62118896903556
  H   1.46415938035130      0.60180109205000     -0.44085474559468
  H   0.47134028861913      0.15307511262238     -1.84510841461765
  N   -0.40352633372989     -0.30172052540391      1.45540656363342
  H   -0.30604690559763     -1.30031241326679      1.58411428014124
  H   0.38000235294605      0.19172690927388      1.86450174815594
  N   -0.88813863592473      1.52810016509852      0.03855624088655
  O   -0.08752677299995      2.21747210179756      0.66433248900012
  O   -1.85173704033826      1.91924432367768     -0.59696604354841
  C   1.24119806583429     -1.45809799171425     -0.73446105294677
  N   1.65459518466236     -2.55195851187726     -0.63664415285403
