13
Coordinates from ORCA-job run
  C   -0.44067524904280     -0.06713493925182      0.10712200945598
  C   0.75408666689545     -0.08978061926421     -0.84010627510937
  Cl  -1.78979224930287     -1.00989861426557     -0.55329366889520
  H   0.44012901672215      0.25218814787368     -1.82600261236820
  H   1.51009435366329      0.61447244149048     -0.47402436445655
  N   -0.11547879753622     -0.53269882816597      1.38605867202208
  H   -0.90129019958425     -0.47930841075440      2.02080468441114
  H   0.67873614262130     -0.04013129405398      1.77543981791666
  N   -0.96979412050623      1.41204372598911      0.11153002564890
  O   -0.94971088505687      2.02004214442206     -0.95102624854590
  O   -1.37230028456794      1.83402062270988      1.18839892567248
  C   1.33351239976847     -1.42559614935819     -0.92603948745125
  N   1.82348320592652     -2.48721822737104     -1.01886147830076
