13
Coordinates from ORCA-job run
  C   -0.52309134831211     -0.01402956595312      0.18467087509653
  C   0.24679055037387     -0.81577024185010     -0.85405202732013
  Cl  -2.29413301544014     -0.40465922944273     -0.05662585509409
  H   0.07513232803606     -1.87837885385595     -0.65872527020601
  H   -0.13999094025263     -0.59252639341969     -1.84778787784509
  N   -0.03779372310636     -0.19553497442558      1.47903313974754
  H   -0.50723628080897      0.39497277112997      2.15290014131962
  H   -0.04476519673485     -1.16449470615769      1.76547272655388
  N   -0.43692161130199      1.48360695968397     -0.12595356283190
  O   -0.17400380850004      1.79961706398101     -1.27820069775991
  O   -0.67431218256925      2.23670778727017      0.80828774386382
  C   1.67825616294529     -0.52999104596583     -0.80073997289534
  N   2.83206906567112     -0.32051957099444     -0.77027936262893
