13
Coordinates from ORCA-job run
  C   -0.38882793485286      0.09657101229225      0.11970110685008
  C   0.71140071002312     -0.15938429368140     -0.90354918755859
  Cl  -1.90612566268204     -0.73953649470098     -0.44980289841764
  H   1.55118163546921      0.50200946210086     -0.67613624994234
  H   0.35163439507073      0.06799247691678     -1.90618430076236
  N   0.01411424054282     -0.20849903950435      1.42378241134980
  H   -0.69964785811573      0.03111713746372      2.10019271773387
  H   0.29088890942441     -1.17751087500019      1.51945312224013
  N   -0.75894282385785      1.58132978198797      0.10393010335598
  O   -0.43238037224113      2.23173320043973     -0.88067774460226
  O   -1.37650045192733      1.98679832718987      1.07858139160005
  C   1.14769863473048     -1.54911266009924     -0.81872622449385
  N   1.49550657841616     -2.66450803540502     -0.71056424735289
