13
Coordinates from ORCA-job run
  C   -0.51906140980242     -0.02093301521233      0.19369664358234
  C   0.24614753400048     -0.81530947062824     -0.85396848401757
  Cl  -2.28675284628414     -0.44252711304255     -0.01490997034809
  H   -0.16043605074328     -0.60239030590777     -1.84211996501705
  H   0.09380286904199     -1.87954844249726     -0.65144000555908
  N   -0.00879388715456     -0.18785882777906      1.48074598543427
  H   0.00310076010113     -1.15562687430383      1.77135665950054
  H   -0.47805361261856      0.39736630024775      2.15941581916102
  N   -0.46342281877209      1.47601270884785     -0.12549090646295
  O   -0.22848881166088      1.79075109721049     -1.28427267201437
  O   -0.69763680290888      2.22993155552657      0.80885199906602
  C   1.67413988607922     -0.50848606338970     -0.82577006826047
  N   2.82545519072198     -0.28338154907192     -0.81709503506462
