13
Coordinates from ORCA-job run
  C   -0.59715308395903     -0.15557107126404      0.15267634117171
  C   0.29855131968652     -0.81914709336423     -0.88641797591412
  Cl  -2.28360025442374     -0.63582320766149     -0.13256191264169
  H   -0.03207780683671     -0.54520666363078     -1.88741563579327
  H   0.20705164886528     -1.89993331738714     -0.76002077847243
  N   -0.22232746256154     -0.47194904003499      1.46547392646224
  H   -0.80160840825625      0.01195470572421      2.13978388347322
  H   0.75308151179747     -0.25214329080664      1.63334737524686
  N   -0.59222620353244      1.38872757209518     -0.12361309344056
  O   -0.72629511683648      2.10491550304549      0.86030949567028
  O   -0.47955420978527      1.75263466787380     -1.28659004584694
  C   1.68697651776104     -0.41036553972460     -0.69163975463923
  N   2.79018154808116     -0.06709322486478     -0.48433182527610
