13
Coordinates from ORCA-job run
  C   -0.51808022909508     -0.01907728462222      0.19686132741294
  C   0.22296795814742     -0.78326393353382     -0.88990126301962
  Cl  -2.29661330726643     -0.39131777491005     -0.01919220700035
  H   0.05135726431876     -1.85184268035032     -0.73060743622318
  H   -0.18671412935019     -0.52126806522094     -1.86489460228633
  N   -0.00491047447210     -0.25435030084957      1.47168154009825
  H   -0.45376574647975      0.31320365542542      2.17837315873807
  H   -0.01385137143399     -1.23368062302909      1.72039583079023
  N   -0.43066509307210      1.48891433074707     -0.05608758428725
  O   -0.19191485235957      1.84937738598001     -1.20047967598767
  O   -0.64566890924658      2.20537166489620      0.91184296417260
  C   1.65657931060813     -0.50423226813244     -0.86152027935500
  N   2.81127957970147     -0.29783410640025     -0.85547177305269
