13
Coordinates from ORCA-job run
  C   -0.42449667424809     -0.00672537939843      0.16638411582323
  C   0.84905738541863     -0.72660041248833     -0.25514334342396
  Cl  -1.75069131852960     -0.40053580423107     -1.00272743876283
  H   1.66263062811415     -0.36979042715553      0.37980661962656
  H   0.70231789412671     -1.79258647189926     -0.05596453593660
  N   -0.72355734616220     -0.27384784611952      1.51625941904899
  H   -1.53085597989823      0.26025489081245      1.81633126215115
  H   -0.88520084284145     -1.26040715546002      1.67173218627026
  N   -0.24616882693162      1.51080806874994      0.08159979516616
  O   -1.15409508331095      2.17364236499880      0.56447279900106
  O   0.78040224065428      1.93389509845711     -0.43362736449377
  C   1.20504709934246     -0.56309092111186     -1.66027773734032
  N   1.51761082426591     -0.48401600515427     -2.78784577712994
