13
Coordinates from ORCA-job run
  C   -0.65211963553102     -0.03641197817100      0.18924022280243
  C   0.20419888846784     -0.73811758736735     -0.88057341599328
  Cl  -2.34029896951589     -0.48559638697265     -0.10495979656439
  H   0.05684313241900     -1.81728894584622     -0.78640880894394
  H   -0.11885137634756     -0.43107727350895     -1.87743367034409
  N   -0.33815073597523     -0.25790026308091      1.54932771149600
  H   -0.43972682670063     -1.23266155314731      1.79661078731543
  H   0.57985761931299      0.09352896369921      1.78918372921982
  N   -0.49278724708987      1.47345451946407     -0.09318872714224
  O   -0.90456499617829      1.86402168350442     -1.17620551283920
  O   0.09482771558771      2.13364361227135      0.75352379242469
  C   1.61470971921281     -0.41841552617706     -0.68138617435611
  N   2.73806271233816     -0.14617926466760     -0.47673013707511
