13
Coordinates from ORCA-job run
  C   -0.55720211889932     -0.04657546815075      0.14697631209352
  C   0.75742418500907     -0.72369022638141     -0.27136894564468
  Cl  -1.86399361615244     -0.60234519770266     -0.88335385716680
  H   0.63219006905507     -1.80338590026307     -0.15660417685588
  H   1.54403504522984     -0.38770801093084      0.40921286774812
  N   -0.93026981704737     -0.20343202529228      1.51582097790684
  H   -0.15807367093416      0.02815551714353      2.12812615752303
  H   -1.26881156410675     -1.13827006702617      1.69771967296432
  N   -0.32861542728406      1.46643995820435     -0.03918594989594
  O   -0.95187731297003      2.08751927896329     -0.88090794133619
  O   0.52577440863993      1.90589800606730      0.72645800496469
  C   1.14418003450600     -0.41727490201990     -1.64499164457924
  N   1.45623978495423     -0.16533096261139     -2.74790147772179
