13
Coordinates from ORCA-job run
  C   -0.44827297353343      0.01101105079343      0.07363044920440
  C   0.78918627538829     -0.18376068575105     -0.79486492914745
  Cl  -1.89126391315661     -0.63842175319887     -0.72940324560386
  H   0.61677364864750      0.25894519865391     -1.77533553668054
  H   1.63105026805097      0.35008064263252     -0.33959793785442
  N   -0.30693493438888     -0.56843338485642      1.34027767340714
  H   -1.11141773074115     -0.39283698724763      1.92785377417045
  H   0.53834627302133     -0.25931371987601      1.80375048715047
  N   -0.71524843018681      1.55609658134667      0.14070147171039
  O   -0.41667771876008      2.22732699521440     -0.83900815362044
  O   -1.22375792356785      1.96250477582136      1.17792944184588
  C   1.12138711456396     -1.59778659943805     -0.92769505104720
  N   1.41683004466277     -2.72541211409427     -1.05823844353482
