13
Coordinates from ORCA-job run
  C   -0.45231013288140     -0.04838083147013      0.22914106412952
  C   0.82383548302756     -0.70304068252971     -0.30041747921972
  Cl  -1.86513578969473     -0.63395723547244     -0.71058619923082
  H   1.65694973224447     -0.30109320904203      0.28326147008274
  H   0.76128083410657     -1.77944369060101     -0.11580886107209
  N   -0.54148582427873     -0.24801608473748      1.62101402837583
  H   -1.32107657201945      0.25421952278446      2.02747049109529
  H   -0.62705549852930     -1.23309154678337      1.83616786692677
  N   -0.31130106395580      1.47295070293081     -0.03045382767560
  O   0.30396335588724      2.09177704104912      0.82894539678561
  O   -0.74845185984980      1.91403425495212     -1.08203067950439
  C   1.05146870227589     -0.47419317319009     -1.72271314720350
  N   1.26831863366750     -0.31076506789026     -2.86399012348966
