13
Coordinates from ORCA-job run
  C   -0.61467243702569     -0.16187805933395      0.03663063701462
  C   0.44466644334998     -0.74229998413423     -0.89298090973886
  Cl  -2.22793939665679     -0.59799230335356     -0.56414073277741
  H   0.28592856807234     -0.37628810181630     -1.90652506278763
  H   0.33713700301054     -1.82888908838564     -0.88067856371616
  N   -0.46154043050232     -0.59420445513350      1.36071002892847
  H   0.46856842848127     -0.39129387480517      1.70926474774758
  H   -1.15127169772822     -0.17172085703513      1.96897096835473
  N   -0.56622430157097      1.40067381142014     -0.10269502451221
  O   -0.31089842680142      1.85776620391169     -1.20885087634815
  O   -0.81224735403854      2.03512458624164      0.91500168546876
  C   1.77879268539744     -0.36908307727116     -0.43032310840327
  N   2.82870091601238     -0.05991480030482     -0.00638378923046
