13
Coordinates from ORCA-job run
  C   -0.53489191350571      0.12123407478495      0.00141002008160
  C   0.79912871506557     -0.18224790825538     -0.70802436364264
  Cl  -1.86202835997188     -0.51475825558551     -0.95604589292775
  H   0.76994499480773      0.17852621324048     -1.73997393327258
  H   1.59693298253607      0.34356658549689     -0.17532394364464
  N   -0.67077047553162     -0.31367798270323      1.35026216557387
  H   -0.76909457504770     -1.31939493414929      1.39800463282661
  H   0.11492724577913     -0.00334670427561      1.90831567837460
  N   -0.59927806058617      1.66240385927251      0.05326672246488
  O   -1.36576395790029      2.26815363552161     -0.67557461520958
  O   0.20129630873470      2.14721230526841      0.84816816753238
  C   1.06257615787855     -1.61550271774390     -0.68164044673771
  N   1.25702093774161     -2.77116817087193     -0.62284419141904
