13
Coordinates from ORCA-job run
  C   -0.51179681820161     -0.18277076071852      0.16135458403288
  C   0.82724806332340     -0.74977834815602     -0.30601068561131
  Cl  -1.83033379175221     -0.77532511446996     -0.83245942113985
  H   0.76569899869453     -1.83730989447404     -0.23121662730551
  H   1.60880756122776     -0.39586667998080      0.37213277478453
  N   -0.72934278026844     -0.52283899459764      1.51832967778931
  H   -1.66302247571689     -0.27057674783121      1.81844157351654
  H   -0.04336585010115     -0.06361635165282      2.10604846146663
  N   -0.39479292944421      1.37052586281473     -0.03054859215301
  O   -1.03406945830888      1.94460273353209     -0.89533846177942
  O   0.40281106927080      1.87734050940413      0.75604742883285
  C   1.16096369333663     -0.35520041688611     -1.67058862214941
  N   1.44119471794027     -0.03918579698382     -2.76519209028422
