13
Coordinates from ORCA-job run
  C   -0.54006325848504      0.04868992845963      0.08627177578740
  C   0.68332265863180     -0.25329544923920     -0.80117601476505
  Cl  -1.88230169515544     -0.97053930199172     -0.40512870377302
  H   1.45726719382761      0.48747298679206     -0.58015090727332
  H   0.41343865519714     -0.17365346295459     -1.85786257257613
  N   -0.36287291402533     -0.04510483274581      1.49619066757011
  H   -0.26943240880155     -1.01030372056560      1.78491994728417
  H   0.44038953211878      0.49534287413347      1.79243991301613
  N   -0.86010316984223      1.53242260755526     -0.19442133981511
  O   -1.83173177755064      1.83209316510858     -0.86659417191879
  O   -0.03206508420345      2.29955656360751      0.28891019284401
  C   1.19273095614847     -1.58734429357275     -0.50961509404730
  N   1.59342131213988     -2.65533706458683     -0.23478369233310
