13
Coordinates from ORCA-job run
  C   -0.39927514696663      0.09692451582939      0.07861966225498
  C   0.77730026846741     -0.26448083666577     -0.82025137208595
  Cl  -1.84518601569181     -0.87987152310006     -0.45039785401733
  H   0.48096356901530     -0.20731503362251     -1.86687128796160
  H   1.57739086545553      0.45893022967807     -0.64455042387433
  N   -0.07840605525982      0.01147981790546      1.43718162008462
  H   -0.84471387971224      0.32033756622148      2.02191972002812
  H   0.22385575801885     -0.91847854660158      1.69889041155128
  N   -0.81492040109731      1.54511467931081     -0.19029547062600
  O   -1.51184932201312      2.06754795905086      0.66819785878525
  O   -0.44097170037441      2.05172800374045     -1.24038820604889
  C   1.25098992844919     -1.60560248906926     -0.49498250010215
  N   1.62582213170905     -2.67631434267732     -0.19507215798799
