13
Coordinates from ORCA-job run
  C   -0.51883270917915     -0.16602279882539      0.15695324259491
  C   0.79159689617731     -0.77282102797266     -0.34102173803090
  Cl  -1.86686948621272     -0.65887264167052     -0.85163598922934
  H   0.68217212901014     -1.85864833026597     -0.30937835375433
  H   1.59086417460138     -0.48085154412412      0.34583024495522
  N   -0.74541935024118     -0.55110123300219      1.50063096850260
  H   -0.03708190105888     -0.14636814112851      2.10182407796827
  H   -1.66540813293677     -0.26886810391712      1.81618875404477
  N   -0.33335663893023      1.38660809991606      0.02720573751190
  O   0.49009171393136      1.82509939111599      0.82830522567516
  O   -0.95055417753310      2.02343625989897     -0.80915198425906
  C   1.13620916624725     -0.33877339348205     -1.69081605878129
  N   1.42458831612459      0.00818346345751     -2.77393412719792
