13
Coordinates from ORCA-job run
  C   -0.39331512159420      0.14153956767098      0.02836719223083
  C   0.90397520411254     -0.17700914503541     -0.70563146310265
  Cl  -1.78856102420809     -0.40001618019635     -1.01175281531714
  H   0.85818387973911      0.19644864518559     -1.72783071804466
  H   1.72325396970495      0.32697139055305     -0.18684721029077
  N   -0.39557360938236     -0.34275479387124      1.34064641034635
  H   -1.23214873245356     -0.06688986012673      1.83897143653598
  H   -0.26988601709554     -1.34654943184048      1.37545050103133
  N   -0.56520812716795      1.66010566963666      0.11411181417985
  O   -1.36894223932268      2.05913957375370      0.94498442805002
  O   0.08920707213004      2.34474367364610     -0.66191987206518
  C   1.13344523703593     -1.61787305374940     -0.69651617609691
  N   1.30456950850181     -2.77785605562649     -0.65103352745706
