13
Coordinates from ORCA-job run
  C   -0.55529249684821     -0.06911293489633      0.14651018863520
  C   0.79492216980930     -0.69737446102980     -0.23275937726519
  Cl  -1.82547835362504     -0.74194066474124     -0.85904233366082
  H   0.72445840860698     -1.77523276560569     -0.06608437744015
  H   1.55828500997611     -0.28888737591716      0.43461433860290
  N   -0.92768828462582     -0.17662755696114      1.52028876661014
  H   -0.17270672919577      0.12585429066533      2.12290494094944
  H   -1.22038801180174     -1.11679357327495      1.74799531961145
  N   -0.40378342338639      1.44272183023671     -0.11388187274430
  O   0.42136605969403      1.96359870251447      0.63257650914676
  O   -1.05317391380792      1.98842103603864     -0.98746278189527
  C   1.17627664349709     -0.43699851917067     -1.61739947039081
  N   1.48520292170738     -0.21862800785816     -2.72825985015936
