13
Coordinates from ORCA-job run
  C   -0.52273246643938     -0.01279532042360      0.18526877831689
  C   0.24359217582376     -0.81290739872741     -0.85722704138055
  Cl  -2.29532979645599     -0.39392204303106     -0.05879450121730
  H   -0.14384635804637     -0.58475895043699     -1.84966445552478
  H   0.06862325898933     -1.87566127421839     -0.66560327568158
  N   -0.03897958285682     -0.20350921651208      1.47912784348003
  H   -0.50618431587901      0.38646475895608      2.15509883168305
  H   -0.05363072984396     -1.17388079385295      1.76073103501453
  N   -0.42910772149354      1.48588686600916     -0.11695626380222
  O   -0.16020040834151      1.80729968072747     -1.26628824054231
  O   -0.66863073928429      2.23485926471093      0.82014077330205
  C   1.67609850631899     -0.53182865764337     -0.80565008759499
  N   2.83032817750879     -0.32424691555779     -0.78018339605283
