13
Coordinates from ORCA-job run
  C   -0.37602592355441      0.11039257319408      0.14915718444362
  C   0.59512273484707     -0.32910180472246     -0.94037238142048
  Cl  -1.90996388767372     -0.85928894639884     -0.02464705209246
  H   0.09813036826898     -0.32558990197190     -1.90957538900643
  H   1.42169984602794      0.38522805843900     -0.97032485211546
  N   0.20666179923339      0.09452225992703      1.42045849670531
  H   0.54796205215120     -0.82464223190025      1.67112333708176
  H   -0.42601902471507      0.44914213868210      2.12619858540556
  N   -0.81881238335587      1.55071130459756     -0.12000617603403
  O   -1.31973376516174      2.13993790746530      0.82717603059825
  O   -0.65941111052252      1.98505620766014     -1.25361387138257
  C   1.11063319195046     -1.65875784916411     -0.63248102318039
  N   1.52875610250430     -2.71660971580767     -0.34409288900266
