13
Coordinates from ORCA-job run
  C   -0.54509297339901     -0.03924122206380      0.09678108241095
  C   0.41930084527077     -0.79219109460576     -0.80737086053446
  Cl  -2.23338036434707     -0.49886047030156     -0.43666637323926
  H   0.18992085269173     -0.57241608435141     -1.84957434455401
  H   0.26581735144889     -1.86379602748722     -0.64959475122165
  N   -0.27214375258671     -0.22080059984819      1.45204652017183
  H   -0.28755021704807     -1.19366452179344      1.72503252009257
  H   -0.87062743503194      0.34054436808485      2.04347689876020
  N   -0.47365292817887      1.46537721189378     -0.18245468733130
  O   -0.89647407984844      2.19340816157424      0.70501565400064
  O   -0.03748290730665      1.80987509801535     -1.27226865231499
  C   1.80869540151241     -0.44478709802607     -0.52009311168923
  N   2.93167020682295     -0.18344772109077     -0.30432989455129
