13
Coordinates from ORCA-job run
  C   -0.54125220474747      0.04305253797489      0.08601876230589
  C   0.68870860100774     -0.24259923073630     -0.79695677740587
  Cl  -1.87027655034161     -0.98923501989093     -0.41455949309579
  H   0.42421916657517     -0.15693258093225     -1.85467468345203
  H   1.45618922158286      0.50190851648286     -0.56597844652875
  N   -0.36902334220329     -0.05397336107145      1.49586936176673
  H   0.42893734152702      0.49023186830143      1.79907109317752
  H   -0.27607315361570     -1.01903820528318      1.78439611995929
  N   -0.87678077757643      1.52406844045345     -0.19081412115438
  O   -0.05777901735932      2.29827394863288      0.29663580539764
  O   -1.85079184619469      1.81577972255407     -0.86297199406200
  C   1.20761496348091     -1.57520580166019     -0.51513419596455
  N   1.63730759786480     -2.63733083482528     -0.26190143094372
