13
Coordinates from ORCA-job run
  C   -0.51807826776304     -0.02178837975569      0.19664135045371
  C   0.23992800581831     -0.81106448525794     -0.86007584606257
  Cl  -2.28842609906022     -0.43536822471503     -0.00799774882121
  H   0.08827083702183     -1.87622141447622     -0.66215463866296
  H   -0.17247387138208     -0.59265068646468     -1.84459526331577
  N   -0.00323354321919     -0.19977685894342      1.48021906647415
  H   0.00572267788047     -1.16943858573166      1.76455663494061
  H   -0.46646866790926      0.38354706057797      2.16455110653894
  N   -0.45863559247927      1.47743872492999     -0.11175018783368
  O   -0.22292313351390      1.80005207661641     -1.26802443686684
  O   -0.69005033306356      2.22486911291897      0.82858364161487
  C   1.66792388842471     -0.50409777929874     -0.83969413398634
  N   2.81844409924522     -0.27550056039994     -0.83925954447290
