13
Coordinates from ORCA-job run
  C   -0.61725580772831     -0.15402295899879      0.02367891957506
  C   0.46016496813300     -0.76761518147604     -0.86255332020518
  Cl  -2.21825974040846     -0.58652089732710     -0.61103734281967
  H   0.33331625485109     -0.42436906656152     -1.88854422854651
  H   0.33978138326859     -1.85237568417557     -0.82726171447930
  N   -0.50535836096041     -0.55680509195015      1.36114584679798
  H   0.41680843674166     -0.35556453147840      1.73114765797886
  H   -1.20783552221536     -0.11432615135171      1.93986454824671
  N   -0.54660679954679      1.40433122458518     -0.15009648080517
  O   -0.25446513716194      1.83206924329556     -1.25888522622032
  O   -0.81407516311515      2.06536168451384      0.84506497415844
  C   1.78607088706658     -0.39878587420058     -0.37330168965663
  N   2.82871460107552     -0.09337671487474      0.07077805597573
