13
Coordinates from ORCA-job run
  C   -0.56092314844253     -0.03153272062612      0.14036347205839
  C   0.73066358173060     -0.74414138384983     -0.29057929775015
  Cl  -1.87840403126027     -0.50207953579172     -0.91811546852196
  H   0.56314336862533     -1.82157599127329     -0.21621327191941
  H   1.52220657990316     -0.46379437941157      0.40925076924811
  N   -0.95179962108675     -0.21924384502816      1.50028954962451
  H   -0.17796267903029     -0.03338301303627      2.12587475119284
  H   -1.32488226352947     -1.14678196928297      1.64928102983248
  N   -0.27332070410575      1.47708329515769      0.00721531542852
  O   0.59059348024525      1.85794644072769      0.79338178495398
  O   -0.86637082484081      2.14961184061869     -0.81660196249244
  C   1.14452291434502     -0.40264464086539     -1.64799298679235
  N   1.48053334744652     -0.11946409733876     -2.73615368486253
