13
Coordinates from ORCA-job run
  C   -0.41740726858715     -0.00749942130743      0.18355439018268
  C   0.84617331537371     -0.72327720572942     -0.27341647641526
  Cl  -1.78501806918188     -0.44079291954368     -0.92187445056138
  H   1.68091261876481     -0.34403030951171      0.31962206761510
  H   0.71991784538408     -1.78610708139488     -0.04535613715491
  N   -0.65881849281333     -0.24722170255852      1.55006098818218
  H   -0.80128096987891     -1.23195539089596      1.73382195775200
  H   -1.46057160019991      0.28364165414419      1.87028125127540
  N   -0.25937804865689      1.50971961483167      0.05854884077739
  O   0.74184606702673      1.93143920799297     -0.50531702167802
  O   -1.15517172772640      2.17380804635914      0.56177584756721
  C   1.14255700331265     -0.58745189681711     -1.69528691500766
  N   1.40723932718250     -0.53127259556926     -2.83641434253473
