13
Coordinates from ORCA-job run
  C   -0.60452511967921     -0.14526148252616      0.13864729319517
  C   0.28897683416234     -0.79314916654479     -0.91259839323747
  Cl  -2.29789288206442     -0.56986161384527     -0.18499418190320
  H   0.16843739030109     -1.87523905212695     -0.82878499270984
  H   -0.01915637872342     -0.47204046042682     -1.90679350004966
  N   -0.25584727251524     -0.51957033020398      1.44330606947827
  H   -0.83778850821190     -0.05476940238152      2.12851507729390
  H   0.71956572341874     -0.32066556202986      1.63532088127421
  N   -0.55164727186168      1.40730786259375     -0.08353524793136
  O   -0.62905130374413      2.09387664567286      0.92720258585737
  O   -0.46129608619845      1.80618814795784     -1.23698945959131
  C   1.68456938682670     -0.42979634742592     -0.68059035942165
  N   2.79265548828959     -0.12601923871319     -0.44070577225443
