13
Coordinates from ORCA-job run
  C   -0.55461709714659     -0.04668341586389      0.16409752021459
  C   0.74661787409761     -0.73196060736516     -0.28145207962920
  Cl  -1.89198639376415     -0.62378907760826     -0.81374882099521
  H   0.62342334212253     -1.80988556025309     -0.14952259053091
  H   1.55211216804223     -0.38843542648651      0.37299526090651
  N   -0.88466559724752     -0.17555565299410      1.54707022085461
  H   -1.20068015602590     -1.11162021478713      1.76144514092135
  H   -0.09724344415904      0.08352257832855      2.12821768747637
  N   -0.33379999290223      1.46228684289868     -0.05893372687691
  O   -0.98394058669370      2.06555674298914     -0.89316292704083
  O   0.54350622402081      1.91787851056198      0.67055337708626
  C   1.09778516915304     -0.44198584817751     -1.66849550488796
  N   1.38448849050291     -0.19832887124270     -2.78006355749867
