13

C	0.0	0.0	0.0
C	-0.358625	-0.096107	-1.525647
Br	1.958019	0.0	0.0
H	0.489724	-0.558257	-2.038849
H	-1.238392	-0.734871	-1.614899
C	-0.490028	1.207589	0.652414
N	-0.540408	2.251098	1.205835
C	-0.475819	-1.194704	0.703019
N	-0.528851	-2.233997	1.264956
N	-0.547033	1.247941	-2.057613
H	-0.696545	1.178011	-3.058478
H	-1.41093	1.593444	-1.644416
H	-2.124813	0.0	0.0
