13

C	0.0	0.0	0.0
C	-0.382756	0.059031	-1.519892
Br	1.963889	0.0	0.0
H	-1.119207	0.858077	-1.630455
H	0.516929	0.317089	-2.085858
C	-0.512504	1.175117	0.706927
N	-0.543135	2.210772	1.277801
C	-0.39963	-1.223328	0.68787
N	-0.50805	-2.214962	1.317127
N	-0.840667	-1.246457	-1.97338
H	-1.748749	-1.376028	-1.529605
H	-0.976527	-1.206091	-2.978244
H	-2.118933	0.0	0.0
