14
Coordinates from ORCA-job run
  C   0.78458147422195      0.76654719128424     -0.08151512239878
  C   -0.58505613369327      0.22733006899644      0.31886776118827
  F   0.88351176026907      0.89820178707198     -1.42119481886357
  H   -0.58631742121486      0.13926399199726      1.40990646480973
  H   1.03071521426058      1.71298554943503      0.40294838440633
  N   1.82127997971390     -0.22816128764837      0.39168488484572
  O   1.90184229413794     -0.32518153646471      1.61215889362525
  O   2.45309159670693     -0.85279261443278     -0.44684178404149
  C   -0.87006928193751     -1.13536263700503     -0.32068085386701
  H   -0.78565470219724     -1.07518659324619     -1.40570494284163
  H   -1.87876946811064     -1.46104397241041     -0.06573706596809
  H   -0.16697238705724     -1.88422919629849      0.04778797689800
  C   -1.59439355138591      1.21654580736806     -0.06342245333959
  N   -2.40778937371370      2.00208344135298     -0.37825732445314
