14
Coordinates from ORCA-job run
  C   0.96776845437490     -0.16286034203633      0.12529952549736
  C   -0.53341273767177      0.07948402386876      0.14089838351638
  F   1.31569179891451     -0.88853939918845      1.22031972393392
  H   -0.74558877398249      0.62723051305180      1.06577910335072
  H   1.32829908470972     -0.65570695828912     -0.77806965326303
  N   1.68504744786982      1.16021388362600      0.20653073630294
  O   1.56395040095114      1.77527838715110      1.26012469083833
  O   2.30332481069094      1.51150064994467     -0.79429179624297
  C   -1.30123668820042     -1.24547005851163      0.12010673596434
  H   -1.07661465986295     -1.80875222050710     -0.78804929022833
  H   -1.02837338179672     -1.84504917861431      0.98850079909111
  H   -2.37457106608592     -1.05498285385010      0.14922666233306
  C   -0.89934375496252      0.92626981024345     -0.99523035398628
  N   -1.20494093494824      1.58038374311125     -1.92114526710758
