14
Coordinates from ORCA-job run
  C   0.82234261230182      0.17035748380872      0.80210892790322
  C   -0.64315439377289     -0.04997242769973      0.44265746462169
  F   0.93253810519201      1.13716816275303      1.74169132366281
  H   -1.12892423643911     -0.29212435560815      1.39553885337746
  H   1.29569658061505     -0.74735053687554      1.15368342412811
  N   1.60276359182931      0.59478153475453     -0.41746892477911
  O   1.76129049284717      1.79248970009085     -0.60527096504317
  O   1.98186649929144     -0.33036429861025     -1.13195548149694
  C   -0.86394932531239     -1.19817925039055     -0.54696774923418
  H   -0.39050419381058     -2.11087108094557     -0.18012934193897
  H   -1.93339411220165     -1.38095502896598     -0.65721561170433
  H   -0.44815179216074     -0.96412586715937     -1.52583905678865
  C   -1.23980691833007      1.19737563921274     -0.04251107910079
  N   -1.74961291004937      2.18177032563525     -0.42832178360715
