14
Coordinates from ORCA-job run
  C   0.86650038359227      0.15201299276005      0.76129332634127
  C   -0.62140934412641     -0.02343454052365      0.47778541196061
  F   1.05508256045012      1.12461866385546      1.68217368386285
  H   -1.06644405916211     -0.24007156222289      1.45640693693422
  H   1.32722425439403     -0.77694606770017      1.09969785878574
  N   1.59836189091932      0.53751675189794     -0.50079290980939
  O   1.90926202463700     -0.40705678148680     -1.22259031381368
  O   1.78753453360287      1.72707403345585     -0.71014016131009
  C   -0.92922090388399     -1.17313292189353     -0.48672429098972
  H   -0.55765395349763     -0.96102952911621     -1.48818145447317
  H   -0.46626531572664     -2.09719018348062     -0.13534730773019
  H   -2.00821942090913     -1.32192994703004     -0.54029206282621
  C   -1.20046670904262      1.23706338709151      0.00529498906257
  N   -1.69528594124708      2.22150570439311     -0.39958370599480
