18

C	-0.55042	0.056911	-1.419594
C	0.0	0.0	0.0
Cl	0.319837	1.33252	-2.303521
H	1.088039	0.0	0.0
N	-0.159644	-1.248425	-2.183381
O	0.787559	-1.895465	-1.769557
O	-0.845337	-1.501328	-3.171997
N	-1.939688	0.309668	-1.503012
H	-2.416315	-0.458193	-1.042562
H	-2.213406	0.325561	-2.478297
N	-0.456497	-1.24647	0.691487
O	-1.354498	-1.92155	0.172526
O	0.058567	-1.496247	1.771899
C	-0.459245	1.180064	0.845273
H	-1.54287	1.1859	0.97944
H	-0.157797	2.10611	0.356834
H	0.045026	1.122169	1.809896
Br	3.460937	0.0	0.0
