18

C	-0.565294	0.004412	-1.413142
C	0.0	0.0	0.0
Cl	0.317711	1.322727	-2.3272
H	1.089797	0.0	0.0
N	-0.17694	-1.248093	-2.207257
O	0.885851	-1.771314	-1.932252
O	-0.947184	-1.574703	-3.106681
N	-1.966931	0.133681	-1.459313
H	-2.295857	-0.077812	-2.393725
H	-2.238462	1.071338	-1.196775
N	-0.444169	-1.23566	0.731511
O	-0.966775	-2.152693	0.100188
O	-0.236468	-1.250215	1.942052
C	-0.463244	1.207659	0.802145
H	-1.538225	1.172483	1.000051
H	-0.208915	2.122803	0.2675
H	0.068995	1.212245	1.751007
Br	3.456288	0.0	0.0
