18

C	-0.544391	0.045174	-1.421856
C	0.0	0.0	0.0
Cl	0.325235	1.321072	-2.306451
H	1.088053	0.0	0.0
N	-0.139021	-1.25555	-2.186473
O	-0.790951	-1.491824	-3.2019
O	0.785576	-1.916711	-1.745824
N	-1.934486	0.2907	-1.516087
H	-2.410938	-0.475783	-1.053591
H	-2.200408	0.301886	-2.493376
N	-0.455789	-1.241669	0.699049
O	-1.361913	-1.91299	0.191661
O	0.065817	-1.489587	1.776087
C	-0.462881	1.186217	0.834378
H	-0.158892	2.108858	0.341402
H	-1.546793	1.192972	0.961633
H	0.035895	1.135011	1.802006
Br	3.454414	0.0	0.0
