18

C	-0.600673	0.035177	-1.410382
C	0.0	0.0	0.0
Cl	0.304825	1.265117	-2.325644
H	1.087823	0.0	0.0
N	-0.299215	-1.306879	-2.116545
O	0.724811	-1.873385	-1.762742
O	-1.079522	-1.675065	-2.983507
N	-1.991136	0.303109	-1.560323
H	-2.193307	1.243121	-1.248772
H	-2.513797	-0.373895	-1.018208
N	-0.468003	-1.217104	0.728788
O	-1.408948	-1.864464	0.25029
O	0.072021	-1.466416	1.797811
C	-0.423205	1.198514	0.840581
H	-0.139084	2.118749	0.330232
H	0.122414	1.158191	1.783099
H	-1.497973	1.204093	1.042608
Br	3.45578	0.0	0.0
