18

C	-0.532165	0.010616	-1.430961
C	0.0	0.0	0.0
Cl	0.348982	1.258932	-2.33983
H	1.088064	0.0	0.0
N	-0.12087	-1.321137	-2.136047
O	0.81965	-1.947651	-1.674869
O	-0.779981	-1.614209	-3.130034
N	-1.919652	0.251588	-1.552213
H	-2.402958	-0.49475	-1.064394
H	-2.172463	0.222727	-2.532886
N	-0.437734	-1.242616	0.715748
O	-1.413066	-1.867288	0.275319
O	0.170948	-1.528748	1.737781
C	-0.495387	1.183099	0.817523
H	-1.581063	1.166936	0.930809
H	-0.009539	1.148716	1.793388
H	-0.204725	2.108551	0.321868
Br	3.45147	0.0	0.0
