18

C	-0.374637	0.004463	-1.48952
C	0.0	0.0	0.0
Cl	0.234277	-1.474742	-2.226793
H	1.091946	0.0	0.0
N	-1.9015	0.071476	-1.681967
O	-2.380895	1.176775	-1.433693
O	-2.52792	-0.914291	-2.030032
N	0.159843	1.12246	-2.203172
H	-0.228821	1.972914	-1.813393
H	1.167966	1.119469	-2.066612
N	-0.484784	-1.256155	0.646467
O	0.337972	-2.056655	1.075374
O	-1.711624	-1.387917	0.718795
C	-0.49285	1.168477	0.830593
H	-0.128871	2.104321	0.40704
H	-1.578074	1.198008	0.909409
H	-0.050923	1.075699	1.825804
Br	3.449138	0.0	0.0
