17
Coordinates from ORCA-job run
  C   0.74960555295462      0.18035921069736     -0.23374055045543
  C   -0.73824960706924      0.08172911684871     -0.62700362942563
  Cl  1.42411697854407      1.48134266071371     -1.36009921920470
  H   -0.81891448155598     -0.02349711705960     -1.70921403911373
  C   0.97044994415927      0.67118672521147      1.18239174775782
  H   2.04209694988781      0.72471794520355      1.38470115621145
  H   0.55441723531837      1.66849604012557      1.31287518751096
  H   0.51222473121031     -0.02794299231821      1.88428186198253
  N   1.37168614665408     -1.07741448354841     -0.42456137443591
  H   2.35320750922065     -1.04279508171811     -0.18294106418819
  H   1.27063829919885     -1.42550294223746     -1.37023378974218
  N   -1.50178673447848      1.18362880859951     -0.16897633029765
  H   -2.39680829254565      1.22819683023454     -0.63704265179505
  H   -1.65385780668016      1.12036881249034      0.82981830048624
  N   -1.25264219107260     -1.25778630254261     -0.09095474565378
  O   -1.29199404613222     -2.19760822929421     -0.87844357246952
  O   -1.59419018761372     -1.28747900140615      1.08914271283278
