17
Coordinates from ORCA-job run
  C   0.65722989543179      0.11878694441511     -0.16823934450036
  C   -0.87718805219415      0.15605105021859     -0.27532608118308
  Cl  1.30351375692275      0.52707182972178     -1.84646877056301
  H   -1.19398468095365      1.15876844337017     -0.56109436129267
  C   1.12982845421347      1.23138494714890      0.75187852772523
  H   0.79944996390202      2.20447904105062      0.38736834830856
  H   0.74402891993764      1.06258495870043      1.75858145528147
  H   2.22094252413988      1.23906682683577      0.79106905625455
  N   1.10002803765715     -1.13718215810537      0.31708630126185
  H   0.83928559791116     -1.89318122683743     -0.30372409114821
  H   2.09911489050629     -1.13996908292412      0.47534521350717
  N   -1.54401615491962     -0.29768020928715      0.89945631444085
  H   -1.90752048964075      0.45830342586373      1.45726932723012
  H   -0.95055806641757     -0.91268004992856      1.43989654782440
  N   -1.34633983522150     -0.70796009876601     -1.43259832875550
  O   -2.05318586029515     -0.17542697993462     -2.27994411095435
  O   -1.01862890097976     -1.89241766154183     -1.41055600343704
