17
Coordinates from ORCA-job run
  C   0.74111399838802      0.26430137162741     -0.23512028453654
  C   -0.75822218967074      0.05914560232390     -0.55726747957552
  Cl  1.19006557049128      1.74016031429360     -1.20868693866105
  H   -0.85611429454605     -0.09550163939857     -1.63829570009550
  C   1.00999456971541      0.56244976288233      1.22615881010292
  H   2.07773938488989      0.74605513524578      1.34852450675229
  H   0.71051757482071     -0.28955485721216      1.83990241064358
  H   0.44805354279607      1.42935238326153      1.56542505094055
  N   1.57279429943966     -0.80994551550588     -0.67561396544326
  H   1.61644387521852     -1.54764042958946      0.01469685107302
  H   1.28020912792028     -1.19128733359442     -1.56617405328611
  N   -1.59483626461081      1.06081143953391      0.02029282187852
  H   -2.53160138195837      1.01391990480631     -0.36074629845332
  H   -1.21413157170326      1.97666467396900     -0.17907631595346
  N   -1.14936408066944     -1.29868530570156      0.00541304441170
  O   -1.43499149014195     -1.38547388127300      1.19404499982406
  O   -1.10867067037922     -2.23477162566872     -0.79447745962187
