17
Coordinates from ORCA-job run
  C   0.67260804258047      0.21444297060447      0.04010873467035
  C   -0.71569594080605     -0.27701654774297     -0.40289307525994
  Cl  0.45787598472047      1.98474016295076      0.57990958742835
  H   -0.60456184365328     -1.32816810684866     -0.67558677936998
  C   1.26667994257233     -0.51975173138043      1.22456569463512
  H   1.31374867992689     -1.58686784287740      1.00007734533418
  H   0.68834860916863     -0.36898986174126      2.13249038939006
  H   2.27900043999856     -0.14772365059300      1.39672737332242
  N   1.50676037909736      0.08965363533151     -1.09311630940605
  H   2.43949392188513      0.43631727767877     -0.91231529236080
  H   1.09929412683779      0.55058743579036     -1.89699233369683
  N   -1.20203185972463      0.47921225192225     -1.49957751441177
  H   -2.00101702380868      0.03062040393648     -1.92706494703341
  H   -1.47123313034083      1.40611829550286     -1.19239613997291
  N   -1.67490175347943     -0.30628652028837      0.78795711873242
  O   -2.50659668475175      0.59156972496822      0.87330340735306
  O   -1.54777189022298     -1.24945789721359      1.56580274064574
