17
Coordinates from ORCA-job run
  C   0.71803481594015      0.21171195600181     -0.25619246572304
  C   -0.76599205270054     -0.01901992901722     -0.57227647908072
  Cl  1.16769453650951      1.62736034066961     -1.29425590688279
  H   -0.83880486225660     -0.21045395165236     -1.65000638374475
  C   1.00175771306703      0.59923497725073      1.18548861196603
  H   0.40947313924831      1.45981235843273      1.49381781295350
  H   2.06214492605106      0.83806480007739      1.28906715720225
  H   0.76152669760960     -0.24179988949068      1.83643703639341
  N   1.46853940259840     -0.91349429920696     -0.77698707026917
  H   2.44273776616878     -0.65352826013914     -0.87556608198347
  H   1.40296059395844     -1.67668082879060     -0.11317666695912
  N   -1.61888407164721      1.02121712355810     -0.05430736417728
  H   -1.29752832487813      1.91577139888295     -0.40257594667311
  H   -2.56348432137405      0.87203317083930     -0.38829150665154
  N   -1.29833917224466     -1.29753056443455      0.04608487328185
  O   -0.59915309175299     -1.96509348243864      0.80376287662789
  O   -2.45268369429709     -1.56560492054247     -0.27102249627995
