17
Coordinates from ORCA-job run
  C   0.62324102437706      0.32966435732326      0.12157792179816
  C   -0.73667757861761     -0.22533056824049     -0.39108658104443
  Cl  0.36551343557526      2.03285501922674      0.64437266360741
  H   -0.53960467072442     -1.23907697115434     -0.74661182573800
  C   1.18560935612386     -0.45820894478003      1.28839748632150
  H   1.26303894679633     -1.51708290412059      1.02435022750607
  H   2.17784356169907     -0.06890720035442      1.51704262819097
  H   0.55611179381445     -0.37632537875422      2.17217390514703
  N   1.60186553683896      0.36305628171253     -0.93754194823577
  H   1.23790938470018      0.82606677613747     -1.76116754148560
  H   1.89587964363792     -0.57781293657236     -1.17403311406438
  N   -1.41724381685447      0.50926934148643     -1.40230737285675
  H   -1.42930736900366      1.50268899393786     -1.21868102267854
  H   -1.07394150805370      0.30464993434902     -2.32748674024176
  N   -1.68115563535689     -0.41934727251013      0.77149579928100
  O   -2.42020295415065      0.51406204360710      1.06020989616818
  O   -1.60987915080169     -1.49822057129379      1.36029561832488
