17
Coordinates from ORCA-job run
  C   0.66464734617721      0.00095105361298     -0.18080962462258
  C   -0.86040392423200      0.13291391807316     -0.33373489157962
  Cl  1.33831637160973     -0.21422745825655     -1.88424623199507
  H   -1.08752623513433      1.01107206831826     -0.93763611233176
  C   1.23833623545233      1.30665669685217      0.34206314272528
  H   2.32588392181835      1.23224021334727      0.40506931866765
  H   0.84334838550080      1.50679461625190      1.33940002320084
  H   0.99573583998126      2.13383979186827     -0.32558408742307
  N   0.99472091394785     -1.06312426057388      0.69549448975554
  H   1.99052381513340     -1.10165121055969      0.86925287818670
  H   0.66353846286053     -1.95376261299222      0.34605328619380
  N   -1.56095700441586      0.14525893737364      0.90733535447984
  H   -1.85439768176265      1.06967364473837      1.17963402377016
  H   -1.02219212865016     -0.30733752609975      1.63351873847933
  N   -1.40988069887386     -1.01692696173824     -1.15947196784810
  O   -2.07070284883149     -0.72997036496663     -2.15049879235790
  O   -1.18899077058108     -2.15340054524906     -0.74683954730103
