17
Coordinates from ORCA-job run
  C   0.69881305199672      0.19949365983371     -0.31323553197428
  C   -0.81856032079602      0.05351492193187     -0.49118335859916
  Cl  1.11159456288212      1.66512660956096     -1.29560740680947
  H   -1.00667747084562     -0.05606361106726     -1.56630888770189
  C   1.14247133479968      0.47198250277037      1.11433670337700
  H   0.92591141925672     -0.40151866676478      1.72983165795837
  H   2.21854349571201      0.65681736790188      1.12466185637339
  H   0.62722986628488      1.33351329211289      1.53710178485654
  N   1.33867495021203     -0.91619011361604     -0.98145851535803
  H   1.30101375511891     -1.72155547996563     -0.36714542795529
  H   2.31022494160613     -0.69136781773940     -1.16013882870082
  N   -1.56457640739469      1.08842330143659      0.18052938624474
  H   -2.54399744010487      1.00055846193178     -0.06296183247364
  H   -1.23863393898442      1.99122913587668     -0.14146310474722
  N   -1.34881256300852     -1.24291858086761      0.09047992432170
  O   -0.61248863467067     -1.98998327047753      0.72950859509718
  O   -2.53973060206440     -1.44106171285859     -0.12794701390918
