17
Coordinates from ORCA-job run
  C   0.78351242681364      0.25116797717487     -0.22402690875087
  C   -0.72436411125217      0.07036530649326     -0.56557458891027
  Cl  1.24029262035495      1.77512891497282     -1.09415011709617
  H   -0.80413168108411     -0.17358510055568     -1.63355157858669
  C   0.99645975606627      0.44730776440365      1.26200775149781
  H   0.76424740508494     -0.47833818505488      1.79749834280506
  H   0.34909160135147      1.23545520747041      1.63992448014582
  H   2.04240469117597      0.69753465429244      1.43728687847931
  N   1.65310143321391     -0.77305353028871     -0.71941669106181
  H   1.46780953437679     -0.97553425257457     -1.69473644493572
  H   1.53094764285661     -1.62550680764648     -0.18726786053607
  N   -1.52221613792364      1.16650954592466     -0.09787308473881
  H   -2.50574367416067      0.93024969935273     -0.11205765109584
  H   -1.36133744574519      1.97529553151951     -0.68229588415502
  N   -1.19738718353670     -1.18908841143081      0.12398661262994
  O   -1.89502030221837     -1.08701399622455      1.12804198383878
  O   -0.81666657537365     -2.24689431782866     -0.37679523952945
