17
Coordinates from ORCA-job run
  C   0.80608539284038      0.13282727714103     -0.20935163024020
  C   -0.72661077554780      0.15776013670997     -0.35204643862048
  Cl  1.47371632568193      0.63361781458025     -1.80084246373884
  H   -1.03719536828703      1.12103212965278     -0.77663588570671
  C   1.21281532923169      1.18767079894571      0.81033734410986
  H   2.29693122728496      1.28836844244929      0.78231702259075
  H   0.93156245029160      0.86635150467207      1.81656100261126
  H   0.75936630383980      2.15732094202005      0.59182540999940
  N   1.39824258651565     -1.12467537556430      0.16650884590550
  H   1.21198873288912     -1.81165214005295     -0.55329208120407
  H   0.94321139379241     -1.43595921440589      1.01935867512437
  N   -1.34678739624716     -0.18260190321131      0.91507418632841
  H   -2.34139457156486     -0.31301125666067      0.76233694379351
  H   -1.24709543665576      0.59776835709581      1.55286786755238
  N   -1.28427547095878     -0.84792981093418     -1.33726034714095
  O   -0.55940114069719     -1.69817102761126     -1.84049719810186
  O   -2.49015958240898     -0.72871667482636     -1.54626125326238
