17
Coordinates from ORCA-job run
  C   0.69832594469825      0.29913129869655      0.09155175934419
  C   -0.69306739050949     -0.16652984957125     -0.40014131609487
  Cl  0.48502912388751      1.97237560331157      0.75881723470570
  H   -0.57389574709341     -1.19006323503522     -0.76398549300224
  C   1.28778407689497     -0.56822572750008      1.18579222158766
  H   0.70701277858250     -0.52035607723188      2.10352688549738
  H   2.30032669052754     -0.21534182339201      1.38511655175999
  H   1.32389021122446     -1.61128735255006      0.85821333340667
  N   1.61417599963273      0.37421213397236     -1.00901072761369
  H   2.02217858385239     -0.53495433674723     -1.18876909967178
  H   1.13543133652414      0.70895419099458     -1.83707942143744
  N   -1.18518764119646      0.67356067785518     -1.43101063945718
  H   -2.00271757589360      0.27395414993052     -1.87205066266099
  H   -1.42686016612670      1.58345665421420     -1.05777712032805
  N   -1.66296820083866     -0.31694850920693      0.77280201381891
  O   -2.48584629222583      0.57557362530536      0.95179086787550
  O   -1.54461173194036     -1.33651142304568      1.45021361227022
