17
Coordinates from ORCA-job run
  C   0.68755465942261      0.15591612841239      0.05401914046987
  C   -0.73767390180898     -0.17405428041554     -0.42099100962529
  Cl  0.61781387997810      1.86728467174303      0.78585795238055
  H   -0.71023752928721     -1.19433418661941     -0.80800728803165
  C   1.22680374865317     -0.74859075698878      1.14318959392810
  H   0.66686789042783     -0.65279256635986      2.06995281272394
  H   1.18686690281482     -1.78505492729862      0.80338776571919
  H   2.26653961572138     -0.47902610524689      1.34091165512666
  N   1.50350258016863      0.09036295651022     -1.09740938146028
  H   1.13070526070441      0.66780226208373     -1.84059592877912
  H   2.46173262855255      0.34074678991364     -0.89241662150451
  N   -1.16823254976750      0.73391652561943     -1.42181245179743
  H   -2.00264754358966      0.39910215675081     -1.88446200589775
  H   -1.36131284661991      1.63945480107396     -1.01104064118440
  N   -1.68970000762404     -0.25900546847495      0.77242241117913
  O   -1.63537962472317     -1.29020210916748      1.43920703354779
  O   -2.44520316302301      0.68747410846430      0.96878696320520
