17
Coordinates from ORCA-job run
  C   0.67615822484876     -0.00837846677852     -0.13214428104596
  C   -0.83415847276576      0.09718105407608     -0.40478445638217
  Cl  1.47151887112435     -0.35835186362250     -1.75851607262389
  H   -1.01906980495778      0.91994375800397     -1.09492522902428
  C   1.20676296444865      1.34135983752225      0.31989330749335
  H   0.73924673155100      1.62054145232650      1.26552782040084
  H   2.28696053519974      1.28188813020842      0.46781947492772
  H   1.01141441083953      2.10800940920928     -0.43041797289454
  N   0.94473554184442     -0.99278589876791      0.85180279242682
  H   0.64220670979992     -1.91226845470312      0.55504870644851
  H   1.92531125412792     -1.00783123786913      1.09985662827150
  N   -1.62321676869576      0.20683420153360      0.77715430632246
  H   -1.13730713851784     -0.17944117427330      1.57540952636059
  H   -1.93662664807845      1.14856375343546      0.94972918108334
  N   -1.31998162894409     -1.12194413950618     -1.16857486798027
  O   -1.12461108372065     -2.21860632242285     -0.64912404426020
  O   -1.91034369810381     -0.92371403837196     -2.22375481952387
