17
Coordinates from ORCA-job run
  C   0.61202566329581      0.17792377340133      0.08071528784672
  C   -0.82020349922593     -0.18557692730701     -0.37649863558661
  Cl  0.54354188126394      1.84783393200977      0.85740660682068
  H   -0.75701552508267     -1.19464279227405     -0.78589156838798
  C   1.19251858137237     -0.77224001150178      1.10857725592597
  H   1.17893294766731     -1.78878401160932      0.71050017023164
  H   0.63293943876543     -0.74915213310736      2.04050972474129
  H   2.22472369920397     -0.48544195149545      1.32249981342629
  N   1.41461495363472      0.17498426283178     -1.09657606564072
  H   2.39126008128494      0.30568520945166     -0.86326758276617
  H   1.13663527170911      0.91598967374220     -1.72775976434924
  N   -1.44568021037658      0.67678273939163     -1.31775786521915
  H   -1.15780793649084      0.48152345162142     -2.26391919815966
  H   -1.34718631524174      1.65412720691207     -1.08184774323411
  N   -1.71920982314070     -0.31631102635955      0.83050005250136
  O   -1.68732244505499     -1.39880491967286      1.41585765813300
  O   -2.39276676358409      0.65610352396544      1.14695185371671
