17
Coordinates from ORCA-job run
  C   0.73162924005986      0.25474692899653     -0.24018283261815
  C   -0.75224540287230      0.02311753215031     -0.65595470907679
  Cl  1.20741801152799      1.70943558154299     -1.22209269840659
  H   -0.77347609982837     -0.12365265026695     -1.73700377852042
  C   0.91764243671488      0.59896913037011      1.22354443972143
  H   1.97602868247665      0.79065615541904      1.40064874508139
  H   0.58928875701306     -0.22941081865142      1.85530723427569
  H   0.35566895682034      1.49113815762852      1.49595370492932
  N   1.60873187699480     -0.81721053471316     -0.60069723904648
  H   1.38937547589044     -1.20508505963786     -1.50987942947844
  H   1.59147212315546     -1.55399214628466      0.09258938894149
  N   -1.74877148095084      0.97842551322414     -0.28280286670530
  H   -1.75537400915194      1.12893029583145      0.71724486277630
  H   -1.58690965519930      1.85354063863464     -0.76212986059761
  N   -1.16197365478545     -1.30252310815025     -0.07557759658859
  O   -1.54681835582673     -1.30091077476350      1.09218484038127
  O   -1.04168690203864     -2.29517484132992     -0.79015220506853
