16

C	0.0	0.0	0.0
C	-0.528976	-0.260538	-1.407735
Br	2.037906	0.0	0.0
H	-1.608952	-0.356766	-1.22147
H	-0.228257	-0.840376	0.654492
N	-0.497367	1.181053	0.541684
H	-0.263935	2.0049	0.010526
H	-0.321801	1.303387	1.525709
C	0.000268	-1.547012	-2.017654
H	-0.588115	-1.776944	-2.907437
H	-0.084713	-2.381377	-1.315214
H	1.048371	-1.446576	-2.309605
N	-0.349134	0.849645	-2.334856
H	0.594525	1.21756	-2.273066
H	-1.017387	1.580415	-2.124311
Br	-4.035552	0.0	0.0
