16

C	0.0	0.0	0.0
C	-0.479302	0.118723	-1.45868
Br	1.969883	0.0	0.0
H	-1.567602	0.040867	-1.354019
H	-0.276707	-0.983429	0.385037
N	-0.489109	0.989441	0.911715
H	-0.39501	1.903512	0.481737
H	-1.491802	0.802751	1.007887
C	0.005345	-1.015894	-2.347554
H	-0.146064	-1.98613	-1.864601
H	-0.561326	-0.997756	-3.28058
H	1.066279	-0.909905	-2.586395
N	-0.198685	1.401688	-2.094975
H	-0.819629	2.11137	-1.726861
H	0.760819	1.679233	-1.914684
Br	-3.786674	0.0	0.0
