16

C	0.0	0.0	0.0
C	-0.378722	-0.054068	-1.518315
Br	1.965621	0.0	0.0
H	0.397605	-0.653115	-2.005067
H	-0.251481	-0.965554	0.445422
N	-0.565421	1.019001	0.82055
H	-1.540074	0.78257	1.000935
H	-0.538588	1.914976	0.351363
C	-0.385047	1.333724	-2.14137
H	-0.508606	1.23393	-3.221309
H	0.537648	1.88457	-1.935445
H	-1.241134	1.903335	-1.768399
N	-1.643298	-0.695975	-1.80197
H	-2.428584	-0.222564	-1.357705
H	-1.650823	-1.636909	-1.428706
Br	-4.379811	0.0	0.0
