12

C	-0.201213	0.044194	-1.500166
C	0.0	0.0	0.0
F	-1.530074	0.198115	-1.890331
H	1.097526	0.0	0.0
H	0.360611	0.901157	-1.879671
C	0.3162	-1.183317	-2.12305
N	0.686905	-2.175293	-2.628678
C	-0.551198	-1.187809	0.619361
N	-0.969358	-2.162372	1.127405
C	-0.490509	1.215415	0.620789
N	-0.868256	2.2172	1.106787
F	2.430265	0.0	0.0
