12

C	-0.205164	0.032664	-1.501297
C	0.0	0.0	0.0
F	-1.535813	0.189033	-1.886411
H	1.09753	0.0	0.0
H	0.357167	0.886747	-1.886941
C	0.302996	-1.198812	-2.125393
N	0.65648	-2.198666	-2.62759
C	-0.554228	-1.179088	0.632668
N	-0.979018	-2.145813	1.149998
C	-0.482861	1.226177	0.604625
N	-0.856061	2.237716	1.073235
F	2.430965	0.0	0.0
