12

C	-0.353219	0.037456	-1.489441
C	0.0	0.0	0.0
F	0.049472	-1.144249	-2.0763
H	1.0966	0.0	0.0
H	-1.431487	0.129231	-1.665189
C	0.322195	1.164201	-2.157871
N	0.774032	2.071813	-2.748691
C	-0.541816	-1.197181	0.612913
N	-0.964024	-2.177647	1.1061
C	-0.491926	1.198072	0.652434
N	-0.895093	2.175466	1.16792
F	2.434218	0.0	0.0
