12

C	-0.206382	0.030572	-1.500702
C	0.0	0.0	0.0
F	-1.537354	0.183346	-1.884439
H	1.097476	0.0	0.0
H	0.353341	0.885614	-1.88767
C	0.304645	-1.199986	-2.125315
N	0.661169	-2.200525	-2.625008
C	-0.552432	-1.17935	0.633657
N	-0.975444	-2.146637	1.151364
C	-0.486488	1.225693	0.602636
N	-0.867316	2.234658	1.070945
F	2.430772	0.0	0.0
