12

C	-0.350334	0.030827	-1.490585
C	0.0	0.0	0.0
F	0.061856	-1.150752	-2.07253
H	1.096592	0.0	0.0
H	-1.42778	0.114741	-1.669951
C	0.32012	1.15939	-2.158852
N	0.774916	2.067879	-2.745874
C	-0.542561	-1.194344	0.616591
N	-0.964371	-2.173961	1.111777
C	-0.490967	1.201545	0.646547
N	-0.893748	2.181429	1.157586
F	2.433317	0.0	0.0
