18

C	0.0	0.0	0.0
C	-0.401019	-0.051651	-1.532024
Cl	1.797236	0.0	0.0
H	0.544546	-0.093091	-2.080206
N	-0.572094	1.115142	0.67985
H	-1.604048	0.893058	0.54518
H	-0.36421	1.023142	1.670476
C	-0.320297	-1.283242	0.676397
N	-0.493581	-2.255457	1.314497
C	-1.138745	1.208347	-1.976492
H	-2.124067	1.198496	-1.511577
H	-1.237548	1.187834	-3.068256
H	-0.60024	2.113868	-1.689867
C	-1.202805	-1.299901	-1.897702
H	-2.121578	-1.28392	-1.305374
H	-0.634511	-2.216507	-1.711258
H	-1.440624	-1.267905	-2.967443
F	-2.833756	0.0	0.0
