18

C	0.0	0.0	0.0
C	-0.373271	0.210178	-1.541448
Cl	1.808092	0.0	0.0
H	0.570683	0.228161	-2.092818
N	-0.561889	0.887328	0.964131
H	-1.590646	0.676003	0.804922
H	-0.377931	1.838802	0.6623
C	-0.342782	-1.375262	0.416669
N	-0.513394	-2.495925	0.723476
C	-1.063067	1.553086	-1.74233
H	-0.427252	2.388812	-1.429866
H	-1.999173	1.531858	-1.182519
H	-1.273633	1.692494	-2.808019
C	-1.224666	-0.918014	-2.131882
H	-1.451665	-0.668729	-3.174119
H	-2.145353	-0.980704	-1.542728
H	-0.688188	-1.871441	-2.130486
F	-2.803841	0.0	0.0
