18

C	0.0	0.0	0.0
C	-0.223999	-0.106494	-1.565964
Cl	1.852633	0.0	0.0
H	0.441161	0.669749	-1.95497
N	-0.323088	1.282913	0.534183
H	0.117125	1.991469	-0.032469
H	0.076126	1.357999	1.486693
C	-0.487814	-1.114448	0.820171
N	-0.655133	-1.967588	1.607604
C	-1.561249	0.152901	-2.257679
H	-2.177645	-0.737003	-2.256953
H	-1.319812	0.429017	-3.282747
H	-2.169924	0.906839	-1.780331
C	0.302512	-1.453023	-2.117517
H	-0.234333	-2.277757	-1.652547
H	1.368973	-1.605549	-1.971317
H	0.105265	-1.493505	-3.192954
F	-2.457916	0.0	0.0
