18

C	0.0	0.0	0.0
C	-0.485269	0.025791	-1.464348
Cl	1.79918	0.0	0.0
H	-1.575455	-0.017884	-1.312145
N	-0.575367	1.096364	0.710673
H	-1.611695	0.872013	0.558017
H	-0.368666	0.986619	1.699638
C	-0.337395	-1.312396	0.609516
N	-0.547464	-2.350831	1.119117
C	-0.019994	-1.174647	-2.276876
H	1.064026	-1.170483	-2.433
H	-0.501736	-1.150113	-3.259609
H	-0.296237	-2.117398	-1.796513
C	-0.109937	1.338453	-2.142062
H	-0.427937	2.185137	-1.533758
H	0.969925	1.414613	-2.309501
H	-0.609103	1.397693	-3.115002
F	-2.816637	0.0	0.0
