14
Coordinates from ORCA-job run
  C   0.97416789665934     -0.36953688158997     -0.75360090804885
  C   -0.42998326937739      0.14915057771403     -0.43381696750084
  F   0.82933606983786     -1.63384993958201     -1.29748836142860
  H   -0.97910171386247      0.20332592146414     -1.37977209581396
  H   1.46959062951205      0.26129817435627     -1.49022842823028
  C   1.79859009010203     -0.45296540910641      0.45957165950773
  N   2.43738271759476     -0.52025686048995      1.44173613513469
  N   -0.31957707811819      1.57933465326847      0.03370464218399
  O   0.64927507250121      2.22290578786670     -0.36807965678459
  O   -1.22362416495919      2.01259275368246      0.73737533091586
  C   -1.16587129915015     -0.70166419906756      0.57782652074752
  H   -2.18981939539263     -0.35298999666204      0.69627798190050
  H   -0.67117563529005     -0.66261562462964      1.54988395257480
  H   -1.18018992005718     -1.73472895722451      0.22861019484204
