14
Coordinates from ORCA-job run
  C   0.97369994561101     -0.72742366383900     -0.06041709269453
  C   -0.28157959628585      0.08590721446072     -0.36467594251680
  F   0.95311097212283     -1.24573314153125      1.21288298937768
  H   -0.31959797071050      0.26781998886547     -1.44094392579179
  H   0.98929705297527     -1.57412163856456     -0.75576525961516
  C   2.19792791912421      0.06060486445676     -0.25998295100033
  N   3.17027935667279      0.68379188456725     -0.46861473957848
  N   -0.20074642591930      1.44889946970567      0.25530351363391
  O   0.21432358349335      1.50910967817127      1.40944425653359
  O   -0.59967725440201      2.38862844048220     -0.42728143414674
  C   -1.54266384846771     -0.59736233487907      0.13546587199015
  H   -2.41771002967689     -0.00819073640088     -0.14261065899970
  H   -1.63452864949561     -1.58918940359591     -0.31178274290899
  H   -1.50413505504161     -0.70274062189867      1.21897811571721
