14
Coordinates from ORCA-job run
  C   1.18320416261044      0.00366790017867     -0.28723978135309
  C   -0.33248326694737      0.09201791393174     -0.34087047067045
  F   1.70892050983772      0.61872104207643     -1.40564532594242
  H   -0.68648043940780     -0.30135084517651     -1.29491362520282
  H   1.55760580897902      0.53058080331419      0.59369046866705
  C   1.60835135792781     -1.40113242991796     -0.25642551102348
  N   1.92763018560200     -2.53003406877409     -0.21989967309758
  N   -0.69240648444914      1.55111156848280     -0.35603581042948
  O   -1.50764668645274      1.91426590116185     -1.19691880953771
  O   -0.17433125557313      2.25582604172297      0.50640791002202
  C   -1.01644505179644     -0.56228675559171      0.84621804436388
  H   -0.64787906096362     -0.13785156975341      1.78181123864438
  H   -0.83357226071877     -1.63774333874016      0.84352709781537
  H   -2.09346751864798     -0.39779216291482      0.78629424774435
