14
Coordinates from ORCA-job run
  C   0.97948139805762     -0.65483261390115     -0.29749834588596
  C   -0.34309073615849      0.10027672759950     -0.27658595084937
  F   1.27246342867366     -1.19651677313576      0.93247384863140
  H   -0.61328976763657      0.35157307729952     -1.30552555862622
  H   0.86215612890050     -1.48852394106471     -0.99937392501788
  C   2.09415738977515      0.18040552094078     -0.76560631279801
  N   2.96839252117564      0.82679235979871     -1.20692736584632
  N   -0.21794416630789      1.42357071468782      0.42428056340951
  O   0.67958715737159      1.55212280103889      1.25221960390540
  O   -1.07207220070589      2.25803633315574      0.14021204768173
  C   -1.44889334175109     -0.69136152981490      0.40298388300825
  H   -2.38713521816856     -0.14006185614178      0.34162811163066
  H   -1.19633288237093     -0.86452071469449      1.44908919674943
  H   -1.57647971085474     -1.65696010576819     -0.09036979599263
