14
Coordinates from ORCA-job run
  C   0.96868589759323     -0.41513065759419     -0.73524644647390
  C   -0.42655153773352      0.14093516239352     -0.44033630094681
  F   0.80270817488450     -1.69637201687371     -1.23121256559943
  H   -0.96996393556220      0.17202328452217     -1.39062185404050
  H   1.47723262205136      0.17844610980350     -1.49355196791121
  C   1.78873526172421     -0.46736322625053      0.48259265150900
  N   2.42549599581503     -0.50817892022951      1.46758839743462
  N   -0.28844313169620      1.58494783842882     -0.02447419803164
  O   -1.17087903157777      2.05523973294719      0.68272305954176
  O   0.68067048064594      2.19985238746230     -0.46791118617689
  C   -1.18282591047319     -0.65882484221406      0.59712520303778
  H   -2.19900476051043     -0.28381888428870      0.70105405429540
  H   -0.68948512743800     -0.59825889223567      1.56872639146491
  H   -1.21937499772295     -1.70249707587115      0.28254476189691
