14
Coordinates from ORCA-job run
  C   1.07556045601467     -0.36553791955404     -0.61253284106495
  C   -0.35263140418967      0.16644507569265     -0.49187522904546
  F   0.98920799334664     -1.58958105104246     -1.25618986522276
  H   -0.77389416896855      0.20312597556811     -1.50113661531587
  H   1.69310288110803      0.29440075264921     -1.22205446204714
  C   1.70622101477141     -0.55892640495798      0.69929012100756
  N   2.19301685613236     -0.73849754337276      1.75182676007710
  N   -0.32388569087463      1.59488031676337     -0.02436343885506
  O   -1.41135878791469      2.13410932516991      0.14139312852170
  O   0.77566017373632      2.12234449827213      0.14230992034881
  C   -1.23094021694864     -0.66013534978794      0.42620126003712
  H   -1.21131361671463     -1.70069260310776      0.09980751985840
  H   -2.25624534809965     -0.29591472736041      0.39060336362375
  H   -0.87150014139895     -0.60702034493203      1.45572037807681
