14
Coordinates from ORCA-job run
  C   1.19034789090120     -0.12153059962536     -0.22691117239445
  C   -0.30842505544863      0.08673268135274     -0.36314505323799
  F   1.81361005921797      0.33932107608109     -1.36910877416231
  H   -0.65484604313511     -0.36508472563314     -1.29375213893948
  H   1.57302885174030      0.45248526267563      0.62044521216224
  C   1.48838214443354     -1.54829525154277     -0.05019479521946
  N   1.70280231725705     -2.69273909915784      0.09758825566229
  N   -0.54006662344188      1.56252779420318     -0.52910217138665
  O   0.00719140214518      2.30229600481212      0.28445779347769
  O   -1.29246057747459      1.90845677467294     -1.43364999194408
  C   -1.09469180832800     -0.39231524330660      0.84401082914869
  H   -2.15091182872344     -0.15076881735331      0.71480623671584
  H   -0.73255271768198      0.09260004989234      1.75240629878524
  H   -1.00140801146163     -1.47368590707101      0.95314947133243
