14
Coordinates from ORCA-job run
  C   0.97973638113663     -0.36091758047117     -0.72561599449584
  C   -0.43823447540833      0.14147800037042     -0.43905183054335
  F   0.87789777733548     -1.61483713541540     -1.29609907547527
  H   -0.94931637278898      0.20858999414906     -1.40288445939955
  H   1.47588000116833      0.29996923781711     -1.43826799054475
  C   1.77365716214505     -0.44951351358666      0.50757617610672
  N   2.39683421454390     -0.50958588624444      1.50042476260839
  N   -0.29496558976002      1.57034493460422      0.02091772332770
  O   0.21712256632072      2.33865895208251     -0.79165692925854
  O   -0.67643505968908      1.86429408855649      1.14851254636605
  C   -1.19654515208090     -0.71029729054069      0.54918370485822
  H   -1.26467023463338     -1.72610173267848      0.15791656560039
  H   -2.20423871955436     -0.32183660683454      0.69164493252721
  H   -0.69772249873506     -0.73224546180843      1.51739986832262
