14
Coordinates from ORCA-job run
  C   0.97494816859737     -0.65636617544839     -0.18112047654972
  C   -0.33790253365966      0.11428920185320     -0.30897223903449
  F   1.15042322549956     -1.09835288010819      1.11141425468518
  H   -0.45528996016566      0.40994201231024     -1.35356718952627
  H   0.91594151623846     -1.53669332455741     -0.83023181800106
  C   2.13852078927599      0.14770279144646     -0.58072877449038
  N   3.07461327092158      0.77040426778986     -0.91762609939075
  N   -0.21007288236007      1.40915646368848      0.44391694675188
  O   -0.39250718746724      1.37282264717434      1.65742334120437
  O   0.09434990452810      2.40019222674274     -0.21714887268419
  C   -1.51809478479435     -0.68504876374796      0.20330373922369
  H   -1.62813183521101     -1.59744326469280     -0.38726590008264
  H   -1.37262324875352     -0.94850830163952      1.24859918572414
  H   -2.43617444264954     -0.10309690081106      0.11100390217023
