14
Coordinates from ORCA-job run
  C   1.13341917101282     -0.12917367835385     -0.42628226438866
  C   -0.36934662787805      0.06230062629774     -0.30897484772893
  F   1.53873541390411      0.25848320527695     -1.68712131799739
  H   -0.86589332810520     -0.44885527020451     -1.13501676668000
  H   1.64926078942933      0.50076977740785      0.30266336336341
  C   1.48156341964906     -1.53936811582951     -0.21214230975575
  N   1.73798376099587     -2.66931191799991     -0.02472886356333
  N   -0.64912029705251      1.52353973226647     -0.52162637494437
  O   0.01327443563760      2.31450065654269      0.14510717811769
  O   -1.54391904390835      1.80976337537645     -1.30997924444446
  C   -0.92379753481425     -0.34451935778429      1.04446685424096
  H   -0.80147652154540     -1.41769332796596      1.19694905518419
  H   -0.41112467614363      0.19224299583911      1.84473279715581
  H   -1.98855896118137     -0.11067870086923      1.09195274144083
