14
Coordinates from ORCA-job run
  C   1.07335685700472     -0.40905649326602     -0.58794125043276
  C   -0.33843816830786      0.17090780750106     -0.50001320119530
  F   0.95774146083823     -1.63878268483862     -1.21623488829208
  H   -0.74082222362560      0.20654058145011     -1.51697522083979
  H   1.72267145261984      0.22138447603543     -1.19571802826434
  C   1.67452120774059     -0.60450455003712      0.73726718270224
  N   2.13655514607140     -0.78550242220581      1.80073205833592
  N   -0.27074450671443      1.60446322418861     -0.05251547812466
  O   0.84249260426823      2.09774175907560      0.12749850086876
  O   -1.34260109446718      2.18173849163326      0.08438385245433
  C   -1.25938720500608     -0.61295551559360      0.41363808276429
  H   -1.26752689213744     -1.65837272375097      0.10260557279591
  H   -2.27150155589669     -0.21646461895208      0.35340495643184
  H   -0.91731708238772     -0.55613733123986      1.44886786079565
