14
Coordinates from ORCA-job run
  C   0.97497301568849     -0.40485309984113     -0.70917808417246
  C   -0.43448136772765      0.13200463607100     -0.44518058759524
  F   0.85202883750789     -1.67660487151443     -1.23435361484993
  H   -0.94339499269152      0.16881914997861     -1.41197038859881
  H   1.48493889853116      0.22063809409024     -1.44375598654375
  C   1.76467895973636     -0.46222888392653      0.52859758425298
  N   2.38375350603371     -0.49469729382251      1.52534735816244
  N   -0.26950871034734      1.57574755967590     -0.04126185326772
  O   -0.65990764347303      1.92219791116236      1.06826197942973
  O   0.26676907312247      2.30087217721556     -0.87772001478595
  C   -1.20783664044695     -0.66779340502378      0.57443055471088
  H   -2.21401882459113     -0.26564996993028      0.69068790475407
  H   -1.28044413267122     -1.70024898581444      0.22908793486700
  H   -0.71654997867123     -0.64920301832055      1.54700721363676
