15
Coordinates from ORCA-job run
  C   0.34890763872519      0.64125535242616      0.22819606307654
  C   -0.25691134483100     -0.67872871931214     -0.30948342252511
  F   -0.57826532060458      1.64571264830881      0.06883226015318
  H   0.51941717801068     -1.44596261471102     -0.30564832048599
  N   1.46780901408628      0.96987124077451     -0.61266325439571
  H   2.23785779054821      0.33107649884283     -0.44769251246797
  H   1.78343338489452      1.91040776197294     -0.39997235529493
  C   0.68051791576243      0.57292887906240      1.66957440467195
  N   1.02403455930431      0.51914692689625      2.79229838133507
  N   -0.86095498243937     -0.56534568186809     -1.59659946368531
  H   -1.57861586691223      0.14955908551691     -1.56600008097682
  H   -0.15415036705879     -0.28620665953637     -2.26592918414558
  N   -1.29391540781680     -1.14893520189102      0.66880831523747
  O   -0.93208331618989     -1.97118075675851      1.50652003201380
  O   -2.40708087547895     -0.64259875972366      0.57075913748942
