15
Coordinates from ORCA-job run
  C   0.27140342165285      0.66385784041132      0.26423138802163
  C   -0.17614104754926     -0.68629496191960     -0.34856533308890
  F   -0.77626340216115      1.55243251953127      0.17762543121450
  H   0.68819317746388     -1.35088207804587     -0.39900202007200
  N   1.32563996846708      1.18057175126934     -0.56560318875082
  H   2.17315192744221      0.63698725446864     -0.44511183124769
  H   1.52242158042990      2.13989585732941     -0.30053420258512
  C   0.63458997674153      0.54969468490373      1.69520077052900
  N   1.00038640721764      0.47278675613002      2.80949085416674
  N   -0.81021376283915     -0.57164413497465     -1.62091097034184
  H   -0.15348478323291     -0.16888605957591     -2.27819580392672
  H   -1.60977977123298      0.04588236351460     -1.54146737228736
  N   -1.13154342828163     -1.33828231990034      0.60862903392703
  O   -2.30009295915514     -0.96938882142404      0.55108811786579
  O   -0.65726730496288     -2.15673065171790      1.39212512657575
