13
Coordinates from ORCA-job run
  C   0.67357549339161     -0.20086249138682     -0.33601024997563
  C   -0.77586206115936     -0.50092562508380      0.09988167296682
  Br  0.67351840318315      0.59405373307035     -2.11081686740059
  H   -0.71940945369975     -0.97496020568627      1.09010141713790
  H   1.18927775308283     -1.15780197487711     -0.44245207421352
  C   1.38423244721986      0.70160131059714      0.65505282946386
  H   2.41986682289028      0.85338073683936      0.34993377450416
  H   0.89744976383521      1.67646820625583      0.71588115035529
  H   1.38098042742258      0.24066491595431      1.64800981028732
  C   -1.44033328200009     -1.44654738914799     -0.80236703751229
  N   -1.94891928694951     -2.23690120939871     -1.50572848294929
  C   -1.56361918903200      0.72789789077998      0.24433862805697
  N   -2.16975783818481      1.72193210208373      0.39417542927902
