13
Coordinates from ORCA-job run
  C   0.67614733593980     -0.29214098620496     -0.18243273830570
  C   -0.85228438405990     -0.12939878171828     -0.34282802553567
  Br  1.43580764602414     -0.55172589025040     -1.95805207436356
  H   -1.03822566562189      0.72578544265057     -1.00452717461566
  H   0.87895690240426     -1.21525531739488      0.36416663768805
  C   1.31380426734945      0.90689843365214      0.49377532154160
  H   0.92463574855786      1.02071629180968      1.50856383625856
  H   1.11249846453587      1.82136697199578     -0.06873421229143
  H   2.39414400388838      0.77282996637675      0.55230859395478
  C   -1.46935425539422      0.14935772603728      0.96066320816741
  N   -1.92908346255364      0.38288278964901      2.01564682356415
  C   -1.47467430334409     -1.31709818180061     -0.93777838250979
  N   -1.97237229772601     -2.27421846480207     -1.40077181355273
