13
Coordinates from ORCA-job run
  C   0.63209110793291     -0.02057730058387     -0.62894532441712
  C   -0.88769278778716     -0.27529126825532     -0.50795867441663
  Br  0.90041534926191      1.40679283291935     -1.92758007069774
  H   -1.29819181363738     -0.44672092114434     -1.50956664703393
  H   1.07923592262437     -0.91037146579891     -1.07705768580997
  C   1.28782398166061      0.32105165530867      0.69389114561254
  H   2.36022050624372      0.46177781683171      0.55571828312099
  H   1.13581754611953     -0.49495531910351      1.40632566088765
  H   0.87015507791636      1.23925044553092      1.11061541039807
  C   -1.58427763419665      0.87121697451844      0.08554346154459
  N   -2.12869663450211      1.79197770694194      0.56913454898908
  C   -1.11682047783528     -1.48143267937130      0.29832936534047
  N   -1.25208014380086     -2.46171847779378      0.93055052648199
