13
Coordinates from ORCA-job run
  C   0.68714376700308     -0.21059402493910     -0.30251732669947
  C   -0.79184114437840     -0.48213851903300      0.04276241337981
  Br  0.80891527215286      0.62805853669486     -2.05284895417983
  H   -0.80437372742899     -0.98167373919378      1.02192383672329
  H   1.18401096244161     -1.17787365818448     -0.40491144337835
  C   1.36232318696740      0.64795238599274      0.75053457712227
  H   1.28956829120669      0.16373816673903      1.72966871862808
  H   0.89803959829429      1.63399311454881      0.80819620337877
  H   2.41749277619538      0.77892870419019      0.50923919912791
  C   -1.42814841409352     -1.38608066106767     -0.92042560907873
  N   -1.91397138858751     -2.14069490478039     -1.67710497129964
  C   -1.55586183151148      0.76309380903377      0.17462408769604
  N   -2.15329734826140      1.76329078999903      0.31885926857985
