13
Coordinates from ORCA-job run
  C   0.65964698709012     -0.01536706128252     -0.60015882846939
  C   -0.86509692975745     -0.26470564056056     -0.55094791862366
  Br  0.99216304812935      1.42581346153864     -1.86833030303638
  H   -1.23101515363006     -0.42016755373113     -1.57222661785469
  H   1.12302886138719     -0.90194490990707     -1.03804009127454
  C   1.25620348844365      0.30803328561430      0.75487455002959
  H   0.82516901638143      1.22431403500447      1.16208752030083
  H   2.33453641193547      0.44369371476242      0.66726057726115
  H   1.06711684547988     -0.51450233504484      1.45072592478674
  C   -1.58285643299224      0.87630147688862      0.02768014136696
  N   -2.14545270215303      1.79101634207361      0.50181107079674
  C   -1.13421318154952     -1.48126507538532      0.22680557275505
  N   -1.29923025876478     -2.47121973997063      0.83645840196160
