13
Coordinates from ORCA-job run
  C   0.54347257948213      0.21718632543609     -0.48341215531580
  C   -0.91526705871714      0.14868541239158      0.02228895881394
  Br  0.81518004111686      1.97502263747101     -1.27852397503084
  H   -1.06567099306279      0.95964036791748      0.74590779202592
  H   0.66992857310260     -0.49914149617007     -1.29754201055548
  C   1.54815377593759     -0.02020905138405      0.62829123580651
  H   1.41273080463818      0.70518295697386      1.43385605253327
  H   2.56334623705694      0.08183128685867      0.24379542189074
  H   1.43239306540840     -1.02840675544122      1.03402794605302
  C   -1.15276534298945     -1.13090058010149      0.70346320891937
  N   -1.30464919509838     -2.15792718139340      1.25215372084629
  C   -1.88547454067338      0.31496996387089     -1.06532166355236
  N   -2.66037794620155      0.43506611357062     -1.93898453243458
