13
Coordinates from ORCA-job run
  C   0.68541061852528     -0.27327209749088     -0.17957919707195
  C   -0.84895827802855     -0.17103734424409     -0.33224113696034
  Br  1.44189662736128     -0.55231527112596     -1.95351820480220
  H   -1.07064018479918      0.65774264693961     -1.01619431854209
  H   0.92603629712564     -1.17319652776959      0.38984917398638
  C   1.28278423347177      0.96621228919806      0.45964888849082
  H   1.04159009687124      1.85761016776590     -0.12374685238058
  H   0.89853643912006      1.09107474372322      1.47497704046146
  H   2.36792792363204      0.87484923907587      0.51102241149813
  C   -1.46674070319268      0.12285765794218      0.96752232620215
  N   -1.92603222000457      0.37514256017245      2.01839632764937
  C   -1.43232841334883     -1.39586924674334     -0.89023505224450
  N   -1.90048243673351     -2.37979881744343     -1.32690140628665
