13
Coordinates from ORCA-job run
  C   0.64897301593005     -0.14462500643448     -0.40647577814000
  C   -0.77459622729040     -0.50836575892028      0.06454011447167
  Br  0.54980877330566      0.93404371206719     -2.02150221340608
  H   -0.66372715263752     -1.14072887471075      0.95689864916033
  H   1.14421575671726     -1.07208242485164     -0.70235471857737
  C   1.43165407374636      0.57850975317342      0.67346303030243
  H   0.96237650989714      1.53093131611007      0.92581119739203
  H   1.48394372742358     -0.04110377588313      1.57441758791909
  H   2.44827627621961      0.77633449102165      0.33283115549728
  C   -1.50698279604564     -1.28810921782942     -0.93818766787470
  N   -2.07075110603256     -1.94644728914783     -1.72982284149364
  C   -1.53533563915089      0.68168976523841      0.46033991667095
  N   -2.11885521208264      1.63795331016681      0.81104156807802
