13
Coordinates from ORCA-job run
  C   0.63666885942008     -0.01192447238683     -0.62461879695350
  C   -0.89090667753528     -0.22511107887038     -0.52549979645973
  Br  0.95866146323915      1.46267579270567     -1.85694752863852
  H   -1.29916112516606     -0.33556090700718     -1.53644637075609
  H   1.06085952865895     -0.89415296902300     -1.10862422032383
  C   1.29147074866625      0.25197484160790      0.71650053286572
  H   1.10373952222493     -0.58586636102434      1.39453222640780
  H   0.90258307281225      1.16712252585211      1.16690590339409
  H   2.36933860538939      0.35964887985298      0.59225792265323
  C   -1.55686281721449      0.91273905443719      0.11760440719863
  N   -2.07838462017665      1.82621033686388      0.63879333874229
  C   -1.16333638701328     -1.46043886259774      0.22078924749775
  N   -1.33467017330522     -2.46531678041027      0.80375313437215
