13
Coordinates from ORCA-job run
  C   0.64948664494462      0.00222845661243     -0.61075852827326
  C   -0.87371327674365     -0.25317978887774     -0.54408979991631
  Br  0.95867359533970      1.47668623824385     -1.84635042127545
  H   -1.25603757350977     -0.38148886619425     -1.56308735520602
  H   1.10839718442494     -0.87136661970120     -1.07849568354200
  C   1.26617012836505      0.29308410006985      0.74276604800568
  H   1.08631575433834     -0.54509995619179      1.42233647376270
  H   0.84216034719282      1.20019113331010      1.17717875440500
  H   2.34325561686191      0.42983989571874      0.64219832685357
  C   -1.58472950115087      0.86912909138268      0.07750795447647
  N   -2.13947430972478      1.77012369612625      0.58575130152099
  C   -1.12597198862753     -1.49162506351555      0.20410816756012
  N   -1.27653262171077     -2.49752231698339      0.79093476162851
