13
Coordinates from ORCA-job run
  C   0.66630138565193     -0.16502686478534     -0.36927514523435
  C   -0.79340897471753     -0.48237102449637      0.01756877892526
  Br  0.69594862767400      0.92157296767844     -1.98180322986750
  H   -0.75505734311733     -1.12117704794686      0.91140884980191
  H   1.14634566997253     -1.10772634750764     -0.64108788630021
  C   1.40941992768028      0.52796757710309      0.75731266937246
  H   0.95780168826321      1.49432952159473      0.98795709779194
  H   2.44967866129718      0.69368381436109      0.47605193225728
  H   1.39031790570186     -0.09650367627696      1.65621991183305
  C   -1.49263344997346     -1.23268063074126     -1.03012452282025
  N   -2.03155353737348     -1.86740025831399     -1.85762388551200
  C   -1.53523088770471      0.73125861702544      0.37596485455925
  N   -2.10592967335449      1.70507335230563      0.69843057519317
