13
Coordinates from ORCA-job run
  C   0.63928059328226     -0.13255058739181     -0.42633866685274
  C   -0.78970301855572     -0.48720680455834      0.03494673558037
  Br  0.55638544011250      1.07438202026891     -1.94894168678553
  H   -0.68913151245236     -1.19307449073776      0.87162657402380
  H   1.10006382342601     -1.04870466629716     -0.80227990218310
  C   1.45826987227832      0.47685022859429      0.69599183516383
  H   1.50003686050133     -0.21342394291353      1.54467421451577
  H   2.47698875686510      0.66770936479298      0.35751705748178
  H   1.02424185368436      1.42121325484965      1.02903347319273
  C   -1.56022756528935     -1.15850395187927     -1.01646769270549
  N   -2.15592033872603     -1.73044343356770     -1.85079805908090
  C   -1.50546181279376      0.69070682693805      0.53685478234142
  N   -2.05282295233267      1.63304618190169      0.97318133530804
