13
Coordinates from ORCA-job run
  C   0.64152476814857     -0.01230308874765     -0.61872687178470
  C   -0.88150814429331     -0.25792654532267     -0.52491648901952
  Br  0.93891329197742      1.43868793135949     -1.88454919302458
  H   -1.27833798453713     -0.40359265791353     -1.53619510850059
  H   1.08880401880234     -0.89646735032613     -1.07776542665499
  C   1.28047397530408      0.29806416614910      0.71990444045734
  H   0.86287433946945      1.21028760648946      1.14947496635811
  H   2.35554655488907      0.43465229353676      0.59973545560517
  H   1.11329919274653     -0.53142099559798      1.41303651790386
  C   -1.57922709680170      0.88060869213387      0.08235810198330
  N   -2.12558257363745      1.79522901348564      0.57526756566887
  C   -1.13176401601245     -1.48085169542841      0.24911773017547
  N   -1.28501632605543     -2.47596736981795      0.85325831083227
