12

C	0.0	0.0	0.0
C	-0.482151	-0.21443	-1.434967
Br	1.949052	0.0	0.0
H	-1.22714	-0.996726	-1.478274
H	-0.330796	0.962999	0.366999
H	0.348978	-0.395814	-2.125533
C	-0.443637	-1.07218	0.885128
N	-0.561032	-1.988669	1.61351
N	-1.158125	0.997481	-1.979019
O	-0.837478	2.10016	-1.547849
O	-1.910847	0.809274	-2.92931
F	-2.340481	0.0	0.0
