12

C	0.0	0.0	0.0
C	-0.477445	-0.404413	-1.396312
Br	1.949667	0.0	0.0
H	0.361144	-0.612691	-2.070474
H	-0.318978	1.011601	0.216644
H	-1.17127	-1.232061	-1.35074
C	-0.466582	-0.920299	1.029019
N	-0.53577	-1.744571	1.86652
N	-1.22108	0.697675	-2.069956
O	-2.001789	0.358984	-2.952523
O	-0.915972	1.858231	-1.813412
F	-2.330803	0.0	0.0
