12

C	0.0	0.0	0.0
C	-0.204186	-0.184728	-1.519778
Br	1.942527	0.0	0.0
H	0.184759	-1.167122	-1.784731
H	-0.361641	0.94451	0.378627
H	0.371924	0.582105	-2.034557
C	-0.439349	-1.129758	0.802651
N	-0.506705	-2.104499	1.458186
N	-1.550985	-0.123727	-2.163734
O	-2.056564	-1.197166	-2.47366
O	-1.947165	0.977062	-2.534411
F	-2.242254	0.0	0.0
