12

C	0.0	0.0	0.0
C	-0.505725	0.19617	-1.433266
Br	1.938815	0.0	0.0
H	0.017008	1.041637	-1.883851
H	-0.362914	0.850556	0.568723
H	-1.597271	0.307649	-1.279142
C	-0.482669	-1.215404	0.648178
N	-0.640685	-2.218231	1.239251
N	-0.266419	-0.964915	-2.341277
O	0.892796	-1.331252	-2.547129
O	-1.25222	-1.463131	-2.882987
F	-2.551727	0.0	0.0
