12

C	0.0	0.0	0.0
C	-0.478565	0.233019	-1.423292
Br	1.93672	0.0	0.0
H	-1.59404	0.161081	-1.261194
H	-0.354097	0.841829	0.588548
H	-0.125186	1.197234	-1.783684
C	-0.464344	-1.228746	0.639818
N	-0.623088	-2.216188	1.25643
N	0.020268	-0.771886	-2.377319
O	0.50708	-0.365891	-3.437349
O	-0.115364	-1.959906	-2.084476
F	-2.53504	0.0	0.0
