12

C	0.0	0.0	0.0
C	-0.480297	-0.491023	-1.366094
Br	1.951184	0.0	0.0
H	-1.207185	-1.284665	-1.262706
H	-0.321431	1.020561	0.165191
H	0.355182	-0.778977	-2.014744
C	-0.445792	-0.859573	1.089958
N	-0.557345	-1.583837	2.009518
N	-1.177761	0.587441	-2.123631
O	-1.957975	0.218684	-2.994819
O	-0.836678	1.750631	-1.936262
F	-2.330407	0.0	0.0
