12

C	0.0	0.0	0.0
C	-0.570601	-0.048335	-1.39527
Br	1.942716	0.0	0.0
H	-0.28961	0.839237	-1.958818
H	-0.332479	0.940759	0.434193
H	-1.710759	-0.088855	-1.082953
C	-0.425493	-1.076571	0.897026
N	-0.604037	-1.912369	1.702575
N	-0.126275	-1.205163	-2.170997
O	0.173439	-1.021972	-3.356553
O	-0.117278	-2.307017	-1.619839
F	-2.640655	0.0	0.0
