18

C	0.0	0.0	0.0
C	-0.530331	-0.059939	-1.430672
F	1.386677	0.0	0.0
H	-1.638976	-0.065896	-1.288699
C	-0.397294	1.30218	0.582074
N	-0.520186	2.368645	1.059439
C	-0.498032	-1.136888	0.862297
H	-0.156121	-0.988622	1.889292
H	-1.597371	-1.104764	0.805818
H	-0.108895	-2.083254	0.484087
N	-0.135706	-1.377836	-2.015014
O	-0.907153	-2.326046	-1.864351
O	0.941197	-1.447252	-2.616841
C	-0.001436	1.059094	-2.304016
H	-0.394231	2.010463	-1.941155
H	-0.329324	0.922402	-3.336492
H	1.088202	1.084873	-2.287865
H	-3.086529	0.0	0.0
