18

C	0.0	0.0	0.0
C	-0.327639	0.062835	-1.512163
F	1.390842	0.0	0.0
H	-0.088	-0.926041	-1.90957
C	-0.395958	1.224162	0.723566
N	-0.626908	2.173187	1.375223
C	-0.611815	-1.214327	0.646619
H	-0.309104	-2.115161	0.107405
H	-1.707656	-1.090543	0.609188
H	-0.286059	-1.284776	1.686854
N	0.699861	0.952475	-2.165572
O	0.743828	2.126564	-1.808491
O	1.406952	0.454463	-3.042896
C	-1.69903	0.533135	-1.923477
H	-2.508747	0.086902	-1.300866
H	-1.847434	0.31826	-2.987106
H	-1.783757	1.608026	-1.754754
H	-3.70627	0.0	0.0
