17
Coordinates from ORCA-job run
  C   0.53987874655362     -0.33325661118899      0.60222795348021
  C   -0.59013225647893     -0.06370603760632     -0.39798900327039
  H   0.33122143725101      0.25359329374796      1.50277028267259
  H   -0.50336182826146     -0.73138298969361     -1.25758023296908
  C   1.91282620280262      0.04461431690479      0.03642931187601
  H   2.69922367129288     -0.25147811852175      0.73211095611126
  H   1.98362275514903      1.12216975209179     -0.11492704502581
  H   2.09300169683744     -0.46071165593037     -0.91532150597909
  C   0.52319133728718     -1.74937225371957      0.98263631771051
  N   0.52629925487243     -2.89037140876815      1.26064286135692
  C   -0.69209379422918      1.38977864197484     -0.82773868359433
  H   0.16504067229763      1.66859239288019     -1.44117272741774
  H   -1.59377326474459      1.53835978313847     -1.42561220167007
  H   -0.73895476067869      2.04343971499426      0.04530313109941
  N   -1.89287927981185     -0.44271127725311      0.24822770616693
  O   -2.13601629232687      0.07204996277813      1.33780514110148
  O   -2.62809429781227     -1.20860750582856     -0.36881226164881
