17
Coordinates from ORCA-job run
  C   0.86775631167122      0.07669374915448      0.27493912520119
  C   -0.38974816990094      0.45317012077987     -0.52585097109423
  H   1.53364163709383      0.94564949618657      0.19822059498341
  H   -0.07662333270720      0.72449723490503     -1.53592895643294
  C   1.58481676469093     -1.15210035763213     -0.29426288424518
  H   1.76710854016263     -1.02116404341680     -1.36299344402952
  H   0.98372561042405     -2.05172449322471     -0.15275570405864
  H   2.54051365287731     -1.29911957236736      0.21070442490328
  C   0.57674799898834     -0.10435768199691      1.70026755420051
  N   0.38297310640690     -0.24490657570811      2.84982063760900
  C   -1.23255793439453      1.53799470551847      0.11308497505638
  H   -0.63054343888811      2.44062868122483      0.24224608958043
  H   -2.08637981983616      1.78273417988628     -0.52201275616091
  H   -1.59868637847654      1.21530483537385      1.08753370156646
  N   -1.21249724140232     -0.78649133265400     -0.71661434310615
  O   -1.21127804857407     -1.29449528628329     -1.83715912751145
  O   -1.79896925813535     -1.22331365974606      0.27076108353836
