17
Coordinates from ORCA-job run
  C   0.55908360784186     -0.34538554426631      0.57828533558701
  C   -0.60857689742899     -0.04889652539793     -0.36986589480217
  H   0.40856126816912      0.25012597960760      1.48466047083151
  H   -0.57825339220863     -0.72044444481981     -1.23034881824373
  C   1.91375146462318     -0.00662484945805     -0.05269655456655
  H   2.00573864989607      1.06790970557450     -0.21348529852750
  H   2.03617758758573     -0.52086028488071     -1.00879906647408
  H   2.72378203698777     -0.32011327621865      0.60731196868826
  C   0.52136726249790     -1.75929440952806      0.96536413715164
  N   0.49570311129471     -2.89900400276348      1.24742774099339
  C   -0.69240005173001      1.40578212777119     -0.79958428604507
  H   0.14194642062342      1.66009836491843     -1.45371447988454
  H   -0.68115290018220      2.06264853807050      0.07224340882496
  H   -1.61692268755239      1.57675200675385     -1.35514245196935
  N   -1.88932651283929     -0.39272901857902      0.33681343150889
  O   -2.67223775718539     -1.13975457785389     -0.24361477310733
  O   -2.06824121039285      0.12979021106984      1.43514513003467
