17
Coordinates from ORCA-job run
  C   0.55341303973934     -0.33996639905864      0.58627613753088
  C   -0.60619468256020     -0.05262330266454     -0.37429710328407
  H   0.39434993087338      0.26244047580316      1.48669921391791
  H   -0.56867674811509     -0.73213174993614     -1.22814778101379
  C   1.91331943476946     -0.00504422707116     -0.03542919039478
  H   2.71769793472651     -0.31528303507612      0.63301539798059
  H   2.04359425560735     -0.52447790094850     -0.98782210476871
  H   2.00703625646727      1.06870339212248     -0.20119035197387
  C   0.51502181309959     -1.75088159146973      0.98445359319968
  N   0.50064522194011     -2.88855551682423      1.27530792005555
  C   -0.68715659900491      1.39760020499431     -0.81900449702050
  H   -0.68741786610708      2.06324920659293      0.04614033832866
  H   0.15483156371449      1.64717565330437     -1.46508257365128
  H   -1.60511780747979      1.56079790270695     -1.38748840553450
  N   -1.89299971697173     -0.39013397474662      0.32463271245399
  O   -2.08143674294908      0.14239273915958      1.41659887857975
  O   -2.67090928774963     -1.14226187688811     -0.25566218440552
