17
Coordinates from ORCA-job run
  C   0.55413809035841     -0.34954857975728      0.57818282279416
  C   -0.59389619492635     -0.05580659620411     -0.39469416978159
  H   0.34523764056842      0.19078864552335      1.50725794685452
  H   -0.50428983720616     -0.67841945698193     -1.28727812919540
  C   1.91255941641391      0.08090849113028      0.01494097724509
  H   2.09251843979858     -0.37993330810364     -0.95900983952075
  H   1.95977785537125      1.16499711399126     -0.09136927747073
  H   2.71262731886917     -0.22788108990149      0.68910156822144
  C   0.56963088330691     -1.78184592800143      0.89161624173584
  N   0.59777597652376     -2.93469541612061      1.11448038259051
  C   -0.73130679045118      1.41488116966496     -0.74946594743610
  H   -1.64424378835518      1.57538888909074     -1.32690725307859
  H   -0.77815867447494      2.02310443155462      0.15586239871133
  H   0.11122057729860      1.74101470951907     -1.35983055769200
  N   -1.87912788764155     -0.49560374461927      0.24797541265138
  O   -2.60289192340298     -1.25088120297283     -0.39481906854048
  O   -2.12057110205068     -0.03746812781169      1.36295649191136
