17
Coordinates from ORCA-job run
  C   0.87739419072406      0.09437531137947      0.23881154818573
  C   -0.43317056350152      0.47465072213341     -0.47014922655851
  H   1.50433454453560      0.99405418304668      0.19562376602514
  H   -0.18238874588569      0.83595175533045     -1.46934180987287
  C   1.61056000899339     -1.05739096739565     -0.45701829011909
  H   1.73228259635770     -0.83935306716712     -1.52014906105169
  H   2.59615263956043     -1.20189779133044     -0.01230917436882
  H   1.05239050116083     -1.98952928537529     -0.35582729625872
  C   0.66797615771440     -0.20337713782945      1.65856421214447
  N   0.54020658097807     -0.43565744245174      2.80244566732401
  C   -1.28672410282920      1.46884428496467      0.29048344400407
  H   -2.18138370387868      1.72143586697883     -0.28228005153582
  H   -1.58870727133767      1.05708526351441      1.25326488334578
  H   -0.71731134111576      2.38578894891112      0.46006302462931
  N   -1.21329172997695     -0.78229994956802     -0.71801797849268
  O   -1.72470748949395     -1.32177630979645      0.26033550827819
  O   -1.25361227200506     -1.19990438534491     -1.87449916567852
