19

C	0.0	0.0	0.0
C	-0.180265	-0.161734	-1.566193
Br	2.043706	0.0	0.0
H	0.603386	-0.854387	-1.890889
N	-0.713689	1.024076	0.620362
H	-0.595887	1.885775	0.100677
H	-1.775465	0.641648	0.448896
N	-0.361332	-1.21774	0.648526
H	-0.463182	-1.037493	1.639069
H	0.31886	-1.945474	0.487938
C	0.047761	1.163304	-2.287557
H	-0.756445	1.866544	-2.051339
H	0.026602	1.004069	-3.370658
H	1.006991	1.61734	-2.028881
C	-1.505411	-0.77298	-2.025528
H	-2.345504	-0.111465	-1.83893
H	-1.727075	-1.675349	-1.460899
H	-1.389341	-1.016941	-3.09153
F	-2.974043	0.0	0.0
