19

C	0.0	0.0	0.0
C	-0.323962	0.083948	-1.550652
Br	2.071059	0.0	0.0
H	0.614766	0.112741	-2.10743
N	-0.334945	1.199386	0.681139
H	0.24709	1.97593	0.408072
H	-0.267016	1.030213	1.675278
N	-0.60303	-1.039433	0.741918
H	-1.632996	-0.745536	0.620471
H	-0.471746	-1.919651	0.259506
C	-1.131714	1.342956	-1.878721
H	-1.364675	1.345725	-2.950886
H	-0.574262	2.260643	-1.665319
H	-2.046206	1.299158	-1.281708
C	-1.125834	-1.133818	-2.013527
H	-2.074211	-1.118212	-1.469039
H	-0.591499	-2.077206	-1.855406
H	-1.315087	-1.048567	-3.089509
F	-2.928826	0.0	0.0
