19

C	0.0	0.0	0.0
C	-0.352912	-0.061127	-1.554737
Br	1.988218	0.0	0.0
H	0.592129	-0.072559	-2.102891
N	-0.442975	1.169926	0.718251
H	-0.181057	2.009411	0.213209
H	-1.470125	1.051528	0.651582
N	-0.473249	-1.175879	0.673028
H	-0.291553	-1.011991	1.660405
H	-1.498339	-1.064787	0.545059
C	-1.139869	1.163813	-2.025943
H	-0.590308	2.100793	-1.882703
H	-2.086823	1.18048	-1.483771
H	-1.334964	1.069561	-3.100107
C	-1.115809	-1.328393	-1.948885
H	-1.198395	-1.368649	-3.042184
H	-0.601472	-2.226233	-1.603575
H	-2.111969	-1.277518	-1.507167
F	-2.845562	0.0	0.0
