16

C	-0.5062	0.011114	-1.43581
C	0.0	0.0	0.0
Cl	0.196887	1.3595	-2.275106
H	1.095465	0.0	0.0
N	-0.157716	-1.27908	-2.216624
O	-1.103511	-1.948699	-2.606447
O	1.029089	-1.476982	-2.379459
N	-2.039305	0.094697	-1.485964
O	-2.613771	-0.378091	-0.511934
O	-2.552261	0.568847	-2.48653
N	-0.384306	-1.230927	0.774249
O	-0.350556	-2.289303	0.158828
O	-0.617409	-1.088597	1.966023
C	-0.47723	1.189684	0.686093
N	-0.837511	2.17555	1.213981
Br	3.249777	0.0	0.0
