16

C	-0.481194	-0.004645	-1.445372
C	0.0	0.0	0.0
Cl	0.170452	1.38489	-2.260079
H	1.097231	0.0	0.0
N	-0.052131	-1.272444	-2.228474
O	1.141951	-1.38183	-2.419624
O	-0.953242	-2.016905	-2.587094
N	-2.013432	0.00109	-1.533022
O	-2.591269	-0.471569	-0.561002
O	-2.520202	0.419489	-2.561558
N	-0.361001	-1.242025	0.767891
O	-0.248385	-2.298263	0.158768
O	-0.647314	-1.107887	1.948653
C	-0.504343	1.179249	0.680765
N	-0.894038	2.148355	1.218671
Br	3.250546	0.0	0.0
