16

C	-0.489208	0.001676	-1.425982
C	0.0	0.0	0.0
Cl	-2.255126	0.148584	-1.580259
H	1.114004	0.0	0.0
N	0.151322	1.08767	-2.310171
O	-0.411196	1.299503	-3.420849
O	1.444485	1.161293	-2.185051
N	-0.013887	-1.200779	-2.235564
O	-0.529917	-1.334029	-3.386959
O	1.228674	-1.526413	-1.991473
N	-0.493381	-1.13028	0.849674
O	0.350352	-1.506726	1.731902
O	-1.739588	-1.092862	1.08037
C	-0.286534	1.210348	0.883731
N	0.142583	1.522507	1.8641
Br	2.7762	0.0	0.0
