14

C	-0.164936	0.191073	-1.516118
C	0.0	0.0	0.0
Cl	-1.747631	1.048899	-1.963888
H	1.090393	0.0	0.0
H	-0.481894	-0.89697	0.374432
N	0.958731	0.892792	-2.014234
H	1.12202	0.71265	-2.994779
H	1.784699	0.672524	-1.414274
C	-0.342794	-1.147038	-2.116354
N	-0.436623	-2.196168	-2.639882
N	-0.485014	1.133771	0.795646
O	-0.14216	2.26573	0.468125
O	-1.181885	0.869018	1.781043
F	2.61245	0.0	0.0
