14

C	-0.197882	0.219566	-1.497437
C	0.0	0.0	0.0
Cl	0.291896	1.884442	-1.968243
H	1.087079	0.0	0.0
H	-0.335482	-1.007769	0.25777
N	0.725276	-0.679677	-2.178425
H	1.615591	-0.554316	-1.662457
H	0.413106	-1.631498	-2.000907
C	-1.573526	0.010058	-1.964036
N	-2.674652	-0.2284	-2.296985
N	-0.651903	0.904692	0.954079
O	-0.491832	0.628928	2.143368
O	-1.315185	1.858431	0.543145
F	2.575449	0.0	0.0
