14

C	-0.172486	0.211362	-1.514156
C	0.0	0.0	0.0
Cl	-1.729844	1.132669	-1.935879
H	1.090322	0.0	0.0
H	-0.484819	-0.899105	0.364844
N	0.968526	0.877598	-2.01445
H	1.129366	0.696213	-2.994747
H	1.791838	0.655277	-1.410244
C	-0.406863	-1.110873	-2.128272
N	-0.528231	-2.163939	-2.637641
N	-0.477917	1.127632	0.808011
O	-1.204732	0.862314	1.771441
O	-0.100061	2.256506	0.509264
F	2.614717	0.0	0.0
