14

C	-0.167264	0.117887	-1.53105
C	0.0	0.0	0.0
Cl	-0.244191	1.919262	-1.838862
H	1.091205	0.0	0.0
H	-0.493601	0.767303	0.585253
N	0.95628	-0.410083	-2.251798
H	1.779596	-0.252458	-1.636501
H	0.82769	-1.413046	-2.328411
C	-1.437144	-0.417702	-2.040052
N	-2.468272	-0.821147	-2.432896
N	-0.447071	-1.306751	0.488006
O	-0.278647	-2.286992	-0.243645
O	-0.923274	-1.367249	1.621925
F	2.585454	0.0	0.0
