16

C	-0.460065	-0.093752	-1.395418
C	0.0	0.0	0.0
Br	-2.420035	0.07076	-1.662368
H	1.104153	0.0	0.0
H	-0.340267	0.957399	0.400157
N	0.096687	1.018624	-2.285903
O	0.199926	0.775185	-3.481515
O	0.324736	2.086919	-1.737955
N	0.008467	-1.414786	-1.999651
O	-0.785456	-2.346426	-2.0572
O	1.197294	-1.444241	-2.284344
C	-0.443458	-1.174399	0.860206
H	-1.525534	-1.345243	0.865262
H	0.055858	-2.090416	0.535388
H	-0.111054	-0.985423	1.883426
F	2.551803	0.0	0.0
