16

C	-0.395562	0.069809	-1.421063
C	0.0	0.0	0.0
Br	-2.348857	0.194453	-1.750229
H	1.103888	0.0	0.0
H	-0.319519	0.956947	0.426728
N	0.260544	1.319325	-2.017138
O	1.288101	1.144704	-2.658128
O	-0.250251	2.392137	-1.718244
N	0.069681	-1.09186	-2.300483
O	0.64377	-2.017444	-1.743503
O	-0.170587	-1.003695	-3.499589
C	-0.548816	-1.160017	0.813041
H	-0.057204	-2.090233	0.533325
H	-1.634566	-1.280612	0.718668
H	-0.319529	-0.972246	1.865957
F	2.562287	0.0	0.0
