16

C	-0.456096	0.117608	-1.393733
C	0.0	0.0	0.0
Br	-2.426686	0.105971	-1.656142
H	1.102164	0.0	0.0
H	-0.348583	-0.95946	0.386949
N	0.110643	1.392479	-2.013622
O	1.269029	1.302585	-2.394178
O	-0.580721	2.403576	-1.987093
N	0.011813	-1.03576	-2.283679
O	0.009351	-0.835218	-3.491966
O	0.289654	-2.084757	-1.721538
C	-0.423765	1.16448	0.883744
H	0.073296	2.083236	0.565466
H	-0.07547	0.956436	1.898044
H	-1.504663	1.338961	0.907988
F	2.551384	0.0	0.0
