16

C	-0.441063	0.119262	-1.411624
C	0.0	0.0	0.0
Br	0.468942	1.519988	-2.366366
H	1.103627	0.0	0.0
H	-0.366911	-0.95956	0.374897
N	-0.247038	-1.17439	-2.217445
O	-0.64397	-1.145808	-3.377218
O	0.251694	-2.132749	-1.646576
N	-1.960615	0.334942	-1.492091
O	-2.40141	1.469913	-1.60433
O	-2.624965	-0.680366	-1.295602
C	-0.474326	1.156268	0.870308
H	-0.147362	2.112266	0.456578
H	-1.561328	1.193646	1.012896
H	-0.000689	1.050537	1.848706
F	2.580622	0.0	0.0
