14

C	-0.562878	0.035805	-1.419309
C	0.0	0.0	0.0
Cl	-0.166112	1.602445	-2.130569
H	1.091945	0.0	0.0
H	-0.295543	0.930097	0.495673
N	0.120554	-1.079397	-2.226938
O	-0.268458	-2.202721	-1.910318
O	0.954086	-0.8141	-3.074528
N	-1.974912	-0.202171	-1.607749
H	-2.480424	0.539688	-1.138076
H	-2.201613	-1.081952	-1.1549
C	-0.529914	-1.112223	0.767411
N	-0.950692	-2.010726	1.399234
H	2.690508	0.0	0.0
