14

C	-0.268012	0.043658	-1.499989
C	0.0	0.0	0.0
Cl	-0.005361	-1.550673	-2.214465
H	1.092926	0.0	0.0
H	-0.303191	0.964586	0.421316
N	-1.734096	0.459704	-1.735251
O	-2.587084	-0.391646	-1.944706
O	-1.946306	1.664714	-1.602934
N	0.566947	0.996558	-2.165046
H	0.323491	1.912676	-1.803134
H	1.520183	0.787518	-1.834288
C	-0.616831	-1.082891	0.732404
N	-1.103675	-1.951514	1.357481
H	2.694162	0.0	0.0
