14

C	-0.266558	0.090127	-1.499796
C	0.0	0.0	0.0
Cl	-0.032476	-1.488828	-2.257473
H	1.092965	0.0	0.0
H	-0.302037	0.95177	0.449614
N	-1.724491	0.54062	-1.728086
O	-2.590615	-0.283306	-1.990798
O	-1.917484	1.741371	-1.537729
N	0.585618	1.048962	-2.137198
H	0.363334	1.956436	-1.7404
H	1.536025	0.814207	-1.816224
C	-0.62018	-1.10332	0.69838
N	-1.109264	-1.990035	1.295747
H	2.697085	0.0	0.0
