14

C	-0.575109	0.075531	-1.412619
C	0.0	0.0	0.0
Cl	-0.107632	1.627408	-2.114513
H	1.091936	0.0	0.0
H	-0.28972	0.92107	0.516974
N	0.047939	-1.060666	-2.24019
O	-0.428113	-2.165501	-1.97479
O	0.927099	-0.826684	-3.049562
N	-1.998864	-0.088238	-1.586193
H	-2.267065	-0.959434	-1.138946
H	-2.45915	0.676156	-1.10623
C	-0.535798	-1.125359	0.743407
N	-0.964823	-2.034902	1.353691
H	2.693909	0.0	0.0
