14

C	-0.241574	-0.023568	-1.489601
C	0.0	0.0	0.0
Cl	-1.979513	-0.335246	-1.941624
H	1.093294	0.0	0.0
H	-0.291574	-0.988765	0.365227
N	0.033814	1.371025	-2.135192
O	0.128026	2.348732	-1.406331
O	0.167186	1.370433	-3.356502
N	0.607158	-0.990823	-2.045079
H	1.545491	-0.856596	-1.628288
H	0.633825	-0.909381	-3.054728
C	-0.647412	1.013203	0.802555
N	-1.145588	1.783822	1.536902
H	2.687004	0.0	0.0
