14

C	-0.574094	0.048632	-1.413772
C	0.0	0.0	0.0
Cl	-0.073612	1.57184	-2.156701
H	1.09194	0.0	0.0
H	-0.290896	0.928983	0.502053
N	0.028554	-1.123968	-2.204236
O	0.961115	-0.938953	-2.966098
O	-0.504324	-2.204047	-1.949804
N	-2.000393	-0.087912	-1.583388
H	-2.445752	0.689842	-1.110691
H	-2.286146	-0.949844	-1.132419
C	-0.533019	-1.115928	0.759662
N	-0.958071	-2.018651	1.382012
H	2.691628	0.0	0.0
