15
Coordinates from ORCA-job run
  C   0.52563437477968     -0.19083274838894     -0.34780717401515
  C   -0.86400836795398      0.42636334656631     -0.60990511396678
  H   0.84022374447428     -0.71467330160781     -1.25693902298877
  H   -0.79114007170684      1.11379836415799     -1.45783372877758
  C   0.57322695163457     -1.10499043487939      0.85741383267163
  H   -0.15054619010307     -1.91256318409297      0.73125029429650
  H   0.33658692452583     -0.55483449273169      1.76981986234715
  H   1.56511512550864     -1.53912248670144      0.96352314619636
  N   1.51983013113795      0.94696896230173     -0.20640184770794
  O   2.53116194486278      0.72202707570476      0.44695773910326
  O   1.26596925789899      1.99074248108729     -0.80274873335434
  C   -1.32222189012483      1.18693539975368      0.55819638260483
  N   -1.66598020068429      1.78689846311190      1.50696553765889
  C   -1.81472520552235     -0.63983860936154     -0.93880527810682
  N   -2.54712652872734     -1.51587883491986     -1.21168589596125
