15
Coordinates from ORCA-job run
  C   0.51294169523510     -0.20214269250908     -0.35578479828550
  C   -0.85514446822839      0.47295993080100     -0.58534938408615
  H   0.79436593982568     -0.71626835209817     -1.28123982553980
  H   -0.76244055872490      1.18258367061665     -1.41288496901875
  C   0.54180282681412     -1.14446113394712      0.82777310592305
  H   0.33910890293180     -0.60705396816151      1.75584552000485
  H   -0.21451060004053     -1.92048290505405      0.69340128329108
  H   1.51747300594390     -1.61896718068267      0.90992010169143
  N   1.55111251509168      0.89468041536126     -0.20665265977451
  O   1.34469676508352      1.94529043643388     -0.80943207438449
  O   2.54650841965324      0.63292991489588      0.45762680602106
  C   -1.27501402602735      1.21429846364885      0.60895612477362
  N   -1.58374953815959      1.79768321848004      1.57983040772458
  C   -1.84676451977974     -0.54619880761511     -0.94044974852031
  N   -2.61138635961853     -1.38485101016985     -1.24155988982017
