15
Coordinates from ORCA-job run
  C   0.39715312655466     -0.12672934016149     -0.31688926206649
  C   -0.96965120260138      0.39981366661577      0.15984440734945
  H   0.37445431907562     -0.31834027292051     -1.39086607273732
  H   -0.87542433364146      0.69116586805391      1.21182951213614
  C   0.87133314167231     -1.33838092292767      0.46564342906141
  H   0.19622298516528     -2.18015170475721      0.30476572469297
  H   1.86823004837739     -1.62605407043576      0.12675367819265
  H   0.91178950848154     -1.10978569378242      1.53307589960504
  N   1.40337123028695      0.97517546132098     -0.13096946049985
  O   2.26722660951419      1.07948489115079     -0.99490862843226
  O   1.31415637167247      1.64395290754500      0.89632510674205
  C   -1.97484538931114     -0.65967310923909      0.04035007670675
  N   -2.74900095648109     -1.53754232592434     -0.05144519722202
  C   -1.37118082274084      1.58178108964780     -0.61103243110447
  N   -1.66483463602453      2.52628355581424     -1.24347678242404
