15
Coordinates from ORCA-job run
  C   0.32890427761408     -0.37870439870271     -0.15558192346341
  C   -0.90851773478966      0.53640982499829     -0.09704524556132
  H   0.10659363061569     -1.27926586359377     -0.73026310866439
  H   -0.61551833062359      1.47603911796482      0.38435263985695
  C   0.88970772330075     -0.70518045595794      1.21705607951243
  H   1.13670834335483      0.21291739771164      1.75470566482372
  H   1.79362788602790     -1.30718850975709      1.10998944887450
  H   0.16268721381689     -1.27517844076440      1.79710500839960
  N   1.39358807962753      0.33920839391343     -0.93841291914113
  O   1.51257245926330      1.54638669068094     -0.74088260016884
  O   2.09423273479005     -0.35146047092121     -1.67028380035056
  C   -1.96074061510504     -0.10352151881916      0.69711254244967
  N   -2.77794136024952     -0.63178650418993      1.35420413072974
  C   -1.39569766642147      0.84455999025931     -1.44613622430109
  N   -1.76120664122173      1.07876474717778     -2.53691969299586
