15
Coordinates from ORCA-job run
  C   0.42328376025897     -0.12782968422254     -0.28161599974312
  C   -0.96564559184222      0.42983408677535      0.08363024346768
  H   0.50523568408542     -0.25915602716115     -1.36173113620656
  H   -0.97233086036882      0.65391811876921      1.15620489377468
  C   0.76862486718120     -1.39874534096987      0.47348302436522
  H   0.71787485702614     -1.22658824279419      1.55074505060128
  H   0.07615873676954     -2.19795101942565      0.20577865089042
  H   1.77935478321988     -1.71684919190349      0.21266433862566
  N   1.44292850305600      0.92000182689400      0.06983168204386
  O   1.28015304903611      1.52070492432922      1.12955160632632
  O   2.38386637187829      1.05190458019959     -0.70536069854132
  C   -1.99193879280137     -0.57514646660388     -0.20613913944198
  N   -2.78442340287220     -1.41044830397050     -0.43564143204389
  C   -1.23767582279975      1.67235020820048     -0.64745510572376
  N   -1.42346614182719      2.66700053188339     -1.24294597839448
