16
Coordinates from ORCA-job run
  C   0.55669650952447     -0.21051647394861     -0.54406285630384
  C   -0.54924914585389     -0.38936371182167      0.51100153979421
  H   0.18966184106186     -0.68712215864814     -1.46664360691398
  H   -0.59543474511235     -1.45178846218954      0.78245350948998
  N   1.78648219432079     -0.80815743422878     -0.02929159213645
  H   2.52169022112539     -0.72446062735065     -0.72254112438562
  H   1.65634800530643     -1.79622792326384      0.16134206166709
  N   0.71898016121518      1.19620151694174     -0.83459276698264
  H   1.23143224695775      1.32758361876564     -1.69755604093947
  H   1.25030551999930      1.62366927936937     -0.08240052221544
  C   -1.91346140943638      0.06033458502914     -0.01428729165050
  H   -1.86141081303368      1.10514641519205     -0.31760963475877
  H   -2.19289519789798     -0.54266193198404     -0.88198406484624
  H   -2.68411186997640     -0.05667122483249      0.74952823869287
  C   -0.18782933745093      0.35821014254439      1.71832987408742
  N   0.07379581925045      0.99482439042543      2.66931427740137
