16
Coordinates from ORCA-job run
  C   0.84703004930387     -0.11963603970119     -0.10984966320003
  C   -0.42949711954806     -0.30359780803330      0.74158016478337
  H   1.70772184119793     -0.20117315051611      0.58006432547521
  H   -0.37962845537191     -1.30535129387573      1.18469589471852
  N   0.79168578853753      1.16985982388839     -0.77542472764119
  H   0.75883563809021      1.90840297093102     -0.08207871387937
  H   1.63762096170480      1.31437646970238     -1.31403890259768
  N   0.86892202618653     -1.16500731616647     -1.12594466707169
  H   1.39964674773091     -0.86025412791291     -1.93134750803501
  H   1.32194561563633     -1.99181011718486     -0.75518055605928
  C   -1.71293680042930     -0.17053763237932     -0.08074500275321
  H   -1.65010907333574     -0.84382149675790     -0.93399980357503
  H   -1.82641623680263      0.84787280519029     -0.44834102686675
  H   -2.58189964987673     -0.42915685100009      0.52767641737230
  C   -0.40594193993092      0.67018068558739      1.83701421096620
  N   -0.34597939309281      1.48065307822842      2.68491955836363
