16
Coordinates from ORCA-job run
  C   0.87331798034334     -0.02724893783699     -0.04080427701365
  C   -0.42665880276070     -0.32063309355829      0.73651139406147
  H   1.69994720899739     -0.02830343179143      0.68467769125812
  H   -0.39132207875401     -1.36349763048568      1.07844016362743
  N   0.81258536518082      1.30061635956815     -0.60789297818597
  H   1.73957435082507      1.66923672450570     -0.77417848965170
  H   0.31729705504319      1.26612663766485     -1.49135387837978
  N   1.01664467538279     -1.05326197540806     -1.07642983878355
  H   1.86729136890214     -0.87765133294755     -1.59959231536105
  H   1.10546300123706     -1.97295957561814     -0.65626411670821
  C   -1.68017090313507     -0.11369977584871     -0.11616417384991
  H   -2.57146828947164     -0.42375980849186      0.43208064044745
  H   -1.60093705689239     -0.70385260743989     -1.02947540053897
  H   -1.78883742238689      0.94074825450211     -0.37226261799756
  C   -0.46745699359103      0.52079819529902      1.93413590594988
  N   -0.50426945892006      1.18734199788675      2.89957229112600
