16
Coordinates from ORCA-job run
  C   0.55892330960964     -0.18963693141324     -0.54969253226754
  C   -0.53292433022257     -0.40952466388791      0.51193383004517
  H   0.20018097996831     -0.67275227185768     -1.47234681671934
  H   -0.54393051040716     -1.47472866387157      0.77629788572867
  N   1.81073997123692     -0.75108666844746     -0.04732358296976
  H   2.53881720406996     -0.63602414498620     -0.74341565352153
  H   1.71449462329460     -1.74482079136918      0.13378236376591
  N   0.67418162160362      1.22325380127364     -0.83352697022668
  H   1.19262305082079      1.66417667380355     -0.07988245885387
  H   1.18114397815487      1.37497566453587     -1.69661923311480
  C   -1.91462435730922      0.00070108056768      0.00029994183268
  H   -2.67564889587061     -0.14881769554438      0.76810672273365
  H   -1.89879087830231      1.04943966545978     -0.29306240905400
  H   -2.18044290705581     -0.60251208550909     -0.87141814779812
  C   -0.18646310924010      0.33978909604691      1.72250818768901
  N   0.06172024964906      0.97756793519928      2.67635887273055
