16
Coordinates from ORCA-job run
  C   0.60313275970491      0.22063794960623     -0.51835592550322
  C   -0.45241199964526     -0.12139854866170      0.56108422933199
  H   0.20092573418561      1.04559407882655     -1.11759628319510
  H   -0.08488482776319     -0.99816188887521      1.11401730255711
  N   0.72948809158043     -0.93249886952959     -1.38832789632079
  H   1.40143280760532     -0.70362201084399     -2.11242154780324
  H   1.12213228616045     -1.70727519623110     -0.86125658013791
  N   1.88874482618095      0.67217349198118      0.00021757341790
  H   1.79476137938574      1.56539766564144      0.47136841262430
  H   2.24838234299809      0.00532100248990      0.67587421384018
  C   -1.82907347363175     -0.43084843100726     -0.03201489752563
  H   -2.54483811354711     -0.68786511444340      0.75116488663358
  H   -1.74140759322526     -1.25872602144259     -0.73335613844064
  H   -2.20901238225718      0.44027317494610     -0.57083660926184
  C   -0.53409021833685      0.98746588861157      1.51402908131945
  N   -0.59428161939489      1.90353282893188      2.24641017846385
