16

C	-0.596217	-0.01321	-1.391218
C	0.0	0.0	0.0
Br	0.148706	1.313072	-2.591152
H	1.096544	0.0	0.0
H	-1.673326	0.145361	-1.352688
N	-0.447723	-1.353553	-2.067683
O	-1.360479	-1.67777	-2.827837
O	0.559623	-2.010087	-1.835595
N	-0.545503	-1.205653	0.648259
H	0.150114	-1.938284	0.551043
H	-0.639932	-1.022776	1.639628
C	-0.468196	1.240522	0.747582
H	-1.55943	1.242399	0.854281
H	-0.153406	2.154936	0.245258
H	-0.016155	1.243122	1.742522
Br	3.634012	0.0	0.0
