16

C	-0.41313	0.009587	-1.472831
C	0.0	0.0	0.0
Br	0.29633	-1.473821	-2.461149
H	1.09456	0.0	0.0
H	-0.079068	0.920987	-1.964497
N	-1.916396	0.028975	-1.583229
O	-2.421658	1.155377	-1.630002
O	-2.54276	-1.023632	-1.539743
N	-0.436488	-1.226718	0.645038
H	0.278371	-1.528749	1.294564
H	-1.306428	-1.093642	1.146957
C	-0.460953	1.273852	0.705234
H	-0.133198	2.172118	0.176024
H	-1.550669	1.31555	0.808988
H	-0.011968	1.287834	1.701174
Br	3.564165	0.0	0.0
