16

C	-0.376801	0.038065	-1.490528
C	0.0	0.0	0.0
Br	0.585736	-1.304893	-2.4849
H	1.093386	0.0	0.0
H	-0.126685	1.001837	-1.939058
N	-1.87703	-0.120825	-1.732627
O	-2.294397	-0.856704	-2.618658
O	-2.590907	0.564281	-1.001052
N	-0.442705	-1.185932	0.708193
H	0.071657	-1.995934	0.387374
H	-1.435779	-1.345895	0.584525
C	-0.403478	1.259507	0.762032
H	0.17922	1.270248	1.684535
H	-1.465498	1.280347	1.00606
H	-0.15457	2.160856	0.194468
Br	3.599932	0.0	0.0
