16

C	-0.541461	0.062437	-1.434771
C	0.0	0.0	0.0
Br	0.261707	1.438682	-2.525484
H	1.093699	0.0	0.0
H	-1.618008	0.234017	-1.444565
N	-0.377999	-1.271431	-2.109071
O	0.732868	-1.618434	-2.47966
O	-1.405936	-1.954342	-2.164664
N	-0.421341	-1.223358	0.674263
H	-1.364945	-1.495712	0.423503
H	0.212291	-1.976941	0.438062
C	-0.494581	1.211754	0.777081
H	-0.175244	2.147421	0.315344
H	-1.589065	1.20581	0.857694
H	-0.07441	1.157161	1.781657
Br	3.596559	0.0	0.0
