14
Coordinates from ORCA-job run
  C   0.59571988484462      0.11994685490244      0.76616601728791
  C   -0.87897777431623      0.28335019189374      0.35850291183178
  F   0.95338203345681      1.32083697618664      1.35956859388548
  H   -1.47070805016035      0.50374011879565      1.24955377974237
  H   0.64042045512629     -0.65517300149129      1.53552679739545
  C   1.51833591268401     -0.17265430638965     -0.38902737432518
  H   2.54313921742091     -0.23100028632250     -0.01998353356721
  H   1.26919192250300     -1.12359265969862     -0.86360586084050
  H   1.46099353240788      0.62098682400109     -1.13564236442721
  N   -1.36183466710798     -1.05420537687299     -0.14645324464574
  O   -1.51986144031131     -1.90228708517247      0.72620653767254
  O   -1.50117220712167     -1.20651889791060     -1.35380646076719
  C   -1.06254061261841      1.31837551077651     -0.64883487564800
  N   -1.18608820680756      2.17919513730205     -1.43717092359449
