14
Coordinates from ORCA-job run
  C   0.62993515947906      0.61108668844989     -0.20597407742739
  C   -0.68439019554019      0.28158325254092      0.51593354567128
  F   0.33597832423879      0.95415916144857     -1.51137049816684
  H   -0.48716459056786      0.12941534369659      1.57926518658535
  H   1.03845608163074      1.50176971191918      0.28329424992640
  C   1.62631889370032     -0.52399178372881     -0.20029326357481
  H   1.82604244480717     -0.87224735356238      0.81453399930560
  H   1.25384447650066     -1.36143782106318     -0.79120187646181
  H   2.55918892783881     -0.17752632284223     -0.64631853034366
  N   -1.21611081027263     -1.03594456044860      0.00878471259767
  O   -0.89424611833385     -2.02219593905491      0.66576119848504
  O   -1.86016983647526     -1.02037963911160     -1.03216272537651
  C   -1.67886372240532      1.32934936031070      0.32206808006318
  N   -2.44881903460043      2.20635990144586      0.19867999871650
