16

C	0.0	0.0	0.0
C	-0.327783	-0.16342	-1.546953
Cl	1.757884	0.0	0.0
H	0.597946	0.06456	-2.073209
C	-0.52009	1.271452	0.476472
N	-0.570614	2.388956	0.862597
N	-0.400202	-1.085147	0.977617
O	-0.449538	-2.240179	0.569926
O	-0.446594	-0.736871	2.154126
N	-1.340085	0.678186	-2.048598
H	-2.184777	0.50546	-1.495267
H	-1.468968	0.525673	-3.042432
N	-0.496705	-1.655861	-1.93245
O	0.541045	-2.298635	-2.06989
O	-1.627156	-2.0668	-2.166034
H	-2.140016	0.0	0.0
