18

C	-0.340726	-0.06939	-1.497196
C	0.0	0.0	0.0
Br	-2.271464	-0.418392	-1.750788
H	1.096937	0.0	0.0
N	-0.053295	1.284455	-2.149867
O	-0.845584	2.200884	-1.952546
O	0.995378	1.370973	-2.777235
N	0.38805	-1.06731	-2.203565
H	1.373227	-0.804253	-2.138889
H	0.274075	-1.908377	-1.643253
N	-0.359791	-1.306519	0.558318
H	-1.267088	-1.261877	1.006927
H	0.336347	-1.551737	1.251525
C	-0.542634	1.184192	0.778496
H	-0.228119	1.075067	1.819828
H	-0.151974	2.133412	0.411866
H	-1.635831	1.219614	0.737401
Cl	3.36465	0.0	0.0
