18

C	-0.422562	-0.001161	-1.463742
C	0.0	0.0	0.0
Br	-2.563354	0.368831	-1.514444
H	1.094705	0.0	0.0
N	0.035938	1.170041	-2.315242
O	0.001684	0.994655	-3.528925
O	0.39676	2.19313	-1.751736
N	-0.097385	-1.152636	-2.09602
H	-0.240154	-1.953289	-1.493554
H	-0.356449	-1.22418	-3.065914
N	-0.377605	-1.325799	0.515785
H	-1.245799	-1.258939	1.034006
H	0.355689	-1.635412	1.142844
C	-0.489963	1.13504	0.88396
H	0.028569	1.046856	1.842586
H	-1.567838	1.065735	1.052525
H	-0.259558	2.110391	0.462358
Cl	3.361727	0.0	0.0
