14

C	0.0	0.0	0.0
C	-0.259207	-0.026879	-1.547418
Br	2.062396	0.0	0.0
H	0.604342	-0.516261	-2.010161
H	-0.179013	-0.972215	0.456233
N	-0.598064	1.047587	0.679895
H	-0.998499	1.71192	0.027933
H	-1.304545	0.700169	1.316732
N	-0.403027	1.356488	-2.02001
H	0.486748	1.686219	-2.371894
H	-1.106007	1.426571	-2.744304
C	-1.392765	-0.858521	-1.974823
N	-2.180275	-1.516842	-2.546734
Br	-4.039647	0.0	0.0
