14

C	0.0	0.0	0.0
C	-0.613523	-0.053566	-1.396419
Br	1.991873	0.0	0.0
H	-1.67237	0.193874	-1.192165
H	-0.284178	-0.911779	0.523029
N	-0.470608	1.137925	0.694139
H	-0.117677	2.001117	0.305147
H	-0.281002	1.094525	1.684283
N	-0.480312	-1.395601	-1.974285
H	-1.353988	-1.870606	-1.767209
H	-0.410791	-1.330564	-2.984095
C	-0.057004	0.974699	-2.270302
N	0.37468	1.800753	-2.984523
Br	-3.887479	0.0	0.0
