14

C	0.0	0.0	0.0
C	-0.503718	-0.11292	-1.433054
Br	1.952366	0.0	0.0
H	-1.599788	-0.111694	-1.32449
H	-0.269321	-0.934972	0.499926
N	-0.493953	1.208097	0.590482
H	-1.515613	1.160657	0.507931
H	-0.275094	1.212728	1.580434
N	-0.105429	-1.379684	-2.032109
H	0.852267	-1.321293	-2.358078
H	-0.701594	-1.567205	-2.828407
C	-0.117394	1.061532	-2.236428
N	0.170933	1.927645	-2.97644
Br	-3.717744	0.0	0.0
