16

C	-0.389706	0.06516	-1.476466
C	0.0	0.0	0.0
Br	0.133459	-1.665963	-2.365989
H	1.098201	0.0	0.0
C	-1.82188	0.227364	-1.734069
N	-2.947663	0.418177	-2.012068
N	0.332016	1.174821	-2.003615
H	0.180252	1.276586	-3.000087
H	1.328496	1.055582	-1.807303
N	-0.533213	-1.196937	0.713239
O	0.032664	-1.477307	1.766723
O	-1.530481	-1.758429	0.265986
N	-0.563825	1.144504	0.702762
H	-0.431371	1.950063	0.099547
H	0.020512	1.295339	1.5199
Cl	3.29734	0.0	0.0
