16

C	-0.624129	-0.058605	-1.407876
C	0.0	0.0	0.0
Br	0.227561	1.475188	-2.424091
H	1.087859	0.0	0.0
C	-0.316236	-1.23125	-2.224496
N	-0.203464	-2.144916	-2.955276
N	-2.02817	0.083755	-1.280332
H	-2.479747	0.146828	-2.183936
H	-2.198941	0.927132	-0.739728
N	-0.425268	-1.266785	0.723189
O	-0.05394	-2.323388	0.228173
O	-1.094992	-1.163297	1.753301
N	-0.501215	1.163781	0.685063
H	0.297508	1.693515	1.013784
H	-1.038828	0.856511	1.488412
Cl	3.236932	0.0	0.0
