16

C	-0.380513	-0.124208	-1.482137
C	0.0	0.0	0.0
Br	-2.371133	-0.651442	-1.584851
H	1.093671	0.0	0.0
C	-0.388025	1.205032	-2.101136
N	-0.347627	2.20635	-2.717514
N	0.420517	-1.052417	-2.166101
H	1.290386	-1.237726	-1.675005
H	0.577744	-0.802847	-3.131199
N	-0.382356	-1.290414	0.718795
O	0.140529	-2.325539	0.322238
O	-1.171596	-1.205052	1.658898
N	-0.530807	1.160137	0.604313
H	-1.47082	0.995354	0.941735
H	0.061539	1.439727	1.374475
Cl	3.229118	0.0	0.0
