16

C	-0.381854	-0.103194	-1.483379
C	0.0	0.0	0.0
Br	-2.367835	-0.626163	-1.599115
H	1.093681	0.0	0.0
C	-0.38414	1.235499	-2.083211
N	-0.35406	2.237714	-2.698448
N	0.41858	-1.027063	-2.176773
H	1.299661	-1.197724	-1.697667
H	0.559746	-0.775638	-3.144068
N	-0.382577	-1.299863	0.702119
O	0.152668	-2.327435	0.302199
O	-1.183899	-1.228947	1.633423
N	-0.531108	1.151807	0.620557
H	-1.469766	0.980464	0.958587
H	0.062886	1.422205	1.392874
Cl	3.229799	0.0	0.0
