16

C	-0.603603	-0.0274	-1.419261
C	0.0	0.0	0.0
Br	-0.199034	-1.701142	-2.377357
H	1.089565	0.0	0.0
C	-2.078008	0.023969	-1.335601
N	-3.247438	0.15478	-1.320305
N	-0.048416	1.06873	-2.147476
H	-0.620759	1.314551	-2.944646
H	0.052415	1.852766	-1.513842
N	-0.474746	-1.218218	0.772378
O	0.204077	-2.235684	0.716851
O	-1.528431	-1.09717	1.407953
N	-0.420791	1.218657	0.626515
H	-1.332992	1.109246	1.054676
H	0.263682	1.474839	1.32761
Cl	3.276926	0.0	0.0
