16

C	-0.591176	-0.070411	-1.417025
C	0.0	0.0	0.0
Br	-0.269535	1.650608	-2.296805
H	1.093549	0.0	0.0
C	0.055428	-1.060191	-2.292361
N	0.443081	-1.842284	-3.080267
N	-2.037095	-0.25262	-1.331324
H	-2.203033	-1.236153	-1.137845
H	-2.452299	-0.03878	-2.230751
N	-0.371186	-1.319433	0.7076
O	-0.406215	-1.29122	1.932715
O	-0.580019	-2.325243	0.025036
N	-0.474323	1.120389	0.714381
H	0.0913	1.269277	1.53684
H	-1.452433	1.033845	0.952102
Cl	3.24016	0.0	0.0
