16

C	-0.355775	0.021275	-1.495717
C	0.0	0.0	0.0
Br	-2.270439	0.321907	-1.810005
H	1.098224	0.0	0.0
C	0.362446	1.158222	-2.081888
N	1.04462	2.010713	-2.497803
N	0.050859	-1.180343	-2.192845
H	-0.453033	-1.96629	-1.797695
H	1.048536	-1.30595	-2.021191
N	-0.445974	-1.286711	0.632718
O	0.326525	-1.761237	1.470865
O	-1.556763	-1.744341	0.336745
N	-0.566192	1.082792	0.782799
H	-0.276573	1.951018	0.331194
H	-0.074955	1.070196	1.677972
Cl	3.296697	0.0	0.0
