16

C	-0.625543	0.016733	-1.407863
C	0.0	0.0	0.0
Br	0.202323	1.62702	-2.325741
H	1.100405	0.0	0.0
C	-0.293962	-1.093639	-2.297852
N	-0.1394	-1.933787	-3.105352
N	-2.029446	0.128033	-1.270764
H	-2.486534	0.242449	-2.166707
H	-2.213987	0.926979	-0.670296
N	-0.42389	-1.300854	0.655105
O	-1.056502	-1.254474	1.710683
O	-0.089776	-2.330502	0.082403
N	-0.505785	1.125104	0.746971
H	-0.990589	0.772668	1.565235
H	0.290835	1.670129	1.054658
Cl	3.238282	0.0	0.0
