16

C	-0.622898	-0.00489	-1.408272
C	0.0	0.0	0.0
Br	0.148604	1.64512	-2.317632
H	1.09367	0.0	0.0
C	-0.238967	-1.094955	-2.302092
N	-0.00597	-1.911465	-3.114772
N	-2.028256	0.054053	-1.273787
H	-2.243052	0.834937	-0.659982
H	-2.490939	0.159334	-2.167342
N	-0.417696	-1.291665	0.672757
O	-0.984658	-1.234328	1.76391
O	-0.135837	-2.326522	0.08309
N	-0.52391	1.129879	0.733762
H	-0.899615	0.784695	1.609896
H	0.25649	1.741321	0.941297
Cl	3.232085	0.0	0.0
