16

C	-0.348909	-0.120536	-1.499889
C	0.0	0.0	0.0
Br	-2.430056	-0.477577	-1.599503
H	1.109317	0.0	0.0
C	-0.285609	1.201809	-2.11896
N	-0.191635	2.247522	-2.645994
N	0.376627	-1.078901	-2.184989
H	0.68934	-0.813854	-3.105385
H	1.074367	-1.550337	-1.621536
N	-0.431214	-1.280261	0.68166
O	-1.295798	-1.224141	1.544351
O	0.121839	-2.308526	0.291111
N	-0.497528	1.124167	0.69103
H	-1.442051	1.378663	0.436689
H	0.144515	1.898844	0.60658
Cl	3.240708	0.0	0.0
