16

C	-0.41207	-0.094702	-1.489902
C	0.0	0.0	0.0
Br	-0.163154	-1.912675	-2.178181
H	1.092219	0.0	0.0
C	-1.830185	0.240255	-1.66484
N	-2.958254	0.545872	-1.787955
N	0.400737	0.798428	-2.284755
H	0.269454	1.724208	-1.881956
H	1.376411	0.547801	-2.109193
N	-0.550386	-1.146314	0.809856
O	0.176547	-2.102839	1.048142
O	-1.728986	-1.038318	1.168688
N	-0.44629	1.268711	0.487552
H	0.169977	1.583181	1.22594
H	-1.401913	1.213489	0.820213
Cl	3.28547	0.0	0.0
