16

C	-0.452091	0.078893	-1.467091
C	0.0	0.0	0.0
Br	0.306892	-1.493335	-2.491829
H	1.093122	0.0	0.0
C	-1.90975	-0.017086	-1.622198
N	-3.080708	-0.044915	-1.732525
N	0.016006	1.308265	-1.993957
H	0.978343	1.456361	-1.704658
H	-0.041503	1.30862	-3.004667
N	-0.451404	-1.279792	0.692724
O	-0.112977	-1.372725	1.869942
O	-1.151179	-2.095353	0.094863
N	-0.43309	1.141769	0.733974
H	-1.412906	1.095821	0.982122
H	0.130885	1.228997	1.566695
Cl	3.242503	0.0	0.0
