15

C	0.0	0.0	0.0
C	-0.544274	0.072675	-1.434879
Cl	1.749422	0.0	0.0
H	-1.637626	0.141929	-1.317239
H	-0.377074	0.834432	0.583359
N	-0.436057	-1.239727	0.743215
O	-0.617884	-1.091999	1.94448
O	-0.483018	-2.302137	0.133158
N	-0.186829	-0.925345	-2.376872
H	0.799918	-1.146688	-2.332878
H	-0.722503	-1.756217	-2.169078
N	-0.07219	1.426922	-1.927989
O	0.664531	1.472161	-2.910028
O	-0.441078	2.400163	-1.271415
Cl	-3.413073	0.0	0.0
