14

C	-0.546929	-0.038986	-1.427784
C	0.0	0.0	0.0
F	-0.120366	-1.203835	-2.035017
H	1.090053	0.0	0.0
H	-1.640992	-0.065448	-1.390278
C	-0.136213	1.115944	-2.238438
N	0.172842	2.021057	-2.917263
N	-0.444125	-1.097259	0.798722
H	-1.291836	-1.529103	0.461247
H	0.299735	-1.77399	0.870783
N	-0.546106	1.276027	0.592275
O	-1.77907	1.336261	0.658898
O	0.228942	2.151139	0.957074
Br	3.456469	0.0	0.0
