14

C	-0.591132	-0.025367	-1.403583
C	0.0	0.0	0.0
F	-0.368573	-1.292281	-1.93278
H	1.09811	0.0	0.0
H	-1.670091	0.126838	-1.348993
C	-0.012361	0.960593	-2.314876
N	0.43088	1.731196	-3.082737
N	-0.558304	-1.117045	0.74598
H	-0.098516	-1.103512	1.652089
H	-0.234214	-1.95922	0.279216
N	-0.441348	1.244712	0.69634
O	-0.27151	1.281089	1.909172
O	-0.929902	2.151869	0.020227
Br	3.41862	0.0	0.0
