14

C	-0.523381	-0.00419	-1.416582
C	0.0	0.0	0.0
F	-1.916353	0.124585	-1.389726
H	1.092666	0.0	0.0
H	-0.124348	0.842355	-1.974201
C	-0.194172	-1.264697	-2.091128
N	0.027551	-2.255191	-2.678393
N	-0.494217	-1.08677	0.758417
H	-1.451478	-0.938387	1.045393
H	0.086321	-1.232246	1.572078
N	-0.382262	1.371724	0.574345
O	-0.132724	2.357106	-0.113866
O	-0.892098	1.400451	1.692716
Br	3.393683	0.0	0.0
