14

C	-0.534642	-0.017049	-1.41218
C	0.0	0.0	0.0
F	-1.927577	0.10248	-1.374738
H	1.092649	0.0	0.0
H	-0.143707	0.828148	-1.978421
C	-0.20325	-1.279355	-2.082577
N	0.048035	-2.270913	-2.657179
N	-0.485511	-1.08305	0.76989
H	0.11473	-1.233281	1.568255
H	-1.434904	-0.92849	1.081085
N	-0.386658	1.373494	0.565886
O	-0.914406	1.407697	1.676022
O	-0.124141	2.354812	-0.123087
Br	3.393015	0.0	0.0
