18

C	0.0	0.0	0.0
C	-0.520761	0.106319	-1.463565
Br	1.973249	0.0	0.0
H	-1.596148	0.282924	-1.28596
C	-0.419966	1.209013	0.826537
H	8e-06	2.13711	0.442273
H	-0.083726	1.049314	1.852813
H	-1.512858	1.220291	0.778306
N	-0.541515	-1.165517	0.63337
H	-1.568664	-0.951699	0.572508
H	-0.348598	-1.980968	0.060138
N	-0.333298	-1.038617	-2.304374
H	0.589701	-1.438567	-2.188682
H	-1.045682	-1.718245	-2.081516
N	0.045069	1.299262	-2.176509
O	0.999339	1.127221	-2.934458
O	-0.47225	2.394737	-1.946682
F	-2.880955	0.0	0.0
