18

C	0.0	0.0	0.0
C	-0.359724	0.308266	-1.504701
Br	1.95544	0.0	0.0
H	0.509357	0.74028	-2.002075
C	-0.422388	1.168449	0.88834
H	-0.043692	2.124166	0.522993
H	-0.043579	0.994808	1.901163
H	-1.514663	1.160061	0.885489
N	-0.59235	-1.24882	0.382625
H	-0.414371	-1.389391	1.373354
H	-1.612658	-1.0445	0.281715
N	-1.493154	1.118864	-1.661787
H	-2.293655	0.712064	-1.10881
H	-1.721153	1.206525	-2.643663
N	-0.452122	-1.065214	-2.24191
O	0.605619	-1.652064	-2.457299
O	-1.556548	-1.444755	-2.621085
F	-3.046013	0.0	0.0
