18

C	0.0	0.0	0.0
C	-0.515302	-0.095419	-1.4453
Br	2.009036	0.0	0.0
H	-1.607451	0.037773	-1.302496
C	-0.38976	1.314222	0.672593
H	0.03764	2.196683	0.199526
H	-0.052894	1.276174	1.713111
H	-1.483993	1.318987	0.626443
N	-0.520288	-1.14359	0.687061
H	-1.547562	-1.004415	0.523957
H	-0.361684	-0.985689	1.678949
N	-0.1894	-1.32341	-2.072305
H	0.816622	-1.432216	-2.132029
H	-0.57814	-1.348361	-3.005966
N	-0.034212	1.107416	-2.26997
O	-0.591937	2.190214	-2.092237
O	0.852991	0.917114	-3.105722
F	-2.873676	0.0	0.0
