18

C	0.0	0.0	0.0
C	-0.347959	0.171122	-1.518495
Br	1.966099	0.0	0.0
H	0.416136	-0.359577	-2.08917
C	-0.413178	1.200572	0.849301
H	-1.507916	1.189152	0.802348
H	0.025419	2.13578	0.499263
H	-0.080726	1.019093	1.875798
N	-0.492774	-1.249785	0.49406
H	-1.523309	-1.072111	0.421079
H	-0.255341	-1.291193	1.481031
N	-0.363077	1.552002	-1.872838
H	-1.204788	1.947189	-1.464817
H	-0.470771	1.626358	-2.876376
N	-1.615093	-0.549936	-2.056823
O	-2.405695	0.133594	-2.698046
O	-1.626714	-1.771215	-2.004994
F	-2.747112	0.0	0.0
