18

C	0.0	0.0	0.0
C	-0.514274	0.171591	-1.456561
Br	1.959277	0.0	0.0
H	-1.604825	0.240987	-1.300215
C	-0.431958	1.148756	0.906347
H	-1.525758	1.14887	0.841773
H	-0.014801	2.11017	0.602239
H	-0.109081	0.9323	1.930084
N	-0.554272	-1.271183	0.404174
H	-1.581816	-1.037099	0.360405
H	-0.315011	-1.420809	1.380256
N	-0.168074	-0.879345	-2.375739
H	-0.491255	-1.73163	-1.930884
H	0.844286	-0.937605	-2.424395
N	-0.064346	1.469319	-2.042439
O	-0.711949	2.479339	-1.757385
O	0.931331	1.46302	-2.770084
F	-2.884513	0.0	0.0
