17

C	-0.251058	-0.058152	-1.48125
C	0.0	0.0	0.0
Br	-2.187249	-0.244668	-1.948728
H	1.096285	0.0	0.0
H	0.012591	0.907622	-1.906899
C	0.564446	-1.16487	-2.123083
H	0.182403	-2.153669	-1.859204
H	0.559001	-1.074705	-3.211236
H	1.578314	-1.039539	-1.720815
C	-0.495663	-1.162264	0.825651
H	-0.108837	-1.080159	1.840457
H	-0.105488	-2.086365	0.395136
H	-1.587129	-1.215384	0.864379
N	-0.449314	1.29292	0.561911
O	-0.365985	2.301134	-0.142957
O	-0.835191	1.318659	1.733065
F	2.577212	0.0	0.0
