17

C	-0.349882	0.083833	-1.490905
C	0.0	0.0	0.0
Br	-0.164162	-1.693073	-2.323461
H	1.091521	0.0	0.0
H	-1.3995	0.339244	-1.656171
C	0.632981	1.040556	-2.151195
H	0.399796	2.063257	-1.831919
H	0.581599	0.999801	-3.24098
H	1.631552	0.786449	-1.772937
C	-0.640574	-1.114329	0.79851
H	-0.159852	-2.056056	0.536849
H	-0.470489	-0.939984	1.864714
H	-1.717121	-1.189923	0.618641
N	-0.491555	1.299897	0.568335
O	0.321272	2.082664	1.0549
O	-1.711679	1.513937	0.527752
F	2.652574	0.0	0.0
