17

C	-0.493138	-0.028248	-1.438225
C	0.0	0.0	0.0
Br	0.127428	1.546117	-2.443359
H	1.090715	0.0	0.0
H	0.049411	-0.85271	-1.906796
C	-1.991152	-0.163992	-1.656398
H	-2.524795	0.685159	-1.228127
H	-2.22	-0.220065	-2.722939
H	-2.357013	-1.07462	-1.174486
C	-0.393739	-1.265957	0.745526
H	-1.468315	-1.425619	0.846946
H	0.05253	-1.224346	1.741906
H	0.067471	-2.112303	0.229995
N	-0.557751	1.181574	0.709453
O	0.118313	2.206829	0.759958
O	-1.692527	1.085658	1.20503
F	2.584287	0.0	0.0
