13
Coordinates from ORCA-job run
  C   -0.70871076804267      0.22539774252638     -0.02282228159779
  C   0.54972638391078      0.13733503418920     -0.88505897989555
  Cl  -1.85172777224371      1.28971600769656     -1.01722719663360
  H   0.34709329432942     -0.39221063208200     -1.81405122956768
  H   0.93771090938610      1.13643743049186     -1.07660375229092
  C   -1.39051751438556     -1.06465300751262      0.11024678130039
  N   -1.96469735434647     -2.08208557065519      0.23032009657600
  N   -0.39444546467996      0.73152138594656      1.25287204500244
  H   0.08993670257429      1.61937198709842      1.21326892524211
  H   -1.19605482391063      0.78506516665005      1.86693366536802
  N   1.60473055280978     -0.61077457351475     -0.14223017395042
  O   1.47439392427349     -1.82994072026768     -0.08623682651622
  O   2.50156193032516      0.05481974943323      0.36858892696323
