13
Coordinates from ORCA-job run
  C   -0.58301443107188      0.17981512816988      0.15291460814598
  C   0.93112325028109      0.13386363758269     -0.03560885181025
  Cl  -1.32750738142157      0.55502967497207     -1.47938946027999
  H   1.29872819359107      1.12537765750193     -0.29514339889032
  H   1.39256971214580     -0.22832720914592      0.88425466205643
  C   -1.15074984743781     -1.09667974179058      0.59538424349796
  N   -1.65737404409866     -2.06930669042999      1.01552157463217
  N   -0.85534310605760      1.16468480821404      1.14341855552472
  H   -0.58717562366693      2.08768088931178      0.82282330033439
  H   -1.83403964086252      1.17218354731788      1.40286587570426
  N   1.34890996688803     -0.77959027931822     -1.13520183997654
  O   0.96830687198114     -1.94327938897212     -1.05380510408138
  O   2.05556607972987     -0.30245203341343     -2.01803416485744
