13
Coordinates from ORCA-job run
  C   -0.70426613548068      0.24001221242668      0.01048795377269
  C   0.50324969673776      0.10796336398617     -0.91607246740205
  Cl  -1.87836199164387      1.30780941316108     -0.94493499259291
  H   0.90004895236632      1.09467754144098     -1.14920064143114
  H   0.24025266208598     -0.43561358434955     -1.82151324044690
  C   -1.40461333388983     -1.03182848602532      0.20746877202784
  N   -1.99158156155875     -2.03377618355464      0.38324827190475
  N   -0.31172532448814      0.76510477626059      1.25571147694240
  H   -1.07688449481676      0.85073953005993      1.91111336281946
  H   0.19373796893413      1.63794817687557      1.17311666768465
  N   1.58165119562626     -0.64812021889398     -0.21572066778748
  O   2.51753139269086      0.00797776535164      0.23368710819685
  O   1.42996097343673     -1.86289430673913     -0.12839160368816
