13
Coordinates from ORCA-job run
  C   -0.71222839467602      0.21408874734642     -0.01366899291258
  C   0.52941303466513      0.12184263573228     -0.89894365207159
  Cl  -1.89143933816946      1.23440083272854     -1.01245095547120
  H   0.89860963607705      1.12129044338137     -1.12338117595638
  H   0.31597139592998     -0.43377336296511     -1.81025585578666
  C   -1.37143726921847     -1.08165519372311      0.16795731115487
  N   -1.92795824670973     -2.10351653903080      0.32730396639616
  N   -0.38012199741813      0.75913686560259      1.24113206529187
  H   0.09139783509342      1.65177548709193      1.16807830770891
  H   -1.17051166950786      0.81986300154673      1.86919726955717
  N   1.61057641139356     -0.59218042444538     -0.15989054048572
  O   1.49906913623773     -1.81118674282392     -0.06967228476456
  O   2.50865946630279      0.09891424955847      0.31359453733971
