13
Coordinates from ORCA-job run
  C   -0.69216792628054      0.12329283552205      0.09944785503977
  C   0.79606228504535      0.22874673496502     -0.25806776559398
  Cl  -1.58658675261099     -0.19540109306361     -1.42129682682384
  H   0.94456840471496      1.07690040207718     -0.92469042334596
  H   1.38226363536761      0.33854819673743      0.65704878220600
  C   -0.95743075279764     -0.96351708055101      1.04858749207139
  N   -1.18446866492648     -1.76927894731853      1.87211388739477
  N   -1.21006324780043      1.34054424643646      0.67259155618705
  H   -0.83806216314082      1.49447430238924      1.60247890290596
  H   -1.01370795297244      2.13577154374676      0.07628989265184
  N   1.32215037772907     -0.97247223569460     -0.96900100193738
  O   1.78126534459165     -0.79968937340768     -2.09438783404463
  O   1.25717741308069     -2.03791953183870     -0.36211451671098
