13
Coordinates from ORCA-job run
  C   -0.69578329927297      0.12592725595967     -0.08222513812907
  C   0.52343763934472     -0.77324888495268     -0.31762039305257
  Cl  -1.32432251170353      0.74776198315198     -1.64068313207916
  H   0.33889853452062     -1.45462739826649     -1.14563507260418
  H   0.76339811678182     -1.31643836258703      0.59682314863476
  C   -1.75459723072664     -0.73095211826582      0.48903705124113
  N   -2.56791534576995     -1.39857441664305      1.01380140203143
  N   -0.33104384695421      1.24861409172209      0.72929312759551
  H   0.15141086708532      0.95951935488506      1.57249809392705
  H   -1.13916876069235      1.81133169214417      0.96268796548362
  N   1.71766403782077      0.05301863659796     -0.64821509316768
  O   1.88560206043216      0.34959783579475     -1.82636078230502
  O   2.43241973913422      0.37807033045940      0.29759882242418
