13
Coordinates from ORCA-job run
  C   -0.68199117628494      0.01802567394297      0.08982522541619
  C   0.65674045148547     -0.68614577323208     -0.14400367686245
  Cl  -1.25467227823310      0.61485609332753     -1.56244568397777
  H   1.08283902807469     -0.96699659314606      0.82152443897061
  H   0.53135627414563     -1.55216221694479     -0.78878895174237
  C   -1.65126377902581     -1.00715711528246      0.49301096529419
  N   -2.40510004084868     -1.84130850995722      0.83275870753201
  N   -0.60792354078243      1.01451050461242      1.08512497201127
  H   0.10566559911927      1.69813489604889      0.86667557485608
  H   -1.50285114500041      1.45891497697318      1.24323607722133
  N   1.65329381171353      0.19924189248960     -0.81737833598872
  O   1.81876014542727      1.32186915871969     -0.34319076060972
  O   2.25614665020949     -0.27078298755166     -1.77434855212069
