13
Coordinates from ORCA-job run
  C   -0.60624543299806      0.20515059472689      0.04622736746327
  C   0.86475949480143      0.23804656410329     -0.36417420555406
  Cl  -1.60348685995326     -0.10658316689546     -1.40146794148709
  H   0.98820272269878      1.00024605146842     -1.12922658510448
  H   1.48727814823874      0.43929943748498      0.50986700173098
  C   -0.90328963993613     -0.85190859331852      1.02787602341846
  N   -1.19161430304525     -1.59852701903206      1.88914691893346
  N   -0.92742619584879      1.53245730739269      0.53091975970159
  H   -0.47937859295071      1.68147864816679      1.43016351596950
  H   -1.92969310128195      1.61450785571390      0.66278573729478
  N   1.32024442372150     -1.06120624901592     -0.92987001964847
  O   1.42295588370173     -1.99564593961128     -0.13791740528911
  O   1.55669345285196     -1.09631549118373     -2.13433016742885
