13
Coordinates from ORCA-job run
  C   -0.66239397444921      0.09759499489219      0.15904486893103
  C   0.50817956799514     -0.68518578490920     -0.44166345865241
  Cl  -1.16943988816292      1.33863722477397     -1.11145873338891
  H   0.19676336147159     -1.22499805437318     -1.33215747141813
  H   0.90634187904242     -1.36294126330873      0.31644605128170
  C   -1.79399469950019     -0.82939372084124      0.27497690989710
  N   -2.68030802500649     -1.59327178897327      0.37740468179375
  N   -0.36372101269232      0.63743371783470      1.42721853463366
  H   -1.15184447545406      1.13226076600617      1.82392720806792
  H   0.45773966049029      1.22738923722958      1.39068136815652
  N   1.63083496722350      0.20614220898953     -0.86081935902518
  O   2.02311440188177      1.03810266548398     -0.04464513812241
  O   2.09972823716048      0.02022979719553     -1.97695546215461
