13
Coordinates from ORCA-job run
  C   -0.73108046516499      0.15911937330470      0.07117647908067
  C   0.49673158207142     -0.66386799768986     -0.37676913422453
  Cl  -1.23618958250162      1.14495339449400     -1.34899987946117
  H   0.24446204671252     -1.33687940085422     -1.19356414142521
  H   0.89340801738962     -1.21317779817730      0.47994193948468
  C   -1.79067357742024     -0.81796366296939      0.35013061798009
  N   -2.59332959000621     -1.63968142244136      0.59537015212404
  N   -0.58702517707334      1.01962660799452      1.20601409566179
  H   0.26235938310718      1.56547901149614      1.12494569199175
  H   -0.57419885304810      0.48487448668830      2.06610328658795
  N   1.59328781685625      0.21485401957432     -0.87265571551356
  O   2.00647126600861      1.07736165705664     -0.09774638311728
  O   2.01477713306893      0.00430173152352     -2.00394700916924
