13
Coordinates from ORCA-job run
  C   -0.57699782072803      0.14633661956666      0.20405060578848
  C   0.86260417977052      0.23111973839932     -0.29668432042266
  Cl  -1.63163779173331     -0.28750271281516     -1.23086725597073
  H   0.96276880509053      1.06799687665638     -0.98605644597820
  H   1.52981656491108      0.34505209847069      0.55897240280213
  C   -0.77905465319408     -0.89871435968422      1.21126770098965
  N   -0.99174279117627     -1.67084185951282      2.07021286045219
  N   -0.89619762255921      1.40500814742538      0.78609159667946
  H   -0.88646378483671      2.14137241575193      0.09021342411732
  H   -1.79996455494474      1.38720444410580      1.24217723057484
  N   1.28963279267480     -0.98823494604593     -1.03755531879498
  O   1.73040613860722     -0.82567352684446     -2.17140963253543
  O   1.18583053811821     -2.05512293547357     -0.44041284770208
