13
Coordinates from ORCA-job run
  C   -0.70086444879637      0.37413649074095     -0.07012128034030
  C   0.52220513092078      0.02039703635386     -0.91042695878894
  Cl  -1.81181810995156      1.22211457673300     -1.19880300058475
  H   0.24523563617656     -0.54381638648720     -1.79954612406149
  H   1.03109729381250      0.94311340327896     -1.19409567602187
  C   -1.39498581651735     -0.85057708544994      0.37024209625571
  N   -1.92636936354058     -1.83068602553027      0.74264636025158
  N   -0.36068308551392      1.29573962376556      0.98014115820286
  H   0.23870149712510      0.82228397491661      1.64705972005519
  H   -1.19973951048827      1.61221435614253      1.45247361050302
  N   1.52754600809886     -0.81908284168626     -0.18125938776463
  O   1.44632809446770     -0.90244531084328      1.04329795987137
  O   2.38334667420654     -1.34339181193452     -0.88160847757774
