13
Coordinates from ORCA-job run
  C   -0.70841552396626      0.22363160454942     -0.03218899413517
  C   0.56366206213216      0.14853123102363     -0.87536250538594
  Cl  -1.83980505042685      1.29320347960494     -1.03254776855032
  H   0.95186335758089      1.15085655423557     -1.04901685375400
  H   0.37698856246525     -0.37025679685138     -1.81373794401827
  C   -1.38649592597847     -1.07045553206792      0.07943561300482
  N   -1.95914490116358     -2.08983725612432      0.18894346191375
  N   -0.41568567735883      0.71832908090922      1.25370520429116
  H   0.06148761198438      1.61096162543236      1.22877675971100
  H   -1.22812791331344      0.76243579292331      1.85437751975334
  N   1.60853844416950     -0.60615145792701     -0.12515000028327
  O   1.48343686744987     -1.82678616788980     -0.09110401642611
  O   2.49169808642540      0.05553784218197      0.41386952387901
