13
Coordinates from ORCA-job run
  C   -0.70722152185385      0.23109149611969      0.00742424961048
  C   0.51605903300488      0.14484844410756     -0.90401170450260
  Cl  -1.87936550850032      1.31768941406469     -0.92853482645147
  H   0.90390550034049      1.14354346748262     -1.09805307247076
  H   0.27342407060631     -0.37012011290079     -1.83162532388237
  C   -1.39474375107171     -1.05486371997114      0.14973875925776
  N   -1.97111694286430     -2.06930263702832      0.28394988749507
  N   -0.33997381820205      0.71746480507500      1.27615254132929
  H   -1.11621367080874      0.76935142042190      1.92208862897391
  H   0.15182194385576      1.60085973512302      1.23062734845841
  N   1.59263954311592     -0.62116796809532     -0.21253784709207
  O   1.45376283739993     -1.83979440768527     -0.16637845653879
  O   2.51502228497766      0.03040006328635      0.27015981581314
