13
Coordinates from ORCA-job run
  C   -0.69331096920766      0.14156183614312     -0.07965606736319
  C   0.53400736500432     -0.70548716268967     -0.43574283147337
  Cl  -1.27601726501886      1.03399178348314     -1.52009687878692
  H   0.37716212480536     -1.22439044389948     -1.37914043106718
  H   0.74548686618812     -1.40609383398948      0.37257320129148
  C   -1.76687513618982     -0.80081453769722      0.29600939159931
  N   -2.59348552588224     -1.55247617437707      0.66269188759985
  N   -0.35568650485839      1.09982764776081      0.93016237227210
  H   -1.17275368775030      1.61118767568645      1.23905876319748
  H   0.10568974360043      0.66378655749462      1.72031522306449
  N   1.73644925018326      0.16238071918943     -0.57243676345192
  O   1.94159685871414      0.66648034754548     -1.67144366410833
  O   2.41773688041165      0.31104558534988      0.43970579722619
