13
Coordinates from ORCA-job run
  C   -0.78535481712343      0.30800615234833     -0.04648794232090
  C   0.48324319900734      0.15686159248590     -0.90748754551926
  Cl  -1.89163998985515      1.30384092706765     -1.07342185685465
  H   0.90850432019482      1.14252326352424     -1.09338312225501
  H   0.27408083913954     -0.37105735836819     -1.83576040683476
  C   -1.41393081743742     -1.00085310304170      0.16094306465375
  N   -1.89909055779317     -2.05344089277372      0.35076803492473
  N   -0.61636587090921      0.94764730777571      1.21800817578283
  H   -0.28974825020471      0.30471224514540      1.92742904633164
  H   0.01130859690883      1.73909324262496      1.15525983422007
  N   1.49779261944522     -0.62944578884864     -0.15366451400154
  O   1.53981017055592     -1.84000881994469     -0.36246761019421
  O   2.18239055807142     -0.00787876799521      0.65926484206729
