13
Coordinates from ORCA-job run
  C   -0.69087645058060      0.39253069792635     -0.04363647588979
  C   0.50672740141308      0.04195131709333     -0.92094232643671
  Cl  -1.80032631277116      1.31208833711949     -1.11632414714654
  H   1.03363139824721      0.96187954454044     -1.17959158599842
  H   0.19861852720329     -0.48055816907003     -1.82526163380041
  C   -1.40922527024204     -0.82956189015360      0.36416441499817
  N   -1.97309361052434     -1.79468419930534      0.72784119471694
  N   -0.30747688766594      1.26289719394927      1.03511241626181
  H   0.29128469841973      0.74805432979196      1.67120847636153
  H   -1.12932981897053      1.58118365465731      1.53565666297499
  N   1.50390595261352     -0.84998186110165     -0.24470795065926
  O   1.44064010063087     -0.98303392646672      0.97652212383132
  O   2.33552027222691     -1.36376502898076     -0.98104116921362
