13
Coordinates from ORCA-job run
  C   -0.69569919153387      0.37579776628171     -0.09076821130089
  C   0.55984674033770      0.04096614306008     -0.88973512862018
  Cl  -1.76081085458384      1.25119012849301     -1.24259797600912
  H   0.31814694239402     -0.49982823246163     -1.80335871616669
  H   1.08106979495407      0.96923190570109     -1.12953807376320
  C   -1.40815062005430     -0.85689895145838      0.29472011902651
  N   -1.97162398416267     -1.82864975682150      0.64101252949225
  N   -0.39787474733046      1.27182836079751      0.99390785197170
  H   -1.25513381367940      1.57446034470177      1.44208982927713
  H   0.17713703887083      0.78269061507016      1.67094836625466
  N   1.53361782983145     -0.81938249100591     -0.14236199522439
  O   1.40511702028198     -0.93079501623869      1.07586080840727
  O   2.41435784467449     -1.33061081611922     -0.82117940334505
