13
Coordinates from ORCA-job run
  C   -0.67304767239408      0.03556011021359      0.14515254609953
  C   0.57494891964809     -0.62319616997232     -0.44777862547327
  Cl  -1.25573910014962      1.26886870968668     -1.10137427231429
  H   1.01168720829885     -1.29049365243303      0.29833635310804
  H   0.33326314583215     -1.15703673591994     -1.36323805350167
  C   -1.72203526800400     -0.98884891289854      0.20168755337512
  N   -2.53326541362390     -1.83704523665279      0.24631080792372
  N   -0.45340951628325      0.55811036740677      1.43636854896584
  H   -1.29071165638722      0.97131869151978      1.82558043365954
  H   0.31496558760003      1.21662822021197      1.44025357077681
  N   1.62748212157217      0.37353641831361     -0.80817222502511
  O   1.92328760346739      1.21195770159326      0.04147720500539
  O   2.14257404042342      0.26064048893091     -1.91360384259961
