13
Coordinates from ORCA-job run
  C   -0.68310873797319      0.13728704073554      0.14555423021904
  C   0.77250492752544      0.20642033127340     -0.33716772601343
  Cl  -1.69878788641909     -0.27710676816693     -1.27329769552447
  H   1.42869051443577      0.37619185175861      0.51920355203100
  H   0.86655831267629      1.00487619325714     -1.07154421132839
  C   -0.87307676928689     -0.88320100421695      1.18218083895047
  N   -1.02593343909945     -1.64439832822132      2.06321131008908
  N   -1.14892318401093      1.39392673362512      0.67515093893589
  H   -0.99384937153819      2.14756862587029      0.01607989097160
  H   -0.70893359157355      1.60313165865091      1.56347880245599
  N   1.23667073690378     -1.04550834652295     -1.00068252417856
  O   1.57513341255887     -0.96274716582104     -2.17792109951200
  O   1.25205507580115     -2.05744082222189     -0.30524630709633
