13
Coordinates from ORCA-job run
  C   -0.59022694651848      0.24319793851291      0.07825957143246
  C   0.85330968095426      0.18329864707898     -0.41853949759986
  Cl  -1.69134009577586     -0.01955989954776     -1.30221784160260
  H   1.53635913269033      0.35342008506863      0.41596816923660
  H   0.97649708672808      0.92982231351218     -1.19907605878825
  C   -0.88741727762440     -0.78786338202652      1.08752389041601
  N   -1.15689895763827     -1.51216338844151      1.97349839782362
  N   -0.80163934484407      1.59068729279763      0.56628783442670
  H   -1.78679400854933      1.73321058257298      0.76086936567829
  H   -0.28819937427873      1.72093539861987      1.43291610536423
  N   1.19547373302818     -1.14675517634215     -0.99249087782131
  O   1.30824810439430     -2.07367364923063     -0.19299086894121
  O   1.33162826743398     -1.21355676257459     -2.21100818962469
