13
Coordinates from ORCA-job run
  C   -0.70022977876837      0.37419444342051     -0.07054824081124
  C   0.52717694807067      0.02991826019995     -0.90829706085311
  Cl  -1.80624376338438      1.23317747769502     -1.19575970139081
  H   1.03753289851237      0.95563065591452     -1.17929851442616
  H   0.25498411021480     -0.52405537719075     -1.80532276981950
  C   -1.39607013900569     -0.85475888014684      0.35498358265671
  N   -1.93215822100278     -1.83308951300323      0.72540252861762
  N   -0.36573439869663      1.28511002692806      0.99102480789012
  H   0.23091291970222      0.80481472261790      1.65553980072483
  H   -1.20744559918593      1.59531322149974      1.46285031306866
  N   1.52843577042541     -0.81788922193758     -0.18339695037408
  O   1.44258963530358     -0.91236483012210      1.04005181459229
  O   2.38624961781473     -1.33700098587521     -0.88522960987533
