13

C	-0.2749	-0.099458	-1.512141
C	0.0	0.0	0.0
Cl	-0.01345	1.589427	-2.249049
H	1.097526	0.0	0.0
H	-1.318164	-0.300381	-1.758239
N	0.593914	-1.088255	-2.001561
H	1.540623	-0.907414	-1.650598
H	0.580337	-1.152192	-3.008758
C	-0.456741	-1.21436	0.658066
N	-0.811811	-2.191845	1.207273
C	-0.548789	1.16785	0.659512
N	-0.970396	2.101565	1.236682
H	2.581848	0.0	0.0
