13

C	-0.217659	0.022193	-1.506713
C	0.0	0.0	0.0
Cl	-1.965166	0.17848	-1.977946
H	1.098439	0.0	0.0
H	0.067037	-0.965378	-1.888563
N	0.538688	1.12568	-2.018105
H	1.474133	1.046027	-1.599235
H	0.621865	1.052309	-3.025574
C	-0.507888	-1.202926	0.628918
N	-0.898936	-2.199679	1.114539
C	-0.473927	1.201196	0.663652
N	-0.8359	2.155254	1.246815
H	2.560894	0.0	0.0
