13

C	-0.389437	0.085207	-1.472954
C	0.0	0.0	0.0
Cl	0.216949	-1.439206	-2.294533
H	1.094923	0.0	0.0
H	0.205902	0.880516	-1.924928
N	-1.77782	0.311967	-1.676974
H	-2.318544	-0.433404	-1.25528
H	-1.994319	0.350836	-2.666156
C	-0.544586	-1.175269	0.650835
N	-0.949058	-2.150445	1.171473
C	-0.421909	1.207448	0.69491
N	-0.708661	2.200362	1.255962
H	2.514437	0.0	0.0
