13

C	-0.289226	0.082062	-1.525936
C	0.0	0.0	0.0
Cl	-0.028872	1.776529	-2.060695
H	1.09698	0.0	0.0
H	-1.334209	-0.141269	-1.751335
N	0.576492	-0.793454	-2.263439
H	0.270866	-1.749186	-2.113196
H	1.514199	-0.694151	-1.862642
C	-0.433872	-1.305574	0.465636
N	-0.745064	-2.39466	0.785056
C	-0.561918	1.054775	0.817402
N	-0.990631	1.911238	1.500684
H	2.568181	0.0	0.0
