13

C	-0.274223	-0.110991	-1.511747
C	0.0	0.0	0.0
Cl	-0.019557	1.572282	-2.26231
H	1.097537	0.0	0.0
H	-1.316188	-0.317891	-1.755158
N	0.597204	-1.100555	-1.99517
H	1.543184	-0.916606	-1.640875
H	0.587365	-1.166326	-3.004337
C	-0.456116	-1.208965	0.668137
N	-0.807005	-2.182541	1.226765
C	-0.548161	1.173356	0.650519
N	-0.96322	2.113187	1.222528
H	2.57943	0.0	0.0
