13

C	-0.35862	-0.067579	-1.485114
C	0.0	0.0	0.0
Cl	0.064556	-1.682465	-2.132754
H	1.09596	0.0	0.0
H	0.334061	0.619137	-1.988314
N	-1.762598	0.167983	-1.732988
H	-2.036395	1.028402	-1.269649
H	-1.916451	0.278536	-2.729412
C	-0.545423	-1.084051	0.791663
N	-0.920472	-1.96699	1.471652
C	-0.420105	1.286743	0.528142
N	-0.764853	2.344986	0.911247
H	2.51829	0.0	0.0
