13

C	-0.359581	-0.026142	-1.485866
C	0.0	0.0	0.0
Cl	0.060275	-1.622483	-2.178496
H	1.096606	0.0	0.0
H	0.333674	0.672627	-1.971433
N	-1.763678	0.219057	-1.727359
H	-2.036386	1.064559	-1.237916
H	-1.915242	0.362144	-2.719092
C	-0.544222	-1.106594	0.761586
N	-0.924201	-2.010694	1.411426
C	-0.414486	1.272436	0.565154
N	-0.707796	2.335675	0.977395
H	2.512537	0.0	0.0
