13

C	-0.261511	0.227745	-1.479098
C	0.0	0.0	0.0
Br	-0.86208	-1.856362	-2.230114
H	1.090714	0.0	0.0
H	-1.210972	0.656542	-1.789719
H	-0.430008	-0.902788	0.414397
N	0.836831	0.704154	-2.077432
H	1.740305	0.472608	-1.628015
H	0.822012	0.912806	-3.060411
N	-0.480851	1.139193	0.792425
O	-0.339767	2.271536	0.321351
O	-0.963707	0.908692	1.906284
H	2.73519	0.0	0.0
