19

C	-0.375941	0.026135	-1.479779
C	0.0	0.0	0.0
F	-0.009692	-1.192809	-2.061575
H	1.097914	0.0	0.0
C	-1.84531	0.125477	-1.656591
N	-3.008808	0.21813	-1.787294
C	0.343905	1.115932	-2.257616
H	0.187692	0.959485	-3.327383
H	1.40962	1.047955	-2.019037
H	-0.031253	2.10407	-1.987602
C	-0.523677	-1.251703	0.692213
H	-1.619724	-1.25954	0.737215
H	-0.137396	-1.286596	1.71408
H	-0.185348	-2.151252	0.177701
C	-0.468893	1.264457	0.71544
H	-0.004858	2.161387	0.300787
H	-1.558684	1.377929	0.677872
H	-0.169694	1.208865	1.765077
Cl	3.533337	0.0	0.0
