19

C	-0.40448	-0.030624	-1.469963
C	0.0	0.0	0.0
F	-1.815544	-0.062444	-1.576924
H	1.097815	0.0	0.0
C	0.006402	1.212796	-2.154256
N	0.293023	2.211225	-2.701108
C	0.146486	-1.227154	-2.224542
H	1.22835	-1.275517	-2.075373
H	-0.318514	-2.136295	-1.841416
H	-0.0819	-1.140819	-3.289091
C	-0.475024	-1.25767	0.725997
H	-1.555198	-1.398877	0.619416
H	0.039994	-2.15158	0.370055
H	-0.243173	-1.161918	1.789389
C	-0.505935	1.258144	0.698439
H	-1.600091	1.295427	0.709087
H	-0.146991	1.266825	1.730391
H	-0.128702	2.162779	0.216441
Cl	3.469754	0.0	0.0
