19

C	-0.382524	-0.098342	-1.478466
C	0.0	0.0	0.0
F	-1.746265	-0.448573	-1.600615
H	1.097821	0.0	0.0
C	-0.264103	1.212339	-2.152402
N	-0.202436	2.25383	-2.691057
C	0.446461	-1.123223	-2.231758
H	1.506068	-0.889769	-2.101303
H	0.18072	-1.121208	-3.290974
H	0.254157	-2.115387	-1.823757
C	-0.470052	-1.237915	0.762918
H	-1.561479	-1.285646	0.81415
H	-0.099829	-2.163506	0.318864
H	-0.073079	-1.1919	1.779899
C	-0.529099	1.267261	0.660955
H	-1.618405	1.337868	0.564871
H	-0.080016	2.162903	0.227795
H	-0.278178	1.256447	1.724572
Cl	3.483728	0.0	0.0
