17

C	0.0	0.0	0.0
C	-0.38642	-0.150689	-1.520892
Br	1.935457	0.0	0.0
H	0.388852	0.389271	-2.069378
N	-0.256404	1.501674	0.414598
O	-0.095067	2.375759	-0.430405
O	-0.557143	1.697411	1.587003
N	-0.677693	-0.878814	0.835199
H	-0.489699	-0.663141	1.80807
H	-1.702263	-0.698921	0.653336
N	-1.65363	0.381483	-1.948728
H	-1.588046	1.392909	-1.977328
H	-2.40443	0.155898	-1.257846
N	-0.250048	-1.57548	-1.812486
H	-0.759685	-2.0878	-1.099399
H	-0.753736	-1.701799	-2.684547
H	-3.279293	0.0	0.0
