17

C	0.0	0.0	0.0
C	-0.259969	0.047388	-1.569795
Br	1.945859	0.0	0.0
H	0.470176	0.778203	-1.931329
N	-0.602764	1.155431	0.676673
O	-0.612066	2.239476	0.017905
O	-0.582672	1.133244	1.935373
N	-0.259051	-1.264681	0.663188
H	0.214974	-1.221175	1.560836
H	-1.262056	-1.25525	0.841072
N	-1.603752	0.420596	-2.000712
H	-1.808419	1.309255	-1.553143
H	-1.512384	0.585428	-3.002767
N	0.023889	-1.222724	-2.216359
H	0.972932	-1.492795	-1.980013
H	-0.583752	-1.904037	-1.770868
H	-2.011704	0.0	0.0
