17

C	0.0	0.0	0.0
C	-0.40123	-0.132892	-1.523225
Br	1.935524	0.0	0.0
H	0.377669	0.409606	-2.063951
N	-0.27077	1.484508	0.442732
O	-0.59991	1.652412	1.610739
O	-0.087959	2.377034	-0.378027
N	-0.650612	-0.908796	0.829769
H	-0.463907	-0.69938	1.803026
H	-1.675543	-0.757279	0.658197
N	-1.661615	0.428012	-1.922391
H	-2.416151	0.204662	-1.229043
H	-1.573574	1.437563	-1.929163
N	-0.31551	-1.555853	-1.842513
H	-1.068381	-1.708579	-2.50413
H	-0.534419	-2.085674	-1.005667
H	-3.308035	0.0	0.0
