17

C	0.0	0.0	0.0
C	-0.407496	-0.107063	-1.546909
Br	1.94581	0.0	0.0
H	0.000962	0.732909	-2.104106
N	-0.799246	1.079773	0.586691
O	-0.858533	2.140362	-0.151856
O	-0.769547	1.155031	1.861031
N	-0.237421	-1.270724	0.69998
H	0.242627	-1.202542	1.596325
H	-1.237885	-1.283511	0.911016
N	-1.862119	-0.007186	-1.742048
H	-2.077386	0.983963	-1.633905
H	-2.029407	-0.302364	-2.706116
N	0.015796	-1.356415	-2.15582
H	1.014135	-1.291787	-2.318017
H	-0.100169	-2.070282	-1.435452
H	-1.901398	0.0	0.0
