17

C	0.0	0.0	0.0
C	-0.576357	0.067931	-1.42196
Br	1.938346	0.0	0.0
H	-1.648217	0.235213	-1.17373
N	-0.352991	1.299695	0.768198
O	-0.765831	1.198374	1.911126
O	-0.15923	2.367218	0.184988
N	-0.541928	-1.06703	0.743236
H	-1.567766	-0.853497	0.755158
H	-0.43396	-1.874804	0.13486
N	-0.456159	-1.264374	-2.006905
H	-1.359076	-1.548436	-2.367505
H	0.206352	-1.19236	-2.769562
N	0.009586	1.063908	-2.316023
H	0.367651	1.82824	-1.75897
H	-0.752331	1.451489	-2.864158
H	-3.113111	0.0	0.0
