17

C	0.0	0.0	0.0
C	-0.329875	-0.105617	-1.539091
Br	1.959285	0.0	0.0
H	0.375805	0.54739	-2.061393
N	-0.335912	1.414972	0.480757
O	-0.164557	2.322587	-0.330682
O	-0.712882	1.557704	1.634632
N	-0.620089	-0.928346	0.838101
H	-1.618865	-0.639796	0.889382
H	-0.601872	-1.799448	0.311448
N	-1.662903	0.262133	-1.914265
H	-1.709643	1.271818	-1.979338
H	-2.375956	0.014707	-1.171244
N	-0.131159	-1.5239	-1.868328
H	-0.77992	-1.707361	-2.623226
H	0.813712	-1.684571	-2.194026
H	-3.334178	0.0	0.0
