13

C	0.0	0.0	0.0
C	-0.566376	-0.009796	-1.429506
Cl	1.773091	0.0	0.0
H	-1.633	0.24235	-1.297113
H	-0.344865	0.899124	0.513785
C	-0.436966	-1.18144	0.744815
N	-0.654999	-2.151237	1.369734
N	-0.36756	-1.327998	-2.035017
H	-1.172607	-1.888876	-1.76991
H	-0.381578	-1.243493	-3.043987
C	0.068324	1.033044	-2.23296
N	0.544972	1.863653	-2.913114
Br	-3.590468	0.0	0.0
