13

C	0.0	0.0	0.0
C	-0.569757	-0.114708	-1.413381
Cl	1.78406	0.0	0.0
H	-1.665234	-0.087207	-1.247203
H	-0.337112	0.931595	0.457968
C	-0.418346	-1.136726	0.823465
N	-0.64572	-2.075713	1.490039
N	-0.200271	-1.375061	-2.025602
H	-0.930737	-1.674175	-2.65591
H	0.672254	-1.305554	-2.530864
C	-0.190777	1.066157	-2.205462
N	0.125099	1.970343	-2.887107
Br	-3.639434	0.0	0.0
