16

C	-0.47336	0.00078	-1.456563
C	0.0	0.0	0.0
Br	0.221424	1.583332	-2.399811
H	1.091374	0.0	0.0
C	0.110585	-1.180815	-2.091981
N	0.615014	-2.168631	-2.483565
C	-1.924795	-0.02543	-1.623695
N	-3.090111	-0.093968	-1.76921
C	-0.57737	-1.155572	0.787677
H	-0.222832	-2.106422	0.384
H	-1.671098	-1.1388	0.783444
H	-0.230742	-1.081589	1.822449
N	-0.420691	1.245385	0.715993
O	-1.603987	1.573587	0.594662
O	0.460712	1.852403	1.285606
Br	2.750365	0.0	0.0
