13

C	0.0	0.0	0.0
C	-0.526017	-0.174986	-1.40369
Br	1.914733	0.0	0.0
H	-0.186728	0.63778	-2.044519
H	-0.41832	0.88871	0.474414
H	-1.644773	-0.19378	-1.249699
N	-0.305584	-1.277896	1.135934
O	0.676647	-1.963403	1.363929
O	-1.397068	-1.381356	1.658801
N	-0.017002	-1.399364	-2.101614
O	0.080451	-2.454756	-1.470429
O	0.255404	-1.28621	-3.309664
F	-2.566951	0.0	0.0
