16

C	-0.318058	0.251727	-1.494728
C	0.0	0.0	0.0
Br	-2.285033	0.410404	-1.762062
H	1.108373	0.0	0.0
C	0.369627	1.506844	-2.007041
H	-0.005327	2.37734	-1.466397
H	0.191888	1.641005	-3.074818
H	1.441854	1.395063	-1.81193
C	0.078846	-0.925255	-2.263698
N	0.397351	-1.868914	-2.889201
N	-0.45578	-1.250175	0.560778
H	0.192385	-1.981709	0.299156
H	-1.389203	-1.481846	0.242342
C	-0.482971	1.133593	0.793078
N	-0.892442	2.046405	1.408968
Cl	3.256453	0.0	0.0
