16

C	-0.37643	0.114241	-1.507293
C	0.0	0.0	0.0
Br	0.047062	1.917115	-2.160598
H	1.103069	0.0	0.0
C	0.433399	-0.891423	-2.321849
H	0.231125	-0.773245	-3.387213
H	1.493376	-0.726288	-2.112857
H	0.16023	-1.906349	-2.023135
C	-1.812811	-0.083907	-1.692832
N	-2.959718	-0.316938	-1.81445
N	-0.405291	-1.258299	0.599744
H	0.28422	-1.970519	0.403975
H	-1.330242	-1.556113	0.314274
C	-0.562698	1.108726	0.775207
N	-1.063268	1.959346	1.41182
Cl	3.295375	0.0	0.0
