16

C	-0.387152	0.06503	-1.483512
C	0.0	0.0	0.0
Br	-2.362679	0.223507	-1.655274
H	1.096339	0.0	0.0
C	0.280489	1.243582	-2.17634
H	0.047401	1.249286	-3.241865
H	-0.060542	2.17916	-1.728845
H	1.36051	1.144671	-2.02442
C	-0.039242	-1.194812	-2.137005
N	0.230698	-2.168031	-2.738051
N	-0.458054	-1.22282	0.628494
H	-1.347535	-1.095802	1.092773
H	0.236353	-1.524219	1.29998
C	-0.436405	1.222242	0.689822
N	-0.810169	2.165874	1.283463
Cl	3.249376	0.0	0.0
