16

C	-0.549089	0.21724	-1.432594
C	0.0	0.0	0.0
Br	0.256435	-1.127275	-2.609746
H	1.108174	0.0	0.0
C	-2.064249	0.056014	-1.488033
H	-2.53617	0.817065	-0.858187
H	-2.423952	0.168539	-2.512183
H	-2.31593	-0.938749	-1.120901
C	-0.16381	1.529714	-1.945938
N	0.064583	2.600941	-2.371695
N	-0.42819	-1.299715	0.513611
H	-1.132311	-1.200971	1.233683
H	0.386158	-1.750848	0.914593
C	-0.477311	1.103095	0.840758
N	-0.925346	1.944318	1.530187
Cl	3.24132	0.0	0.0
