16

C	-0.548012	-0.140911	-1.443633
C	0.0	0.0	0.0
Br	0.251655	-1.742269	-2.245851
H	1.10772	0.0	0.0
C	-2.063069	-0.30086	-1.461632
H	-2.321411	-1.165767	-0.850278
H	-2.420293	-0.451609	-2.481181
H	-2.531178	0.598428	-1.049889
C	-0.149647	1.000078	-2.264586
N	0.095525	1.932726	-2.937789
N	-0.433516	-1.136888	0.815354
H	-1.068388	-0.845934	1.54552
H	0.393515	-1.532368	1.247069
C	-0.48793	1.267335	0.550977
N	-0.96092	2.234167	1.025561
Cl	3.25499	0.0	0.0
