14

C	-0.483048	0.007858	-1.443961
C	0.0	0.0	0.0
F	-0.017609	1.178128	-2.057177
H	1.093452	0.0	0.0
H	-0.032444	-0.832974	-1.985556
H	-0.346011	0.922753	0.479176
C	-1.991506	0.005352	-1.612228
H	-2.421661	0.854045	-1.071288
H	-2.441567	-0.917997	-1.238863
H	-2.248644	0.104829	-2.669259
N	-0.441137	-1.150369	0.788108
H	-1.431432	-1.33007	0.667789
H	0.075249	-1.973929	0.501146
Cl	3.668232	0.0	0.0
