14

C	0.0	0.0	0.0
C	-0.426608	0.466107	-1.396092
F	1.429228	0.0	0.0
H	-0.079761	-0.256284	-2.137275
H	-1.531547	0.474339	-1.360753
N	-0.413444	0.859007	1.071163
H	-1.442785	0.823162	1.027849
H	-0.115047	1.811529	0.881862
N	-0.481114	-1.330003	0.168618
H	-1.509484	-1.222568	0.080258
H	-0.313143	-1.56326	1.144196
C	0.084811	1.791603	-1.713919
N	0.455588	2.874862	-1.975222
H	-2.986346	0.0	0.0
