14

C	0.0	0.0	0.0
C	-0.486945	-0.096026	-1.442685
F	1.383686	0.0	0.0
H	-1.590588	-0.132539	-1.372177
H	-0.191671	0.814713	-1.965633
N	-0.4493	1.276279	0.50379
H	-1.481329	1.189637	0.451927
H	-0.21196	1.31277	1.490696
N	-0.439116	-1.178243	0.696695
H	-0.173402	-1.088413	1.675256
H	-1.467614	-1.110449	0.655743
C	0.041403	-1.256363	-2.143029
N	0.437699	-2.167523	-2.767112
H	-3.012742	0.0	0.0
