14

C	0.0	0.0	0.0
C	-0.435915	-0.265833	-1.44529
F	1.414456	0.0	0.0
H	-0.108595	0.56954	-2.073362
H	-1.540991	-0.27623	-1.406181
N	-0.429689	1.2842	0.483782
H	-0.160499	2.006806	-0.177519
H	-1.459029	1.211754	0.475475
N	-0.47802	-1.058679	0.820498
H	-0.303155	-0.782802	1.783318
H	-1.503935	-1.02481	0.690264
C	0.095406	-1.505238	-1.998075
N	0.54155	-2.482205	-2.472837
H	-2.999197	0.0	0.0
