14

C	0.0	0.0	0.0
C	-0.427582	-0.0115	-1.47133
F	1.43129	0.0	0.0
H	-1.532659	0.007977	-1.436535
H	-0.084115	-0.937757	-1.936537
N	-0.414228	1.157427	0.736473
H	-0.120169	1.999769	0.250993
H	-1.443285	1.106361	0.710458
N	-0.480988	-1.205074	0.588656
H	-1.508447	-1.133445	0.465709
H	-0.316309	-1.111822	1.587757
C	0.086616	1.135094	-2.20533
N	0.48629	2.066672	-2.798572
H	-2.986154	0.0	0.0
