14

C	0.0	0.0	0.0
C	-0.480584	0.017081	-1.454625
F	1.404512	0.0	0.0
H	-1.587996	0.059866	-1.336321
H	-0.126074	0.919941	-1.964336
N	-0.408389	1.247257	0.588579
H	-0.542681	1.095017	1.580799
H	0.336409	1.921209	0.447409
N	-0.543175	-1.060958	0.775105
H	-0.344095	-1.94326	0.31178
H	-1.576098	-0.891664	0.698005
C	-0.070509	-1.158922	-2.208751
N	0.270407	-2.10061	-2.823204
H	-3.093265	0.0	0.0
