14

C	0.0	0.0	0.0
C	-0.451009	0.079527	-1.466993
F	1.384553	0.0	0.0
H	-0.114104	1.027187	-1.895033
H	-1.555999	0.055288	-1.420361
N	-0.489801	1.177414	0.646608
H	-0.320405	1.037566	1.639592
H	-1.516086	1.108271	0.525048
N	-0.426409	-1.190928	0.684157
H	-1.454622	-1.136638	0.657983
H	-0.13357	-2.010716	0.16018
C	0.058712	-1.032795	-2.256757
N	0.458163	-1.940872	-2.886786
H	-3.007262	0.0	0.0
