12

C	-0.200621	0.095444	-1.376571
C	-0.102336	-0.04563	0.116077
F	-1.463432	0.450171	-1.807504
H	0.97951	-0.097408	0.253368
H	0.554544	0.781391	-1.756899
H	-0.591997	-0.956724	0.460338
N	0.075882	-1.220661	-2.066223
O	-0.07996	-2.266301	-1.440629
O	0.350745	-1.1392	-3.259402
C	-0.662111	1.117072	0.786682
N	-1.099137	2.048409	1.353213
H	2.530198	0.122665	-0.6729
