12

C	-0.215586	0.124362	-1.384976
C	-0.087641	-0.046076	0.102352
F	-1.493306	0.460728	-1.785987
H	0.997219	-0.077668	0.219822
H	0.517878	0.83439	-1.763611
H	-0.551903	-0.97459	0.435122
N	0.076231	-1.170562	-2.107644
O	0.328444	-1.058036	-3.303287
O	-0.046928	-2.23239	-1.502279
C	-0.659944	1.089869	0.807282
N	-1.105323	2.000305	1.400637
H	2.526286	0.198494	-0.727799
