12

C	-0.389083	0.215413	-1.299185
C	-0.040839	0.086358	0.166039
F	-0.161606	1.498279	-1.694512
H	1.038415	-0.07218	0.097562
H	0.234077	-0.468715	-1.884412
H	-0.296463	1.018881	0.67589
N	-1.840192	-0.079622	-1.564009
O	-2.115442	-1.258916	-1.778755
O	-2.642513	0.849821	-1.521716
C	-0.66329	-1.040618	0.83782
N	-1.137821	-1.939522	1.426871
H	2.329482	-0.596294	-0.95497
