12

C	-0.215239	0.072481	-1.386149
C	-0.093641	-0.039793	0.107184
F	-1.487676	0.406219	-1.80542
H	0.99083	-0.077823	0.228546
H	0.526925	0.759033	-1.79026
H	-0.567978	-0.949718	0.475216
N	0.065329	-1.253298	-2.055532
O	0.321979	-1.19104	-3.253922
O	-0.069961	-2.28881	-1.408678
C	-0.656134	1.128998	0.764425
N	-1.093155	2.06709	1.319734
H	2.525302	0.140551	-0.71891
