12

C	-0.337994	0.168572	-1.336313
C	-0.055042	0.049146	0.144061
F	-0.199505	1.47117	-1.707033
H	1.035433	-0.023184	0.129328
H	0.369522	-0.452815	-1.895101
H	-0.407835	0.953288	0.646869
N	-1.743822	-0.243604	-1.679136
O	-1.907871	-1.440284	-1.910688
O	-2.621643	0.615861	-1.679265
C	-0.618767	-1.130796	0.775535
N	-1.040506	-2.075488	1.33225
H	2.417734	-0.414072	-0.856975
