12

C	-0.490601	0.011884	-1.409371
C	-0.004076	0.030602	0.022886
F	-0.356554	-1.228848	-1.945823
H	1.088661	0.058317	0.026631
H	-1.528246	0.333261	-1.538803
H	-0.279226	-0.930767	0.46624
N	0.298087	0.986644	-2.266308
O	0.791938	0.585848	-3.309094
O	0.288888	2.139804	-1.851481
C	-0.601327	1.09978	0.801354
N	-1.079008	1.948495	1.459836
H	2.683986	-0.102318	-0.145579
