12

C	-0.209902	0.117204	-1.383307
C	-0.097508	-0.046811	0.10574
F	-1.483457	0.448872	-1.800933
H	0.987594	-0.074604	0.232976
H	0.525543	0.827729	-1.757095
H	-0.561569	-0.97565	0.43777
N	0.093616	-1.17994	-2.097463
O	0.361279	-1.071135	-3.290137
O	-0.036019	-2.239823	-1.490163
C	-0.67954	1.090429	0.799995
N	-1.131768	2.003638	1.383908
H	2.525151	0.193225	-0.684593
