12

C	-0.489919	0.020501	-1.40866
C	-0.000682	0.026331	0.022611
F	-0.347823	-1.213052	-1.959441
H	1.093194	0.060949	0.024431
H	-1.530142	0.335752	-1.53265
H	-0.268942	-0.941421	0.456125
N	0.290039	1.010588	-2.255988
O	0.274328	2.15871	-1.827588
O	0.783938	0.625409	-3.304651
C	-0.601938	1.083132	0.814661
N	-1.082449	1.919997	1.486172
H	2.687233	-0.087352	-0.146533
