15

C	-0.200155	0.03348	0.046511
C	-0.691298	-0.363689	-1.343179
F	1.10727	0.526294	-0.049238
H	-1.598851	-0.962087	-1.188481
H	-0.838733	0.846633	0.392245
C	-0.216879	-1.116367	1.024447
H	0.20139	-0.791423	1.979546
H	0.379776	-1.953873	0.652258
H	-1.249008	-1.433872	1.181627
C	0.314019	-1.205037	-2.00611
N	1.08882	-1.903219	-2.545136
N	-0.961494	0.836077	-2.139702
H	-1.82456	1.200074	-1.730829
H	-1.207156	0.540776	-3.079627
Cl	-3.610098	0.514855	-0.156571
