15

C	-0.124645	-0.088332	0.018542
C	-0.552749	-0.014557	-1.444904
F	1.251362	0.221374	0.077477
H	-1.61999	-0.254658	-1.467916
H	-0.663057	0.703785	0.539347
C	-0.34649	-1.429914	0.670079
H	-1.415569	-1.652843	0.676456
H	0.007964	-1.404678	1.702848
H	0.189357	-2.217473	0.134722
C	0.183904	-1.018892	-2.233782
N	0.772107	-1.835906	-2.838092
N	-0.403108	1.305198	-2.044074
H	-1.183181	1.847906	-1.674612
H	0.458821	1.711299	-1.696678
Cl	-3.15005	1.553	-0.149472
