14
Coordinates from ORCA-job run
  C   0.89401925589868      0.33253264196004     -0.34599326128632
  C   -0.57440940393605      0.11938736535644     -0.06087716672651
  H   1.00527018497719      1.00584372920429     -1.19938012813328
  H   -1.01460251768752     -0.56029357898835     -0.79962566845829
  H   1.41407469457363      0.74304158024585      0.51533040758689
  N   1.59600408626743     -0.92902948063312     -0.73112379727768
  O   2.76880809563743     -1.03014170149933     -0.39405971417760
  O   0.96298235665595     -1.74207939088738     -1.39986238201787
  N   -1.22594611233728      1.40029712334398      0.09366930350587
  H   -2.16091382401295      1.25107201506844      0.45426456315031
  H   -1.30580567544641      1.84829145251479     -0.81113303069884
  N   -0.73698395566175     -0.61984549785821      1.24776077992189
  O   0.23407078344902     -1.22924001960058      1.68404191862878
  O   -1.85656796837736     -0.59083623822685      1.74798817598264
