14
Coordinates from ORCA-job run
  C   0.79780901534729     -0.57036021868924     -0.00936883249436
  C   -0.64087558879982     -0.05697377298554     -0.01645681016975
  H   0.84530286455820     -1.64592523400327     -0.18793671010469
  H   -1.15743375167605     -0.39291124221535     -0.91379118498746
  H   1.30671257573390     -0.29717151557164      0.91346568753736
  N   1.50550153253458      0.10360405576232     -1.13096154428292
  O   2.41335925620951      0.88118801302301     -0.84720643647937
  O   1.09122670812189     -0.14313163096467     -2.26159197324387
  N   -0.80017938634266      1.34689525918553      0.15237893455641
  H   -0.83792474497238      1.83655155456911     -0.72822214196493
  H   -0.11259338637129      1.75736771241929      0.76797030492932
  N   -1.31570109828718     -0.76547270660675      1.13616402162227
  O   -2.11348404719920     -1.65870508712338      0.86774989809311
  O   -0.98071994885677     -0.39595518679944      2.25780678698888
