14
Coordinates from ORCA-job run
  C   0.75696805927143     -0.62050654708211     -0.05158990073139
  C   -0.64443028676491     -0.01288259244804     -0.00977033380221
  H   1.29426895563877     -0.43092550837722      0.87622573788793
  H   -1.19455791010566     -0.27048913374580     -0.91315282320208
  H   0.72779410667166     -1.68559203314753     -0.28721498063513
  N   1.49384381802318      0.06409779774102     -1.14706757330822
  O   2.43797071993911      0.78572555072155     -0.83479279867596
  O   1.06325054316080     -0.11197349604710     -2.28485277028862
  N   -0.71060883029107      1.38817219524798      0.23022402965805
  H   0.00541582944098      1.71924560720634      0.86128272255865
  H   -0.71186345179650      1.92179266135412     -0.62559324886860
  N   -1.34675717774348     -0.73486530630536      1.11784649521580
  O   -0.99583217033676     -0.42298905056307      2.25182570447846
  O   -2.17646220510756     -1.58781014455476      0.81662973971331
