14
Coordinates from ORCA-job run
  C   0.28400667780747     -0.29625463610507     -1.00916613593928
  C   -0.79753247836534      0.18545266259745     -0.03297625092704
  H   0.37864158376833      0.41415830680984     -1.83021083824962
  H   -1.76237857090224      0.08345429364751     -0.53192267413768
  H   0.06832258313719     -1.30113907132267     -1.36812192000609
  N   1.60606992163662     -0.34837583959385     -0.32436175400256
  O   2.13983473589219      0.73450051591654     -0.07905602663758
  O   2.05227327779407     -1.45428768170043     -0.03383366805306
  N   -0.67259409081481      1.47583120984985      0.54219974410421
  H   -1.11592756877792      2.18118698992373     -0.02676744881845
  H   0.28731110193820      1.72501465139511      0.73587185494787
  N   -0.83112393865709     -0.86743846301361      1.06734136068198
  O   -0.18512270888358     -0.63443523601440      2.08083072604654
  O   -1.45078052557310     -1.89566770239001      0.80917303099076
