19

C	-0.342245	0.02562	-1.506506
C	0.0	0.0	0.0
F	-1.710206	0.328746	-1.62324
H	1.092429	0.0	0.0
N	0.378153	1.007794	-2.269876
H	0.327911	1.893563	-1.778529
H	1.361616	0.74362	-2.239551
C	-0.105084	-1.337544	-2.124134
H	-0.24593	-1.240592	-3.201804
H	-0.812247	-2.069094	-1.73353
H	0.91609	-1.668669	-1.918389
C	-0.542584	-1.184036	0.770624
H	-1.619327	-1.299141	0.632854
H	-0.026096	-2.085832	0.441088
H	-0.341255	-1.058669	1.834362
N	-0.479719	1.273053	0.620813
O	-1.360214	1.212215	1.480258
O	0.012175	2.331608	0.226226
Cl	3.334005	0.0	0.0
