19

C	-0.475757	0.059221	-1.461493
C	0.0	0.0	0.0
F	-0.238185	-1.252478	-1.965313
H	1.090881	0.0	0.0
N	-1.866365	0.36376	-1.532105
H	-2.405603	-0.32969	-1.028157
H	-2.165215	0.368712	-2.499785
C	0.341477	0.986359	-2.332826
H	0.134382	2.024608	-2.083046
H	0.084037	0.797755	-3.38017
H	1.402138	0.785322	-2.173431
C	-0.485315	-1.218201	0.759277
H	-0.060486	-2.101887	0.285036
H	-0.120293	-1.169832	1.785598
H	-1.573631	-1.302505	0.792303
N	-0.449965	1.257007	0.676209
O	-1.326473	1.175038	1.538958
O	0.073564	2.310244	0.321712
Cl	3.394031	0.0	0.0
