19

C	-0.469061	0.011942	-1.467326
C	0.0	0.0	0.0
F	-0.132985	-1.271236	-1.944434
H	1.090143	0.0	0.0
N	-1.888096	0.163175	-1.573621
H	-2.147521	0.773271	-2.335324
H	-2.318045	0.472568	-0.712708
C	0.325625	0.977527	-2.322412
H	0.062384	0.808061	-3.371367
H	1.392386	0.801085	-2.17629
H	0.102284	2.009835	-2.053074
C	-0.522113	-1.183922	0.788385
H	-0.059292	-2.079588	0.37814
H	-1.606083	-1.282619	0.738539
H	-0.220509	-1.089264	1.832544
N	-0.445166	1.284744	0.621936
O	-1.517529	1.284982	1.243331
O	0.248616	2.284374	0.452131
Cl	3.403702	0.0	0.0
