19

C	-0.428922	-0.044512	-1.471058
C	0.0	0.0	0.0
F	-1.725435	-0.642973	-1.561795
H	1.090588	0.0	0.0
N	-0.440745	1.248537	-2.056476
H	-1.187645	1.80145	-1.658045
H	-0.566866	1.171945	-3.056894
C	0.519336	-0.94997	-2.23136
H	1.541692	-0.582477	-2.132091
H	0.218568	-0.98297	-3.283009
H	0.475658	-1.964706	-1.835089
C	-0.501799	-1.178013	0.822281
H	-1.591357	-1.185885	0.867484
H	-0.081123	-1.112057	1.827511
H	-0.15601	-2.110871	0.376514
N	-0.47889	1.229677	0.698049
O	0.244716	1.716516	1.56013
O	-1.614208	1.642074	0.42712
Cl	3.447778	0.0	0.0
