19

C	-0.375937	-0.095649	-1.486
C	0.0	0.0	0.0
F	-0.177977	1.208911	-2.024135
H	1.090389	0.0	0.0
N	0.520453	-1.032662	-2.055413
H	0.419087	-1.062272	-3.062102
H	1.482562	-0.805289	-1.805197
C	-1.816647	-0.434223	-1.802283
H	-2.48164	0.291714	-1.335582
H	-2.063448	-1.436452	-1.451947
H	-1.954906	-0.394219	-2.886416
C	-0.506182	-1.155929	0.838453
H	-1.594603	-1.170248	0.898376
H	-0.094855	-1.079027	1.847284
H	-0.143448	-2.083266	0.393677
N	-0.508178	1.287841	0.549904
O	0.284578	2.206675	0.719509
O	-1.720154	1.35221	0.794727
Cl	3.417139	0.0	0.0
