19

C	-0.471899	0.057033	-1.464095
C	0.0	0.0	0.0
F	-0.282985	-1.267379	-1.950566
H	1.090895	0.0	0.0
N	-1.849852	0.410844	-1.542228
H	-2.413878	-0.24857	-1.022787
H	-2.149373	0.404851	-2.509217
C	0.380024	0.943365	-2.33971
H	0.221085	1.988702	-2.088199
H	0.110303	0.767273	-3.386016
H	1.430622	0.698368	-2.181918
C	-0.489482	-1.216291	0.760685
H	-1.57627	-1.317085	0.764747
H	-0.154175	-1.151344	1.794905
H	-0.040976	-2.09922	0.308678
N	-0.44577	1.263168	0.667582
O	-1.336851	1.193046	1.518389
O	0.08828	2.309056	0.311712
Cl	3.394272	0.0	0.0
