15

C	-0.541705	-0.016835	-1.426563
C	0.0	0.0	0.0
F	-1.976886	0.023604	-1.301986
H	1.089821	0.0	0.0
H	-0.344339	-1.007672	-1.842125
N	-0.045946	0.974333	-2.281126
H	-0.537804	0.991953	-3.162216
H	-0.009396	1.88362	-1.8425
N	-0.443904	-1.101111	0.786476
H	0.261832	-1.822319	0.799511
H	-1.34574	-1.451382	0.498251
N	-0.483145	1.294262	0.638463
O	-1.329603	1.246173	1.52204
O	-0.008646	2.338236	0.183383
Cl	3.355196	0.0	0.0
