15

C	-0.580722	0.012217	-1.406278
C	0.0	0.0	0.0
F	0.039052	-1.021131	-2.12023
H	1.090273	0.0	0.0
H	-0.335663	0.937922	-1.923843
N	-1.989327	-0.173724	-1.337817
H	-2.150114	-1.072171	-0.894836
H	-2.383417	-0.192464	-2.269411
N	-0.484008	-1.125125	0.750607
H	-1.195218	-0.81351	1.400948
H	0.287594	-1.503523	1.284744
N	-0.406936	1.318402	0.637174
O	-0.129555	2.339747	0.017799
O	-0.983153	1.296865	1.724882
Cl	3.330217	0.0	0.0
