15

C	-0.521064	-0.058356	-1.434759
C	0.0	0.0	0.0
F	-0.151113	-1.277936	-1.97678
H	1.091054	0.0	0.0
H	-0.039627	0.709501	-2.046967
N	-1.967505	-0.037273	-1.438647
H	-2.300533	-0.023525	-2.391959
H	-2.30975	0.791332	-0.972929
N	-0.489363	-1.04052	0.829662
H	-1.313509	-1.471529	0.433688
H	0.242286	-1.717951	0.9752
N	-0.445543	1.368863	0.498939
O	0.006052	2.333786	-0.122761
O	-1.256324	1.446612	1.418064
Cl	3.355518	0.0	0.0
