15

C	-0.580801	0.003325	-1.406375
C	0.0	0.0	0.0
F	0.028519	-1.043104	-2.10979
H	1.090284	0.0	0.0
H	-0.32687	0.921124	-1.933364
N	-1.990749	-0.16787	-1.335249
H	-2.16017	-1.060717	-0.884774
H	-2.386388	-0.188729	-2.266413
N	-0.488777	-1.118198	0.758648
H	-1.187163	-0.795369	1.417325
H	0.28398	-1.50432	1.284891
N	-0.406259	1.323664	0.625797
O	-0.118711	2.339812	0.002053
O	-0.9942	1.311846	1.707485
Cl	3.332124	0.0	0.0
