15

C	-0.543488	-0.010332	-1.425986
C	0.0	0.0	0.0
F	-0.142632	-1.199422	-2.021306
H	1.089834	0.0	0.0
H	-0.079938	0.787841	-2.011249
N	-1.980588	0.010688	-1.410404
H	-2.34577	0.521321	-0.617946
H	-2.357482	0.397596	-2.262955
N	-0.494896	-1.058568	0.807881
H	0.262428	-1.690567	1.021832
H	-1.253535	-1.553975	0.362476
N	-0.437042	1.359103	0.539951
O	-1.362587	1.418934	1.34981
O	0.128031	2.334691	0.049409
Cl	3.355834	0.0	0.0
