15

C	-0.554136	0.003561	-1.420563
C	0.0	0.0	0.0
F	-1.991158	0.036685	-1.276762
H	1.089691	0.0	0.0
H	-0.361545	-0.981684	-1.850531
N	-0.076729	1.005061	-2.270707
H	-0.043836	1.909048	-1.823739
H	-0.577092	1.025649	-3.146166
N	-0.434282	-1.119672	0.765357
H	-1.319151	-1.491929	0.457273
H	0.289439	-1.820313	0.794962
N	-0.473879	1.283163	0.674198
O	-0.052059	2.337539	0.192307
O	-1.248029	1.217718	1.619326
Cl	3.341385	0.0	0.0
