16

C	-0.474326	0.006285	-1.453059
C	0.0	0.0	0.0
Br	0.202253	-1.619199	-2.446492
H	1.093638	0.0	0.0
H	0.014165	0.822137	-1.985728
N	-1.892352	0.134445	-1.566774
H	-2.346264	-0.682645	-1.178742
H	-2.169235	0.215581	-2.536662
C	-0.540586	-1.162164	0.817176
H	-0.086992	-1.112838	1.807272
H	-1.626717	-1.084735	0.950062
H	-0.296014	-2.126244	0.367859
N	-0.398658	1.267512	0.630493
H	-1.278329	1.577439	0.232169
H	0.311812	1.963349	0.431754
Cl	3.528285	0.0	0.0
