16

C	-0.438018	0.036231	-1.468338
C	0.0	0.0	0.0
Br	0.088262	-1.579944	-2.44809
H	1.095615	0.0	0.0
H	0.141271	0.818701	-1.976477
N	-1.883871	0.170036	-1.629524
H	-2.149169	1.083732	-1.272108
H	-2.106119	0.163334	-2.61911
C	-0.544302	-1.190085	0.766105
H	-1.638309	-1.205188	0.737874
H	-0.17454	-2.127669	0.352805
H	-0.209552	-1.10888	1.800915
N	-0.396376	1.23149	0.692761
H	-1.400588	1.363247	0.679525
H	0.0667	2.038869	0.289813
Cl	3.608344	0.0	0.0
