16

C	-0.284379	-0.011947	-1.494613
C	0.0	0.0	0.0
Br	-2.270587	-0.019049	-1.81467
H	1.102009	0.0	0.0
H	0.04557	-0.953877	-1.936472
N	0.294641	1.08907	-2.199763
H	1.292928	0.895798	-2.257812
H	0.189416	1.89343	-1.585775
C	-0.505155	-1.220386	0.75045
H	-0.092944	-1.222829	1.762958
H	-1.597956	-1.223269	0.811376
H	-0.185042	-2.144	0.258683
N	-0.415323	1.284081	0.5609
H	0.214493	1.53189	1.313498
H	-1.357534	1.22065	0.929588
Cl	3.446643	0.0	0.0
