16

C	-0.567143	0.01698	-1.408865
C	0.0	0.0	0.0
Br	0.124445	1.548594	-2.432882
H	1.10045	0.0	0.0
H	-1.641062	0.23946	-1.33241
N	-0.238087	-1.178931	-2.158928
H	-0.748129	-1.958803	-1.757318
H	-0.533872	-1.071329	-3.123071
C	-0.469374	-1.266783	0.707745
H	0.013039	-2.147301	0.280814
H	-1.560868	-1.366753	0.664993
H	-0.174524	-1.224104	1.759878
N	-0.550607	1.162527	0.720756
H	-0.130927	1.992261	0.310692
H	-0.174745	1.120226	1.663768
Cl	3.603899	0.0	0.0
