16

C	-0.541062	0.030843	-1.432588
C	0.0	0.0	0.0
Br	0.028137	-1.543051	-2.440768
H	1.099816	0.0	0.0
H	-0.074465	0.867025	-1.96004
N	-1.986698	0.154836	-1.551777
H	-2.408891	-0.716007	-1.2462
H	-2.232323	0.864282	-0.863116
C	-0.521502	-1.157367	0.829365
H	-1.606244	-1.091862	0.965509
H	-0.049175	-1.135478	1.815155
H	-0.272139	-2.113592	0.369074
N	-0.483704	1.274839	0.595771
H	-0.406657	1.189187	1.604343
H	0.190984	1.991478	0.340356
Cl	3.53887	0.0	0.0
