16

C	-0.313799	-0.341084	-1.470928
C	0.0	0.0	0.0
Br	-0.497198	1.437016	-2.607222
H	1.097792	0.0	0.0
H	-1.323778	-0.721351	-1.643284
N	0.660323	-1.193058	-1.967483
H	0.555256	-1.443256	-2.93789
H	1.605449	-0.891382	-1.735587
C	-0.490951	-1.166492	0.853393
H	-0.122391	-1.030478	1.871584
H	-0.126479	-2.118179	0.463246
H	-1.588325	-1.189805	0.884102
N	-0.501968	1.243386	0.549092
H	-1.472416	1.370933	0.281856
H	0.019349	2.010073	0.141135
Cl	3.50308	0.0	0.0
