18

C	0.005099	-0.032289	-1.529616
C	0.0	0.0	0.0
Br	-1.786071	-0.251978	-2.383864
H	1.095	0.0	0.0
N	0.531224	1.238309	-1.982157
H	1.43173	1.312502	-1.497884
H	0.709762	1.173758	-2.979438
N	0.785946	-1.212243	-1.857311
H	1.682939	-1.043325	-1.368847
H	0.952976	-1.220426	-2.857995
C	-0.636228	-1.181186	0.683762
H	-0.462867	-1.120345	1.761866
H	-1.711426	-1.217382	0.501349
H	-0.170436	-2.088853	0.303238
N	-0.543398	1.276324	0.51703
O	0.226334	2.222127	0.673011
O	-1.749355	1.317126	0.784407
F	2.661258	0.0	0.0
