18

C	-0.1632	0.04016	-1.547056
C	0.0	0.0	0.0
Br	-0.109259	-1.975068	-2.16095
H	1.090712	0.0	0.0
N	-1.365259	0.627371	-1.987158
H	-2.175037	0.164685	-1.596023
H	-1.405004	0.610384	-2.998507
N	0.957624	0.630577	-2.193186
H	0.841436	1.63312	-2.072927
H	1.788886	0.372766	-1.62521
C	-0.65138	-1.088859	0.81257
H	-0.57562	-0.839171	1.87211
H	-0.113547	-2.018305	0.638678
H	-1.708796	-1.236814	0.57606
N	-0.457344	1.343231	0.459651
O	0.189508	2.328224	0.105095
O	-1.477352	1.414525	1.156374
F	2.633142	0.0	0.0
