18

C	-0.268821	-0.022415	-1.476837
C	0.0	0.0	0.0
Br	-2.59584	0.17693	-1.600599
H	1.095561	0.0	0.0
N	0.30791	0.952307	-2.205788
H	0.426802	1.837472	-1.738515
H	0.069858	0.947448	-3.184414
N	-0.121458	-1.277257	-2.13621
H	-0.722676	-1.968498	-1.70974
H	0.856268	-1.53439	-2.009332
C	-0.489414	-1.191474	0.782657
H	0.013965	-2.085443	0.41212
H	-1.573837	-1.314452	0.72949
H	-0.196982	-1.070047	1.824631
N	-0.421937	1.264397	0.631643
O	-1.030508	1.223534	1.702087
O	-0.097879	2.327942	0.087113
F	2.507168	0.0	0.0
