17
Coordinates from ORCA-job run
  C   0.83005620341201     -0.11323167912520     -0.23620973564671
  C   -0.61927887719272      0.17716679381788      0.21546845479985
  Cl  1.00353574032087     -1.87537319963046     -0.59338330812367
  H   -0.64218069409516      1.26366249722741      0.37143712746160
  C   1.20810187207500      0.66690955643994     -1.48814877061125
  H   1.14812981509434      1.73814426691313     -1.27708347470660
  H   0.50502665271185      0.41964155322874     -2.28079207617226
  H   2.22571618352763      0.42344187686113     -1.79548694548158
  C   1.75505734535057      0.20555395212095      0.85200016031917
  N   2.48088366593126      0.51400996868685      1.72307444590244
  C   -0.98982211757776     -0.50999197401678      1.52698964522050
  H   -2.00328129751538     -0.21649191215939      1.81144948880444
  H   -0.31624236043724     -0.23657562020642      2.34240475876810
  H   -0.97044062179994     -1.59595164389822      1.41163999079595
  N   -1.51608646266312     -0.10877861743979     -0.89786685746633
  H   -2.40328215489988      0.35370838718675     -0.74204684519684
  H   -1.69589289224233     -1.10584420600652     -0.94144605866682
