17
Coordinates from ORCA-job run
  C   0.91975911358100      0.32303220566630     -0.02020809093107
  C   -0.38546797293696     -0.01772607582204      0.73434317966720
  Cl  2.11214903349578      0.96182127667987      1.16081228324440
  H   -0.07767026439389     -0.65633275497807      1.56983898857993
  C   1.54967982881916     -0.87884056161697     -0.71675056069495
  H   1.68650731640446     -1.68627498325931      0.00624257491366
  H   0.91823875110398     -1.22637777915887     -1.53553368375176
  H   2.52427214677705     -0.60584006613418     -1.12197523754941
  C   0.63438638729416      1.37833463376146     -0.99438069149052
  N   0.34200271901705      2.18222846622911     -1.80012721252026
  C   -1.36912836094431     -0.78053459327048     -0.15506778709735
  H   -0.99912506077692     -1.76167752893804     -0.45821159741793
  H   -1.60705973096243     -0.20276019756675     -1.05404070003122
  H   -2.29830779802853     -0.93151701132586      0.39928945592296
  N   -0.93176649696257      1.20821222879210      1.29565462575211
  H   -1.52635537336105      0.99908874663615      2.08684492302401
  H   -1.49211423812598      1.69316399430558      0.60326953038022
