17
Coordinates from ORCA-job run
  C   0.81187341402291     -0.11529682507146     -0.29256578231243
  C   -0.60156401507100      0.17573701322307      0.26224874821676
  Cl  0.92754220898554     -1.85794688584690     -0.75098398775116
  H   -0.59230569321648      1.25267659573028      0.47523541834114
  C   1.12821111445422      0.72416842870896     -1.52322098016899
  H   2.12108651680927      0.48202267107428     -1.90373458618852
  H   0.37420294848176      0.52918979000992     -2.28290316872130
  H   1.09992722520377      1.78354695391739     -1.25378909474549
  C   1.80752530856862      0.13001966337627      0.75165724507625
  N   2.59433469933034      0.38011842491589      1.58776408726420
  C   -0.90484054423530     -0.57370865789815      1.55676439909313
  H   -0.91068196691630     -1.65242093782228      1.38513892571580
  H   -0.17911744418957     -0.35280638760391      2.34286049305204
  H   -1.89439327280935     -0.28160389179503      1.91678387114717
  N   -1.56974813866772     -0.03595795157716     -0.80654315186898
  H   -1.77674397957433     -1.02533360089865     -0.88741728157603
  H   -2.43430838117638      0.43859559755748     -0.57729515457358
