17
Coordinates from ORCA-job run
  C   0.78294299048990     -0.07446485321455     -0.19481402250943
  C   -0.68231029433795      0.12906750223761      0.30114434762989
  Cl  1.02380730220162     -1.79272949332433     -0.68449366904574
  H   -0.72414511674275      1.18855393069420      0.58698279367295
  C   1.11992566868214      0.80734284094778     -1.39119495358949
  H   0.95596719835336      1.85696926114458     -1.13166204403331
  H   2.16218015447182      0.67470782218557     -1.68270227243866
  H   0.49034044983298      0.53884142108565     -2.23964146478977
  C   1.71056073218683      0.21270032372676      0.89858251926605
  N   2.43538017167137      0.50096425111414      1.77774733566066
  C   -1.00492709358524     -0.71436465196422      1.52579511581748
  H   -2.00169067415539     -0.44582013584435      1.87657296653995
  H   -1.00694132488014     -1.77704668353016      1.27408052457397
  H   -0.28883923835110     -0.55311453229655      2.33342657367012
  N   -1.69841276404324     -0.08304786692434     -0.70752583255479
  H   -1.61236314492885      0.56264460627573     -1.48076496778043
  H   -1.65847501686538     -1.03020374231356     -1.06453295008945
