17
Coordinates from ORCA-job run
  C   0.83158869784453      0.33455738821740     -0.03721610609850
  C   -0.45208251484828     -0.07842569273597      0.73891712691035
  Cl  1.94899260558242      1.13962811460764      1.13088908233088
  H   -0.09735470610355     -0.72072718614156      1.55406205410766
  C   1.57696313562495     -0.84107933216381     -0.65603167178007
  H   2.53668961400463     -0.51323440844973     -1.05676778132975
  H   1.75749124894435     -1.59832278086430      0.11028910357110
  H   0.99290922939923     -1.27787061662544     -1.46711844239694
  C   0.47515549493768      1.31943877589340     -1.05791266498571
  N   0.13367444781281      2.07311718948600     -1.89257507416669
  C   -1.40166033818854     -0.87030441817221     -0.15211927514453
  H   -2.30384438130633     -1.08361661612001      0.42213187762671
  H   -1.69095626883778     -0.28908132411115     -1.03342003192194
  H   -0.97212949693588     -1.81546130213590     -0.48445850964419
  N   -1.18276297903584      1.02082688667257      1.33436854935102
  H   -0.58451427687573      1.57799948141076      1.93104955860382
  H   -1.56715951201872      1.62355584123230      0.61491220496682
