17
Coordinates from ORCA-job run
  C   0.95389659401813      0.16189293019686      0.10664084471102
  C   -0.49298982553331      0.12686335021260      0.66042009284356
  Cl  2.02270377189780     -0.75665064578997      1.22882435630616
  H   -0.41863995767389      0.42094779388115      1.71793210286256
  C   1.08659335101724     -0.41160028853619     -1.29623775085705
  H   0.37871094507936      0.10068426550320     -1.94908274098733
  H   0.87066345664088     -1.48004094496181     -1.28411400339650
  H   2.10184382508838     -0.26823548500359     -1.66781891316151
  C   1.41007749204708      1.55366120160321      0.12755686798603
  N   1.73154234286225      2.68392315307559      0.12837072345999
  C   -1.11530430119757     -1.25758220061884      0.57612473628064
  H   -0.46774049379772     -2.02026963257038      1.00862195006125
  H   -1.33230799362418     -1.51415187608390     -0.46258293964177
  H   -2.05731831911809     -1.26579527563446      1.13090254123993
  N   -1.28101878663303      1.05589665185268     -0.14376398997503
  H   -2.26770839991031      0.85691828674364     -0.03379921915485
  H   -1.12300370116302      2.01253871613021      0.15100534142289
