14

C	-0.526011	0.056707	-1.426669
C	0.0	0.0	0.0
Cl	0.58081	0.871177	-2.533408
H	1.089857	0.0	0.0
H	-1.490974	0.549599	-1.499603
N	-0.752597	-1.348336	-1.923295
O	-1.923293	-1.650029	-2.158122
O	0.220441	-2.078185	-2.038219
C	-0.512724	-1.126696	0.745934
N	-0.920936	-2.065435	1.324841
N	-0.357855	1.252543	0.710174
O	-0.243615	1.251521	1.932312
O	-0.6791	2.230176	0.031137
F	2.413502	0.0	0.0
