14

C	-0.531484	-0.045719	-1.41234
C	0.0	0.0	0.0
Cl	-2.297639	0.099883	-1.514957
H	1.094261	0.0	0.0
H	-0.254655	-1.00943	-1.83625
N	0.138443	0.96012	-2.344998
O	1.286606	0.65238	-2.636958
O	-0.487813	1.926032	-2.751499
C	-0.45268	-1.174003	0.716619
N	-0.78464	-2.175981	1.234151
N	-0.395316	1.231609	0.71035
O	-0.322992	2.273142	0.062498
O	-0.690863	1.154555	1.900778
F	2.416575	0.0	0.0
