14

C	-0.512166	-0.036879	-1.42006
C	0.0	0.0	0.0
Cl	-2.275075	0.131157	-1.548271
H	1.094309	0.0	0.0
H	-0.241057	-1.002207	-1.843769
N	0.180959	0.965249	-2.339759
O	-0.432781	1.935588	-2.756425
O	1.334781	0.653934	-2.605024
C	-0.47249	-1.168798	0.7106
N	-0.823301	-2.164934	1.227346
N	-0.395647	1.237032	0.702832
O	-0.282391	2.278257	0.058783
O	-0.736428	1.163856	1.882495
F	2.418647	0.0	0.0
