12
Coordinates from ORCA-job run
  C   0.70533104518347      0.05651530234357      0.31646419636826
  C   -0.61520784386090     -0.55129486471737     -0.14753972888390
  F   0.59415060145016      0.39246228958525      1.64520612598710
  H   -0.58741994838263     -0.79565220435553     -1.21129853161033
  H   -0.83017647115780     -1.44702389695739      0.43435295027907
  C   1.74370294081463     -0.98230581218694      0.17399223807591
  N   2.54056844117674     -1.83664376578987      0.05183993753364
  C   1.11372124052636      1.23453640668946     -0.46690046748652
  N   1.50686388070663      2.12471802385561     -1.12422516042642
  N   -1.76934738554363      0.38106965361913      0.06650390097007
  O   -1.53515562965381      1.58253569362675      0.12364604234353
  O   -2.86603087125921     -0.15891682571268      0.13695849684961
