12
Coordinates from ORCA-job run
  C   0.69085948085302     -0.15227030985516     -0.32054271720220
  C   -0.61325313878298     -0.35885572138233      0.44391395432334
  F   0.52349454901717     -0.59736324977016     -1.61050394965784
  H   -0.53734488975120      0.01604782612677      1.46656001487452
  H   -0.86687098566310     -1.41856314015794      0.45596390756827
  C   1.14730484787728      1.24770902025623     -0.32609272915028
  N   1.57716849826755      2.33932980072021     -0.27532138148899
  C   1.72276125609697     -0.97720298733567      0.33715498782707
  N   2.51470127847136     -1.64941788276243      0.88549548668227
  N   -1.76610966933190      0.34582888906327     -0.20538981716059
  O   -1.52142806441209      1.29948846347362     -0.93511265671043
  O   -2.87128316264208     -0.09473070837639      0.08387490009485
