12
Coordinates from ORCA-job run
  C   0.72632792983038      0.04581762942875      0.26958876461656
  C   -0.63600161663467     -0.53843437216835     -0.09164876353317
  F   0.71317083054852      0.41343734747206      1.59432129912343
  H   -0.68379849834850     -0.80944334342551     -1.14826055537611
  H   -0.83411777037513     -1.41413444199082      0.52571924329214
  C   1.72750733582714     -1.02214141890890      0.08224126336967
  N   2.49358585735050     -1.89896441334871     -0.07290632404131
  C   1.10901922377418      1.19543093060770     -0.56721743933863
  N   1.47719225313013      2.06018994759152     -1.27123652549968
  N   -1.75194034596533      0.42727724660423      0.17121233371347
  O   -1.48542620460348      1.62317045381575      0.19280076520006
  O   -2.85551899453375     -0.08320556567773      0.31538593847356
