12
Coordinates from ORCA-job run
  C   0.68133305123102     -0.18774364798597     -0.32103711748072
  C   -0.59592989430774     -0.30312844506790      0.50542181114309
  F   0.47608951252303     -0.79044927345122     -1.53969417445416
  H   -0.49058438043796      0.19663112232212      1.47042318358920
  H   -0.84016950729716     -1.35418357630000      0.65705577034199
  C   1.12636623489680      1.20227609496859     -0.51620779768619
  N   1.55001802649601      2.29273313676981     -0.61835860492492
  C   1.74052787141862     -0.92062967879035      0.39924210202123
  N   2.55482659905406     -1.51802365692773      0.99907945890461
  N   -1.77444287932111      0.31057474937857     -0.18838021487215
  O   -2.86633829953559     -0.09717722438473      0.18671484771698
  O   -1.56069633471997      1.17012039946880     -1.03525926429895
