12
Coordinates from ORCA-job run
  C   0.84266092579508     -0.04701157758292      0.26731228035364
  C   -0.61511450211907     -0.17704723262343      0.71157929833224
  F   1.59093639039140     -0.29879359128589      1.40501537348906
  H   -0.79410783214624     -1.18406566432535      1.09068657175603
  H   -0.82550074245657      0.55119856048879      1.49590663412005
  C   1.19920030221280     -1.04761111151312     -0.74916383655637
  N   1.49871109451715     -1.88988278168665     -1.51083712022759
  C   1.15533846675839      1.31210649767386     -0.19821151927390
  N   1.41514234582005      2.41569948818205     -0.50472771833191
  N   -1.58175917663193      0.06450776599306     -0.40022345727610
  O   -1.12193207613825      0.32816062496252     -1.50932866644261
  O   -2.76357519600281     -0.02626097828291     -0.09800783994254
