12
Coordinates from ORCA-job run
  C   0.83615675010622      0.00099762866849      0.29047225730870
  C   -0.60542588871379     -0.37124251891344      0.64083167002787
  F   1.58358915285383     -0.36753110937177      1.39663222822246
  H   -0.91891533789169      0.17471754787224      1.53160179563751
  H   -0.67202472179327     -1.44380612855121      0.82765501537771
  C   1.33081782511316     -0.75272443190167     -0.87084954019857
  N   1.74400963760122     -1.40779613968774     -1.75376944132393
  C   0.99605462369814      1.44842154327960      0.08849460836676
  N   1.12989569592448      2.61153794101821     -0.00392205351782
  N   -1.56834706529566     -0.04297358983127     -0.45189667950397
  O   -2.73702173071449     -0.32335349307829     -0.22425189953819
  O   -1.11878894088816      0.47275275049687     -1.47299796085852
