12
Coordinates from ORCA-job run
  C   0.82507801767179     -0.05498575588147      0.31614510877305
  C   -0.65708415131203     -0.19036792333990      0.66875375038214
  F   1.50295152691147     -0.33186443778559      1.49168574671404
  H   -0.86049984949971     -1.20463450313388      1.01473893196423
  H   -0.91354799606359      0.52171404251157      1.45419254361068
  C   1.24061190203540     -1.03621538087436     -0.69673932261561
  N   1.58059228411682     -1.86649268007059     -1.45468425927178
  C   1.16723734495985      1.31261924053216     -0.10103898752082
  N   1.44908502441127      2.42180940342494     -0.36511255490054
  N   -1.55401389973364      0.07826496679189     -0.49413310072595
  O   -2.75217916998693     -0.01349847439803     -0.26572810097226
  O   -1.02723103351068      0.36465150222327     -1.56707975543720
