12
Coordinates from ORCA-job run
  C   0.73890853577802     -0.02362772248086      0.23672584097540
  C   -0.69528907812667      0.46494289557865      0.05664968763098
  F   0.82914876806324     -0.70144773445215      1.42945765477753
  H   -0.95976134441691      1.13279160769152      0.87604316183989
  H   -0.82241396411456      0.97963855429788     -0.89781352017595
  C   1.20589849752343     -0.88093215547489     -0.86570139800743
  N   1.63397128635458     -1.49835495200581     -1.76829850919242
  C   1.60614788837183      1.16873217082262      0.30072988481108
  N   2.26227781235378      2.14175532564647      0.35186889771170
  N   -1.68368799267313     -0.66150919488973      0.09165378153816
  O   -1.28408309741273     -1.78710742790778     -0.18238228409204
  O   -2.83011731170087     -0.33588136682592      0.37206680218310
