12
Coordinates from ORCA-job run
  C   0.83383137886500     -0.07663612050439      0.28510863406462
  C   -0.63706733355151     -0.18815426357525      0.68934159298700
  F   1.54775421074274     -0.38780995688134      1.43021890111142
  H   -0.84779768813125     -1.20385855580391      1.02658090098574
  H   -0.85025959155645      0.51545003167588      1.49514547375231
  C   1.19187371381367     -1.04813765840771     -0.75875065707152
  N   1.49023899063399     -1.87046985436881     -1.54240850336864
  C   1.19031047504505      1.29032329098628     -0.12223680788824
  N   1.48683925305149      2.39687998854162     -0.38104091246965
  N   -1.56978807885501      0.11720711154932     -0.43551218728178
  O   -1.07635500781976      0.41431220212112     -1.52132521229628
  O   -2.76058032223796      0.04189378466718     -0.16612122252499
