12
Coordinates from ORCA-job run
  C   0.76093341188659      0.08777547399743      0.12243458594755
  C   -0.64850981359480     -0.49107871652895      0.20239039059191
  F   0.96857537778552      0.89949515489328      1.21268499483028
  H   -0.87260642925792     -1.11163374439464     -0.66754758030892
  H   -0.75153618387338     -1.07927019381180      1.11375267124608
  C   1.70614498092324     -1.04380577762605      0.18542685003534
  N   2.42563326187552     -1.97044169004683      0.24396053151718
  C   1.01426855140790      0.83901467863819     -1.11846278620710
  N   1.27116929210483      1.37408178888437     -2.13177827272775
  N   -1.69496525888817      0.58019458630001      0.26767296714411
  O   -2.76360454314268      0.23188917085893      0.75334984546489
  O   -1.41650264722665      1.68477926883607     -0.18388419753356
