12
Coordinates from ORCA-job run
  C   0.82732343099641     -0.05836123473035      0.30739319633534
  C   -0.65136917366187     -0.19058865516129      0.67482932463292
  F   1.51601248777467     -0.33927407546708      1.47550757701818
  H   -0.89638428809974      0.51932330921445      1.46594787562397
  H   -0.85448387236614     -1.20538195850421      1.01949038450461
  C   1.23114294383515     -1.03809072538358     -0.71176037208774
  N   1.56816250384491     -1.86556709765937     -1.47408782167084
  C   1.16909621959446      1.30894083906935     -0.11137501751231
  N   1.45308210343287      2.41713699536933     -0.37709346863540
  N   -1.56012866271603      0.08487305164690     -0.47698278069760
  O   -1.04443219357505      0.37007503654453     -1.55569835273967
  O   -2.75602149905963     -0.00208548493869     -0.23517054477145
