12
Coordinates from ORCA-job run
  C   0.84071506136108      0.00379246984976      0.27330145712343
  C   -0.58899204558511     -0.39273194956731      0.64430236754706
  F   1.61475322656455     -0.38378505635097      1.35427472655662
  H   -0.89020001082141      0.12868386930875      1.55384884711982
  H   -0.63901513160064     -1.47004590412665      0.80762520918033
  C   1.31905744118426     -0.71506737809616     -0.91674722216858
  N   1.72297260787846     -1.34163011574546     -1.82419755296816
  C   0.98327982987939      1.45718286975028      0.10308175653136
  N   1.11203195264123      2.62269041344049      0.03568683156468
  N   -1.57836574468416     -0.05116793526966     -0.41995367823792
  O   -2.73814946445787     -0.35360880519270     -0.17580587631268
  O   -1.15708772235977      0.49668752199961     -1.43641686593597
