12
Coordinates from ORCA-job run
  C   0.82287935897382      0.02492733339760      0.32380068959162
  C   -0.61992016965362     -0.38935677336719      0.61636925256577
  F   1.53578506419540     -0.32303632729384      1.45879240604623
  H   -0.66234216671706     -1.46356666584189      0.80104388895321
  H   -0.98490183253995      0.14629303493108      1.49369313105774
  C   1.38568515407203     -0.71207650907555     -0.81709547889767
  N   1.85500973990522     -1.35191963172098     -1.68288092380379
  C   0.94899001801140      1.47651098852489      0.12797151612325
  N   1.05592165395822      2.64290920037437      0.04132349018712
  N   -1.54778249470072     -0.08885610526434     -0.51398045915461
  O   -2.71584534898021     -0.40341861374660     -0.33286381969916
  O   -1.07347897652454      0.44159006908245     -1.51617369296971
