12
Coordinates from ORCA-job run
  C   0.72102912559504      0.05784349517233      0.28041497931068
  C   -0.63291330142879     -0.54349775923532     -0.08424877766855
  F   0.68299597715930      0.47193572016400      1.59086699609432
  H   -0.66101474203900     -0.85144484015734     -1.13142285906492
  H   -0.83941601496699     -1.39794697513922      0.55959844404083
  C   1.72855071650915     -1.01246382883389      0.14894062756325
  N   2.49995042261889     -1.89138285167640      0.03847322651683
  C   1.11580075874752      1.17845273055395     -0.58950507216667
  N   1.49401278866005      2.01905989244262     -1.31701157868532
  N   -1.75585937004358      0.42709194661344      0.12542593211538
  O   -1.49286508940834      1.62386285975698      0.10851516297260
  O   -2.86027127140327     -0.08151038966116      0.26995291897157
