12
Coordinates from ORCA-job run
  C   0.75323486401009      0.07902077692407      0.16900848266352
  C   -0.65759628254504     -0.50115775666206      0.13751409559754
  F   0.90016860214488      0.82370142454705      1.31533986261018
  H   -0.80959002838102     -1.14286418171091      1.00501194629594
  H   -0.83259898928978     -1.06803486874080     -0.77922383351244
  C   1.69563360857542     -1.05559975540376      0.21493857909506
  N   2.41338867144008     -1.98448492960670      0.25678899434638
  C   1.07209089361200      0.90249091862988     -1.00936073132497
  N   1.38103257413090      1.49616459844420     -1.97432970395241
  N   -1.70789026890688      0.56599482906689      0.20980925707461
  O   -2.80087777252323      0.19050050561525      0.61407878736935
  O   -1.40699587226741      1.69526843889689     -0.15857573626275
