12
Coordinates from ORCA-job run
  C   0.74957660869425      0.00425090275869      0.20011323682057
  C   -0.70227556025968      0.45336670476099      0.06385321474885
  F   0.91197427264798     -0.60542759481730      1.42172260160322
  H   -0.94219985476882      1.16305824716758      0.85512914131165
  H   -0.88650103995734      0.90796440969474     -0.91164389225019
  C   1.18240037087157     -0.90265392262099     -0.87631017151687
  N   1.57879486809662     -1.55753358628318     -1.76681784226270
  C   1.59207861127577      1.21516684260177      0.15817412031626
  N   2.22884032402671      2.20168956356935      0.12707496989647
  N   -1.66175552812982     -0.68868414737322      0.21309862123529
  O   -1.25186386912240     -1.81951341153453     -0.02074024475267
  O   -2.79906920337486     -0.37068400792390      0.53634624485013
