12
Coordinates from ORCA-job run
  C   0.74300851205070      0.07328443509285      0.21154505932688
  C   -0.62137079692349     -0.56087865580668     -0.04193422801050
  F   0.81986779130573      0.44507333345207      1.53300105470521
  H   -0.73879316241790     -1.44166325909084      0.58875950718148
  H   -0.74170588254919     -0.83668087756969     -1.09151108937110
  C   1.76492999705887     -0.95832278284058     -0.05186114582674
  N   2.54839401184108     -1.80715493089955     -0.26485937395042
  C   1.01689490942239      1.23267468086316     -0.65402290850315
  N   1.29623220557214      2.10610779919954     -1.38760089674444
  N   -1.74732059818171      0.36478665860424      0.30826783685132
  O   -2.81757544708070     -0.18460718223083      0.53593576046601
  O   -1.52256154009793      1.56938078122631      0.31228042387544
