12
Coordinates from ORCA-job run
  C   0.79877409631722     -0.02487638000926      0.37037997785441
  C   -0.68404350858718     -0.29343057542635      0.65148973347734
  F   1.47734450749646     -0.45703120566361      1.49393838065462
  H   -1.03151213766016      0.37431298447732      1.44020601962019
  H   -0.80218590816338     -1.33905505156935      0.92944835442261
  C   1.25442613680159     -0.80701174555562     -0.79092027893423
  N   1.59522415515466     -1.45050081481834     -1.71280881056311
  C   1.10287816470282      1.39960217455133      0.17029128125467
  N   1.38827669845274      2.53362538145808      0.05948242440890
  N   -1.50154750848070     -0.04351399368750     -0.56935917456119
  O   -1.48992463240207      1.10708786793290     -0.99967810765468
  O   -2.10671006363201     -1.00020864168960     -1.04246979997955
