12
Coordinates from ORCA-job run
  C   0.82226588304754     -0.04149156388880      0.31132028680302
  C   -0.63942691198426     -0.31314855353825      0.68350528284371
  F   1.54830749440545     -0.26071534379609      1.46687148984398
  H   -0.89679459209638      0.29207046422782      1.55072816703333
  H   -0.77193089691625     -1.37698144181750      0.88308534777331
  C   1.33582041478931     -0.94369760790484     -0.72950559094538
  N   1.79715686281044     -1.68660352006600     -1.51359917833588
  C   0.99825385317748      1.36067702047932     -0.10158234782266
  N   1.11402264675190      2.48653771514627     -0.41636062891682
  N   -1.54785034722091      0.06992614380030     -0.43415713562306
  O   -2.37724991006974      0.94474950032401     -0.20599281648673
  O   -1.38257449669458     -0.53032281296624     -1.49331287616680
