12
Coordinates from ORCA-job run
  C   0.80868356944169      0.01614156757074      0.34734207745638
  C   -0.65659005394216     -0.28385838818867      0.68179222897829
  F   1.52914721182021     -0.34462229990448      1.47029665195567
  H   -0.73393351803712     -1.31841066019267      1.01095998580745
  H   -1.00346816790529      0.40880713679579      1.44932273461280
  C   1.25906212345451     -0.80336214377135     -0.79005468052280
  N   1.60014519179681     -1.47426807776412     -1.69203859330848
  C   1.06369103274441      1.43827896107508      0.07559004078218
  N   1.31270837285304      2.57381656824807     -0.09372301412114
  N   -1.51669487224640     -0.11559931727521     -0.52358245005734
  O   -2.11740016029705     -1.10700502482702     -0.92508698068110
  O   -1.54535072968266      1.01108167823385     -1.01281800090190
