12
Coordinates from ORCA-job run
  C   0.72015356464396     -0.02008370242983     -0.28835814015517
  C   -0.60651732743154     -0.49900343286627      0.29339740523711
  F   0.67474977730438     -0.14648744187195     -1.65667595732680
  H   -0.76522176882917     -1.54451163702771      0.03045962362265
  H   -0.62947865942222     -0.38143570732005      1.37864467008496
  C   1.05099656764927      1.36725964837585      0.07782409821412
  N   1.38037397649832      2.44093917335548      0.42097880409117
  C   1.77726516357514     -0.90633820467583      0.23605552055012
  N   2.58933612936524     -1.63584434419183      0.66978428819260
  N   -1.77329452927668      0.26041642734726     -0.26235689156508
  O   -2.85117659337973     -0.31488671159792     -0.18228550843272
  O   -1.56818630069698      1.37997593290282     -0.71646791251295
