12
Coordinates from ORCA-job run
  C   0.75188894607002      0.13777469925229      0.13509028937355
  C   -0.62727219786803     -0.50865901553940      0.22444271169810
  F   0.88727804495370      1.03666874925317      1.16644402586829
  H   -0.72621223043888     -1.03054378605517      1.17584659981350
  H   -0.79325476124634     -1.20482143707679     -0.60012511534169
  C   1.75243124038016     -0.93380561342472      0.30403501727869
  N   2.51807141842251     -1.81292776603303      0.44801050128930
  C   0.99962862423333      0.80812989192381     -1.15234624502336
  N   1.25634659443021      1.27842582865370     -2.19730050820998
  N   -1.73010825612714      0.50578636286746      0.18009992843549
  O   -2.79539821804449      0.13367176276443      0.65532893901614
  O   -1.49439920476505      1.59030032341425     -0.33952614419804
