12
Coordinates from ORCA-job run
  C   0.80549277684128     -0.02048094497327      0.35816334950651
  C   -0.66373109067954     -0.32979073533667      0.66564629265021
  F   1.50733404261054     -0.34136387277103      1.50308099871447
  H   -0.76101424017124     -1.39137318204681      0.88757686367261
  H   -0.98879680556820      0.29439290203261      1.49656826292294
  C   1.31299296818558     -0.84081844880307     -0.75275991453383
  N   1.72956168208512     -1.50890100216799     -1.62469339405924
  C   1.01223767959994      1.40552627082220      0.06149926578787
  N   1.18826495315178      2.54667456983308     -0.15477147573685
  N   -1.51254565750257     -0.01682398322042     -0.51854700011544
  O   -1.94517593841630      1.13078810578742     -0.59506744251346
  O   -1.68462037013638     -0.92582967915607     -1.32669580629579
