12
Coordinates from ORCA-job run
  C   0.80528524221174     -0.02235300504523      0.35840621213875
  C   -0.66433676207746     -0.32963400160922      0.66664042244243
  F   1.50683177115301     -0.33958734461855      1.50440938701809
  H   -0.98720985947643      0.29347765556408      1.49924198381001
  H   -0.76360728837125     -1.39138614993693      0.88706790942532
  C   1.31358187888841     -0.84534961647764     -0.75018894000944
  N   1.73207320695059     -1.51570999972546     -1.61937153442152
  C   1.01178639737054      1.40269155394842      0.05613731937919
  N   1.18670450159157      2.54274037036731     -0.16663289826202
  N   -1.51308389396284     -0.01233823406320     -0.51617886194525
  O   -1.66976622973098     -0.91351506299084     -1.33665757377420
  O   -1.95825896454689      1.13096383458725     -0.58187342580137
