12
Coordinates from ORCA-job run
  C   0.82443479402686     -0.03295567162624      0.31065333792640
  C   -0.62867798865524     -0.31560501009049      0.70746389795620
  F   1.58823470395731     -0.35994427047770      1.41314268491568
  H   -0.72988859550318     -1.37402830937901      0.94249359696935
  H   -0.89329647740964      0.31846217724989      1.55226115831604
  C   1.25083955148196     -0.86536556236116     -0.82524613812453
  N   1.60328879020016     -1.53858137501371     -1.72100833042024
  C   1.03716752146665      1.38770720457052     -0.00769596955297
  N   1.22205503662750      2.52355476902725     -0.24359546466601
  N   -1.54126258269508      0.00459821927563     -0.42605589678615
  O   -1.96176530478182      1.15773197102940     -0.48314676585227
  O   -1.77012944871548     -0.90457414220439     -1.22026611068149
