12
Coordinates from ORCA-job run
  C   0.82556172310661     -0.04301335823756      0.30241898389982
  C   -0.63058900431702     -0.32407286482517      0.68908945406644
  F   1.56862113966531     -0.28698647860430      1.44176647213908
  H   -0.88117121021631      0.27342515079615      1.56363711039121
  H   -0.75396772695384     -1.39028324774596      0.88038522354096
  C   1.32080681292264     -0.92360317918487     -0.76567635906628
  N   1.76552490188283     -1.64893759193919     -1.57545094566841
  C   0.99713704943944      1.36733164269674     -0.08399224194380
  N   1.11122638113428      2.49945596989630     -0.37618917418636
  N   -1.55081387455453      0.06448044468150     -0.41669682688324
  O   -1.44222574220413     -0.57569537055144     -1.45969265101613
  O   -2.32911044990526      0.98789888301779     -0.19759904527327
