12
Coordinates from ORCA-job run
  C   0.73703671594094     -0.00201562361251     -0.24176392860710
  C   -0.60710197054934     -0.51231255883775      0.26885213450723
  F   0.78259084209263     -0.16384086186963     -1.60633425201491
  H   -0.70294526975605     -0.36704410586468      1.34675955431252
  H   -0.71386689217553     -1.56913355618310      0.02592986706367
  C   0.99786319113190      1.40472475223364      0.10662800437486
  N   1.26875277248373      2.49760314375806      0.44012869137783
  C   1.78791375869753     -0.83737652126300      0.37130334369525
  N   2.59490036033711     -1.52709149751229      0.87414305528093
  N   -1.76074712431280      0.19106380530932     -0.38030681882506
  O   -1.56494753508306      1.30544512963993     -0.85100398090320
  O   -2.82144884880704     -0.42002210579800     -0.35333567026201
