12
Coordinates from ORCA-job run
  C   0.81374350837784     -0.06048860075274      0.33479431351707
  C   -0.65741163404512     -0.31962972944088      0.67825490606433
  F   1.53411111019308     -0.42876936975202      1.45328697094231
  H   -0.93337694880597      0.29781210332210      1.53168627167671
  H   -0.79058260657296     -1.38124953911863      0.88082954618963
  C   1.26088197465053     -0.87611185801737     -0.80522560003846
  N   1.63537961798227     -1.53844318132741     -1.70023032650146
  C   1.06343281754434      1.36271112598591      0.05718052547976
  N   1.26737753956201      2.50164864885560     -0.14544331495121
  N   -1.52589954233203      0.05299759832530     -0.47365939004053
  O   -1.73784698929513     -0.82452278769181     -1.30716546677441
  O   -1.92980884725887      1.21304558961196     -0.50430843556375
