12
Coordinates from ORCA-job run
  C   0.74617986232051     -0.02093449539840     -0.21181674525141
  C   -0.62511432363329     -0.49375971208295      0.26125943102568
  F   0.84214885587360     -0.22891711518609     -1.56762176899694
  H   -0.76143912989109     -0.31172000316494      1.32917298648021
  H   -0.73916034400294     -1.55642555251311      0.04892034256162
  C   1.01592815605974      1.39263139799361      0.10000349765701
  N   1.29117530701770      2.49211188043542      0.40730864297320
  C   1.75824737850594     -0.85133617117242      0.46930016336879
  N   2.53349991402612     -1.53645336942820      1.02548762545239
  N   -1.74094815185544      0.20426630276464     -0.45620941643363
  O   -2.81084708645805     -0.39116324162859     -0.45358638903449
  O   -1.50967043796280      1.30070007938105     -0.95221836980243
