12
Coordinates from ORCA-job run
  C   0.81559405685429     -0.01517815151970      0.33613064819879
  C   -0.64563512586836     -0.30552420181038      0.69648257091525
  F   1.54922146933066     -0.30175552352749      1.46993619072719
  H   -0.94212643026656      0.34540437847057      1.51760241786782
  H   -0.74186147215559     -1.35918090462053      0.95409465662022
  C   1.28684371847190     -0.87310032301079     -0.76236707332057
  N   1.67509334324296     -1.56708421851379     -1.62696196113453
  C   1.01968415183095      1.39884968064923     -0.01544748147704
  N   1.19132417933268      2.53028426741966     -0.28087022823051
  N   -1.52729491776863     -0.02294818026462     -0.47094256997788
  O   -1.71816691388892     -0.95194862409642     -1.25220000570743
  O   -1.96267605911538      1.12218180082427     -0.56545716448131
