15
Coordinates from ORCA-job run
  C   0.76387073703253      0.28328802596573     -0.41584875318816
  C   -0.15936142637455     -0.54527502205922      0.47843032975222
  F   1.78126688710140     -0.47562298617596     -0.88401282397274
  H   0.45449121512511     -0.97986290585834      1.26808173058719
  N   1.37832514534424      1.35331489637106      0.50067103266752
  O   2.12356123959159      0.90268591374018      1.35829270206663
  O   1.07097986621422      2.51818967341888      0.30244294661752
  C   0.05684238349193      0.93442697798104     -1.51709451514134
  N   -0.53932587200169      1.41176778455683     -2.41017787419094
  N   -0.62845226084638     -1.73543342239511     -0.36503567581750
  O   -1.65362583539904     -1.56345219096685     -1.01970389116244
  O   0.06101158250537     -2.74816649104024     -0.32128787347541
  N   -1.18780853886591      0.27684174001021      0.98145641406339
  H   -1.86947910870743      0.50537367763877      0.26697300904208
  H   -1.65329601421138     -0.13907567118697      1.77581324215199
