15
Coordinates from ORCA-job run
  C   0.73239690234923      0.36580559512713      0.11192500477678
  C   -0.50371731141211     -0.53482626854133     -0.04984330952284
  F   0.92764382589807      0.70918902867397      1.40213126261533
  H   -0.54789005912420     -0.89314988078079     -1.07733669060345
  N   0.60999001787071      1.63972713879145     -0.72828480549588
  O   1.02269856200888      2.67179248021881     -0.23466364128228
  O   0.13707900087691      1.45654590102721     -1.84136156325512
  C   1.90156584264351     -0.36392495797744     -0.39148909312618
  N   2.80992716539499     -0.98900206755070     -0.79701192107219
  N   -1.77067111622389      0.29643099105942      0.11886373021797
  O   -1.66260510832150      1.41331318306639      0.61926572765243
  O   -2.80156331848783     -0.25415704644133     -0.23665937928953
  N   -0.52597397878905     -1.60970396004785      0.86755619761087
  H   -0.23870803486619     -2.49350230231092      0.48123440777917
  H   -0.09017238981753     -1.41353783431402      1.75567407299491
