18

C	0.0	0.0	0.0
C	-0.325588	0.125277	-1.522537
Br	1.967458	0.0	0.0
H	0.227555	0.994447	-1.875174
N	-0.486993	1.236646	0.5756
H	-1.50769	1.182342	0.522575
H	-0.24786	1.250698	1.562227
C	-0.500722	-1.246794	0.706136
H	-0.226679	-1.186049	1.76326
H	-0.094696	-2.16197	0.282126
H	-1.593148	-1.259771	0.634265
N	-1.683094	0.224665	-1.924286
H	-1.988169	1.186895	-1.915994
H	-2.351361	-0.29034	-1.353398
N	0.269398	-1.028035	-2.308978
O	-0.166733	-2.153661	-2.080876
O	1.099125	-0.756245	-3.175056
Cl	-4.11851	0.0	0.0
