18

C	0.0	0.0	0.0
C	-0.432082	0.084764	-1.476098
Br	2.072705	0.0	0.0
H	-1.523566	0.205252	-1.420384
N	-0.450801	1.037004	0.855669
H	-0.405431	1.930993	0.380183
H	-1.440111	0.842827	1.036577
C	-0.401845	-1.34498	0.574719
H	-1.491072	-1.414969	0.501309
H	0.052988	-2.167048	0.029391
H	-0.102888	-1.367792	1.623525
N	-0.07522	-1.053603	-2.237323
H	-0.552973	-1.044893	-3.128088
H	0.924074	-1.066488	-2.400146
N	0.086458	1.385415	-2.115671
O	-0.29822	2.455295	-1.643521
O	0.849096	1.286671	-3.075713
Cl	-3.620466	0.0	0.0
