18

C	0.0	0.0	0.0
C	-0.4623	0.028357	-1.475956
Br	1.994735	0.0	0.0
H	-1.551654	0.156569	-1.414102
N	-0.468434	1.071926	0.819528
H	-1.472958	0.909655	0.938268
H	-0.369122	1.953882	0.331509
C	-0.430191	-1.318511	0.623624
H	0.014672	-2.167086	0.11114
H	-1.519332	-1.376673	0.555018
H	-0.13034	-1.306412	1.67303
N	-0.12301	-1.141408	-2.20019
H	-0.640122	-1.176539	-3.06807
H	0.867248	-1.149638	-2.409096
N	0.057664	1.298005	-2.171399
O	0.82044	1.157146	-3.126532
O	-0.318945	2.387766	-1.741817
Cl	-3.650597	0.0	0.0
