15

C	-0.529163	0.007817	-1.419957
C	0.0	0.0	0.0
Cl	0.10788	-1.428458	-2.265554
H	1.092936	0.0	0.0
C	-1.983605	0.006634	-1.512417
N	-3.157178	-0.057956	-1.557937
N	0.001654	1.221936	-2.215165
O	-0.67571	1.553144	-3.179366
O	1.075113	1.676241	-1.866237
C	-0.411063	-1.185654	0.713624
N	-0.72871	-2.163772	1.284841
N	-0.415835	1.183961	0.711539
O	-0.104769	1.236775	1.911009
O	-0.926523	2.115477	0.055972
H	2.309205	0.0	0.0
