15

C	-0.413551	0.055712	-1.457789
C	0.0	0.0	0.0
Cl	-2.160528	0.309083	-1.692107
H	1.092548	0.0	0.0
C	0.314389	1.043443	-2.249427
N	0.829636	1.799335	-2.988278
N	-0.036644	-1.33578	-2.048471
O	-0.870766	-2.222546	-1.968944
O	1.10151	-1.419061	-2.488586
C	-0.483364	-1.159653	0.700836
N	-0.801208	-2.148993	1.254256
N	-0.316618	1.21665	0.707568
O	-0.385479	1.152809	1.943468
O	-0.320863	2.265446	0.044214
H	2.306049	0.0	0.0
