15

C	-0.564022	-0.075244	-1.404084
C	0.0	0.0	0.0
Cl	0.045315	-1.561228	-2.183046
H	1.108862	0.0	0.0
C	-2.021834	-0.084067	-1.441602
N	-3.196029	-0.151694	-1.43721
N	-0.0665	1.084995	-2.295247
O	1.067981	1.474566	-2.093326
O	-0.838097	1.446766	-3.173
C	-0.384588	-1.151953	0.77963
N	-0.670831	-2.123508	1.37792
N	-0.399725	1.213448	0.654039
O	-0.12432	1.304376	1.860858
O	-0.840689	2.144026	-0.054649
H	2.284518	0.0	0.0
