15

C	-0.440541	0.05495	-1.440645
C	0.0	0.0	0.0
Cl	-2.191123	0.362712	-1.629059
H	1.114501	0.0	0.0
C	0.297748	1.013734	-2.264115
N	0.839724	1.698035	-3.051762
N	-0.136333	-1.323456	-2.107113
O	0.73142	-1.993469	-1.565451
O	-0.726437	-1.574355	-3.145452
C	-0.517875	-1.13929	0.708564
N	-0.903039	-2.097156	1.274021
N	-0.281699	1.230183	0.694857
O	-0.323552	1.189298	1.93303
O	-0.266004	2.271389	0.015983
H	2.28581	0.0	0.0
