15

C	0.0	0.0	0.0
C	-0.220876	-0.395978	-1.548748
F	1.392236	0.0	0.0
H	0.379579	0.392133	-2.035171
H	-0.379905	-0.72688	0.720694
H	-0.376629	0.992429	0.226224
C	-1.516783	-0.442639	-2.44262
H	-2.092331	0.487875	-2.426486
H	-2.192745	-1.244392	-2.114157
H	-1.155613	-0.664132	-3.465487
C	0.536507	-1.711234	-1.85918
H	-0.020973	-2.590538	-1.503129
H	0.647239	-1.812654	-2.945931
H	1.54672	-1.728831	-1.441962
Br	-3.282472	0.0	0.0
