13
Coordinates from ORCA-job run
  C   -0.52383645571317     -0.35596170442076     -0.45257597377829
  C   0.88234092351466     -0.36124522061190      0.18919105661736
  Cl  -0.43019171234691     -0.94967962898389     -2.10882974085668
  H   1.18376096200897     -1.41687637746800      0.22629669131048
  N   -1.09844283674872      1.08111413299068     -0.49940109776425
  O   -0.31303889637679      1.98843601834687     -0.26977062830118
  O   -2.28131138596437      1.15532997319624     -0.78524711159568
  C   -1.44165171061336     -1.16815311081441      0.33351235967240
  N   -2.14373881798005     -1.84560452531475      0.99043009057515
  C   0.81908980071139      0.14378282130079      1.56322264842542
  N   0.75393891788937      0.50715196397113      2.67806503877326
  C   1.87551820931621      0.35602271780610     -0.61396523342749
  N   2.71856300230277      0.86668294000188     -1.25192809965048
