13
Coordinates from ORCA-job run
  C   -0.55441706500871     -0.34054551164100     -0.26858689694345
  C   0.72675600911550      0.13822281795149      0.46383814167860
  Cl  -0.21330899966910     -1.63548458230075     -1.38261198927452
  H   0.42436442623030      0.95636982184762      1.12907499507740
  N   -1.08516327108736      0.92524432859469     -1.02114348304917
  O   -1.33768087927447      1.85263123037168     -0.26477615606649
  O   -1.17871682670021      0.88516887166007     -2.23110861417339
  C   -1.57488648649081     -0.71950811240364      0.69778472743304
  N   -2.38522052617681     -1.02897259847503      1.49216584235914
  C   1.69696136735340      0.65340037193855     -0.50521856823823
  N   2.46192133772094      1.08540427991104     -1.28478591514852
  C   1.28862366551232     -0.95121393359172      1.26220983760010
  N   1.73176724847499     -1.82171698386299      1.91415807874550
