17
Coordinates from ORCA-job run
  C   0.99777616959125     -0.11472657103542     -0.11487812529115
  C   -0.49577277991751      0.24112567543747     -0.09396475402403
  H   1.14229319016595     -1.19713754163123     -0.06720521134407
  H   -0.55701085643240      1.33373434262077     -0.14692492867698
  N   1.64529639442152      0.43265622325011      1.13291679300620
  O   1.71437621618446      1.65315158139605      1.22278569600160
  O   1.99140828292121     -0.38766937145408      1.97722540370686
  C   1.68152285832379      0.43647054762070     -1.28080495943186
  N   2.19902105349287      0.86542454117557     -2.24361114389097
  C   -1.13645785015146     -0.23928817294403      1.20503385727196
  H   -1.00060129673650     -1.31711435769077      1.33490631683001
  H   -0.72216505295105      0.26436865542277      2.08070434465922
  H   -2.20890833138896     -0.03403033509458      1.18416750237523
  C   -1.17550770899422     -0.36727845655294     -1.31774998966441
  H   -2.23527624823718     -0.10355937976403     -1.32312158035632
  H   -0.73667290905297     -0.00714532413934     -2.25072168180153
  H   -1.10332113123882     -1.45898205661700     -1.29975753936974
