17
Coordinates from ORCA-job run
  C   1.03203026506230     -0.06813509019355     -0.32341090756710
  C   -0.42667798291812     -0.49517851294829     -0.08942635174714
  H   1.45650860611586     -0.62502214472960     -1.16339912348589
  H   -0.39067629452436     -1.58207567563323      0.04420180448175
  N   1.85321035799933     -0.47828024290663      0.87694472290944
  O   2.21452639510267      0.38949603103487      1.66332885956232
  O   2.03998754025024     -1.68600395279327      0.98237730945312
  C   1.16372734337570      1.36582891277931     -0.55666414001872
  N   1.21544474886620      2.51446297315299     -0.79509489203484
  C   -1.25418103606510     -0.16896434356649     -1.32972735197361
  H   -2.26827642961298     -0.55698724329712     -1.21118827296979
  H   -0.82678072896718     -0.61801801018313     -2.23055142191133
  H   -1.32384769610057      0.91098298460857     -1.48362525560980
  C   -1.00280967231964      0.15164968215196      1.16556889379647
  H   -0.98933572864656      1.24216190778829      1.08675894801847
  H   -2.04010402674145     -0.16406841465748      1.29801357026683
  H   -0.45374566087636     -0.13184886060720      2.06589360882983
