17
Coordinates from ORCA-job run
  C   1.02495007733615     -0.20819279832522     -0.28486322621202
  C   -0.47439197921442     -0.45590863972945     -0.04854195740024
  H   1.40264999733771     -0.89295708819792     -1.04923207433718
  H   -0.55475854873147     -1.51986985558680      0.20051207927575
  N   1.77726515389106     -0.56813736298835      0.97504550137591
  O   1.83397320095171     -1.77024242198462      1.21297135402527
  O   2.21304169607755      0.33798757762808      1.67586105132229
  C   1.31027962089604      1.17111633349388     -0.66436997831146
  N   1.48639971586226      2.27585437186688     -1.02136168323086
  C   -1.24133223564814     -0.18250911024129     -1.33951179381858
  H   -2.29148340981856     -0.45435535676907     -1.21187454108936
  H   -1.19881574860702      0.87678728629194     -1.60547850403318
  H   -0.84447101261287     -0.76369420755063     -2.17640180146069
  C   -1.00106820244551      0.37872959942053      1.11393825014236
  H   -0.50127674122267      0.13909019097496      2.05477990467073
  H   -0.87080263066802      1.44703069740804      0.92067221377830
  H   -2.06815895338380      0.18827078428905      1.24885520530297
