17
Coordinates from ORCA-job run
  C   1.00525165754470      0.29077010766848     -0.42950455796669
  C   -0.53568214006156      0.28071539853741     -0.37194161301337
  H   1.34299940417952      0.08905072633290     -1.44864997584011
  H   -0.83155309620394      1.08563842070266     -1.05701744588478
  N   1.55762306192615     -0.84435730246527      0.39669271309087
  O   1.78391162846511     -1.88737961822201     -0.21023867683645
  O   1.68147674456148     -0.65899846426108      1.60293211511401
  C   1.57008157777399      1.55107506890155      0.04160461543413
  N   1.99495251400398      2.59283310724220      0.37749855752185
  C   -1.07876271671282      0.60559178272834      1.01661597738377
  H   -0.68903521887634      1.55224437210389      1.39633977465093
  H   -0.82859926289158     -0.17717290796850      1.73507321275309
  H   -2.16734827656894      0.68350247744214      0.96789186106135
  C   -1.08851461544697     -1.03913119089285     -0.90475123206351
  H   -0.66974325638449     -1.29372771723300     -1.88122970143959
  H   -0.87477755316884     -1.86500806913514     -0.22259969300136
  H   -2.17328045213943     -0.96464619148172     -1.00771593096415
