15

C	-0.374064	0.023289	-1.501895
C	0.0	0.0	0.0
Br	-0.009528	-1.831795	-2.232996
H	1.096938	0.0	0.0
N	-1.791203	0.212368	-1.693133
H	-2.064421	-0.064061	-2.627681
H	-1.988263	1.201498	-1.567459
N	0.446114	1.01029	-2.091556
H	1.427235	0.885681	-1.834159
H	0.345124	1.028673	-3.098317
C	-0.546478	-1.133909	0.734038
N	-0.965542	-2.035724	1.358426
C	-0.470335	1.250514	0.600582
N	-0.885044	2.246883	1.064663
Br	3.3612	0.0	0.0
