15

C	-0.399408	-0.044206	-1.485035
C	0.0	0.0	0.0
Br	0.18715	1.87482	-2.24419
H	1.095353	0.0	0.0
N	0.348654	-1.043915	-2.102466
H	0.215361	-1.074589	-3.104166
H	1.338503	-0.944726	-1.877918
N	-1.790926	-0.167818	-1.672322
H	-2.267347	0.625594	-1.261316
H	-2.025282	-0.204031	-2.657087
C	-0.453882	-1.235599	0.648998
N	-0.81529	-2.212328	1.191392
C	-0.543884	1.151113	0.710971
N	-0.989442	2.069204	1.292983
Br	3.336965	0.0	0.0
