17

C	-0.449033	0.025028	-1.457624
C	0.0	0.0	0.0
Cl	0.470786	-1.316724	-2.349965
H	1.090849	0.0	0.0
N	-1.85974	-0.124472	-1.601214
H	-2.102415	-0.108441	-2.585714
H	-2.131645	-1.022206	-1.212993
C	0.042277	1.317173	-2.089158
H	-0.501833	2.162348	-1.663487
H	-0.126377	1.286224	-3.168495
H	1.112187	1.423559	-1.896168
N	-0.415616	-1.153907	0.784892
O	-0.109547	-1.127493	1.984214
O	-0.928931	-2.134701	0.217169
C	-0.401581	1.201407	0.7002
N	-0.664266	2.195159	1.272724
H	2.413621	0.0	0.0
