17

C	-0.317199	-0.035043	-1.509336
C	0.0	0.0	0.0
Cl	-0.030934	1.744409	-2.096533
H	1.091643	0.0	0.0
N	0.580594	-0.928107	-2.111927
H	1.523374	-0.793205	-1.72383
H	0.577533	-0.839844	-3.119354
C	-1.769911	-0.319298	-1.840637
H	-2.42437	0.40199	-1.349028
H	-1.924999	-0.256929	-2.921381
H	-2.016764	-1.330798	-1.508446
N	-0.424968	-1.271976	0.639433
O	-1.372952	-1.248698	1.437488
O	0.219403	-2.278288	0.347577
C	-0.588242	1.112453	0.714645
N	-1.005098	2.02618	1.32688
H	2.559438	0.0	0.0
