17

C	-0.267045	0.013589	-1.51602
C	0.0	0.0	0.0
Cl	-2.059722	0.077874	-1.819213
H	1.093769	0.0	0.0
N	0.321025	1.211098	-2.082208
H	-0.086023	2.028459	-1.637061
H	1.308465	1.179744	-1.809956
C	0.31518	-1.183692	-2.236981
H	0.228115	-0.992396	-3.307104
H	1.366936	-1.26489	-1.948007
H	-0.194948	-2.105572	-1.973837
N	-0.446278	-1.180869	0.743417
O	-0.018404	-2.272101	0.354714
O	-1.140668	-1.026124	1.756296
C	-0.487338	1.208337	0.633298
N	-0.808433	2.249215	1.077113
H	2.507416	0.0	0.0
