17

C	-0.242066	0.016552	-1.509747
C	0.0	0.0	0.0
Cl	-2.029802	0.211048	-1.876494
H	1.091804	0.0	0.0
N	0.439626	1.215559	-1.932351
H	0.494778	1.225497	-2.944416
H	1.393953	1.146048	-1.556965
C	0.230611	-1.233178	-2.233012
H	0.190028	-1.033417	-3.308854
H	-0.374505	-2.109116	-2.01048
H	1.265244	-1.416956	-1.927776
N	-0.446953	-1.194683	0.724205
O	-1.123141	-1.05294	1.74903
O	-0.03005	-2.281421	0.312671
C	-0.49004	1.201661	0.645484
N	-0.826114	2.185651	1.193226
H	2.514409	0.0	0.0
