17

C	-0.246073	0.003463	-1.508683
C	0.0	0.0	0.0
Cl	-2.039841	0.197046	-1.868503
H	1.093003	0.0	0.0
N	0.438243	1.191986	-1.947191
H	1.384721	1.142917	-1.55048
H	0.507137	1.189747	-2.95817
C	0.215808	-1.259905	-2.213736
H	0.144012	-1.089197	-3.293387
H	1.259494	-1.430871	-1.931187
H	-0.378869	-2.133299	-1.953677
N	-0.454544	-1.196372	0.720972
O	0.050833	-2.269038	0.374222
O	-1.23807	-1.066682	1.668626
C	-0.494383	1.201906	0.640939
N	-0.842963	2.172515	1.2044
H	2.524359	0.0	0.0
