17

C	-0.480016	0.020808	-1.479778
C	0.0	0.0	0.0
Cl	-0.054653	-1.579371	-2.183548
H	1.091206	0.0	0.0
N	-1.895644	0.212278	-1.696399
H	-2.414035	-0.439865	-1.116172
H	-2.135086	1.147644	-1.382073
C	0.328038	1.092708	-2.185664
H	1.389729	0.937411	-1.970372
H	0.127597	1.044424	-3.256918
H	0.03568	2.079909	-1.812887
N	-0.540819	-1.187872	0.720306
O	-1.748651	-1.178711	0.998528
O	0.228172	-2.110238	0.96714
C	-0.496806	1.194226	0.657727
N	-0.901483	2.186675	1.142484
H	2.65403	0.0	0.0
