17

C	-0.490519	0.076994	-1.455808
C	0.0	0.0	0.0
Cl	0.195335	1.638618	-2.12316
H	1.089771	0.0	0.0
N	0.062499	-0.984724	-2.247075
H	-0.076602	-1.848047	-1.730682
H	-0.436123	-1.030736	-3.128613
C	-2.005399	0.214185	-1.538338
H	-2.454628	-0.693864	-1.129494
H	-2.360376	1.082708	-0.982538
H	-2.308133	0.323511	-2.584183
N	-0.372457	-1.167591	0.727318
O	-0.180678	-1.141686	1.964295
O	-0.640378	-2.230747	0.103163
C	-0.378707	1.171246	0.765488
N	-0.658951	2.144654	1.36388
H	2.286696	0.0	0.0
