17

C	-0.478206	0.02881	-1.480469
C	0.0	0.0	0.0
Cl	-0.067042	-1.56787	-2.196865
H	1.091134	0.0	0.0
N	-1.892029	0.232178	-1.693491
H	-2.12287	1.168488	-1.37711
H	-2.415639	-0.41619	-1.114127
C	0.336732	1.095166	-2.184203
H	0.053655	2.082732	-1.807928
H	1.396838	0.93237	-1.97079
H	0.134924	1.050329	-3.255267
N	-0.548554	-1.182172	0.719059
O	-1.742806	-1.140561	1.048041
O	0.199514	-2.132715	0.91563
C	-0.488362	1.199743	0.656126
N	-0.881497	2.197734	1.137943
H	2.64834	0.0	0.0
