17

C	-0.349479	0.127688	-1.505792
C	0.0	0.0	0.0
Cl	0.031549	1.850496	-1.924313
H	1.09485	0.0	0.0
N	0.4903	-0.687114	-2.348356
H	1.451081	-0.525867	-2.041363
H	0.278329	-1.648806	-2.101902
C	-1.818018	-0.101487	-1.803793
H	-2.435726	0.576554	-1.211838
H	-1.995699	0.076746	-2.865724
H	-2.079132	-1.13401	-1.563093
N	-0.338907	-1.28798	0.58052
O	-0.38739	-1.362821	1.817044
O	-0.396799	-2.283176	-0.167275
C	-0.519023	1.05001	0.845376
N	-0.922295	1.929427	1.515425
H	2.41705	0.0	0.0
