16

C	0.0	0.0	0.0
C	-0.372048	-0.300967	-1.471672
F	1.402636	0.0	0.0
H	0.586791	-0.248293	-1.997132
H	-0.29288	1.019879	0.252636
N	-0.465005	-1.006446	0.900246
H	-1.486092	-0.990126	0.813156
H	-0.25357	-0.697813	1.843143
N	-1.118599	0.845496	-2.118409
O	-0.838908	1.983953	-1.750909
O	-1.849356	0.577139	-3.065047
C	-1.031784	-1.632371	-1.759514
H	-2.061346	-1.613259	-1.4098
H	-1.015963	-1.836863	-2.829948
H	-0.475757	-2.406167	-1.22917
Cl	-3.492055	0.0	0.0
