16

C	0.0	0.0	0.0
C	-0.422499	0.097185	-1.482344
F	1.404872	0.0	0.0
H	-1.45068	-0.267915	-1.54076
H	-0.342658	0.908671	0.498439
N	-0.452531	-1.124587	0.738765
H	-0.331146	-1.955841	0.171619
H	-1.455228	-0.989995	0.874083
N	0.421798	-0.864267	-2.255267
O	1.261224	-0.427457	-3.042181
O	0.240787	-2.063933	-2.034354
C	-0.303337	1.499105	-2.032647
H	-0.50485	1.522598	-3.104433
H	-1.052959	2.111059	-1.526986
H	0.69345	1.906116	-1.857586
Cl	-3.481933	0.0	0.0
