16

C	0.0	0.0	0.0
C	-0.286745	0.097451	-1.518286
F	1.411798	0.0	0.0
H	0.582664	0.593005	-1.961143
H	-0.338194	0.910684	0.490703
N	-0.555738	-1.133283	0.604728
H	-0.957678	-0.983592	1.51146
H	-0.00523	-1.96838	0.522003
N	-1.380273	1.083898	-1.860931
O	-2.103164	0.820486	-2.810348
O	-1.363568	2.15409	-1.263693
C	-0.521609	-1.245502	-2.161881
H	0.31174	-1.903846	-1.898717
H	-0.557808	-1.153869	-3.252237
H	-1.452334	-1.665525	-1.787557
Cl	-3.742799	0.0	0.0
