16

C	0.0	0.0	0.0
C	-0.304442	0.101066	-1.500564
F	1.383506	0.0	0.0
H	0.135774	-0.788057	-1.953902
H	-0.2966	0.915875	0.522597
N	-0.534314	-1.21243	0.53321
H	-0.406806	-1.212473	1.539436
H	-1.543037	-1.197591	0.374703
N	0.523791	1.23536	-2.033195
O	0.390074	2.335156	-1.50158
O	1.249839	1.005559	-3.000019
C	-1.723745	0.329538	-1.964895
H	-1.720638	0.433339	-3.054148
H	-2.157689	1.215825	-1.507182
H	-2.377822	-0.49423	-1.689854
Cl	-4.267088	0.0	0.0
