16

C	0.0	0.0	0.0
C	-0.367538	-0.015097	-1.50253
F	1.412224	0.0	0.0
H	0.593776	0.127705	-2.006755
H	-0.290035	0.951931	0.445454
N	-0.464507	-1.162497	0.686367
H	-1.48486	-1.137179	0.589768
H	-0.272659	-1.034146	1.674036
N	-1.10553	1.236973	-1.920277
O	-0.83281	2.277929	-1.328247
O	-1.81843	1.165799	-2.914466
C	-1.030771	-1.264852	-2.041648
H	-0.4627	-2.128014	-1.691906
H	-1.036037	-1.244724	-3.131491
H	-2.05531	-1.327342	-1.678476
Cl	-3.485301	0.0	0.0
