14
Coordinates from ORCA-job run
  C   -0.24952329840965      0.51606688869008      0.09363169143454
  C   0.96079246982017     -0.37000735563480     -0.03296166559818
  F   -0.26869130086336      1.17059635922916      1.25933063115926
  H   0.93298305074446     -0.83583677467464     -1.01595178456741
  H   1.84815951243845      0.27404034576301      0.01477790909997
  N   -0.36967513231711      1.55218476801772     -1.00873019969352
  O   0.40974878392916      1.46208107905475     -1.95053404447208
  O   -1.25146708183985      2.38624289584988     -0.84579635186568
  N   -1.51654394624655     -0.31497665801715     -0.01766515264975
  O   -2.26812317850255     -0.33330472424186      0.93994230822841
  O   -1.63632865185907     -0.89258597127073     -1.09101692042214
  N   0.84852558930899     -1.37971111309561      1.00406929689788
  H   1.37761235581956     -2.20388930772385      0.75974278185868
  H   1.18253082797735     -1.03190043194596      1.89216150059003
