14
Coordinates from ORCA-job run
  C   -0.43145554740540      0.18233560291656     -0.59378769911509
  C   0.85527182075725     -0.58237029250011     -0.39537491754495
  F   -0.72684024882000      0.31800062879576     -1.89375761656862
  H   1.56118141619996     -0.11701099168734     -1.08734190720133
  H   0.67806583013974     -1.61302411134954     -0.72889617487522
  N   -1.63130592618049     -0.45948709973355      0.07488512414862
  O   -1.39824451268530     -1.30669876729155      0.93117938891738
  O   -2.72539980686071     -0.07074077664270     -0.30675455923356
  N   -0.29535177738468      1.56880707492549      0.01269163643108
  O   0.43928162330742      2.31494647587530     -0.61742248277710
  O   -0.88321645671759      1.79248159279510      1.05966165259034
  N   1.33045882935737     -0.41792356849072      0.96086749634765
  H   0.89334170948810     -1.08593608039735      1.57895554192217
  H   2.33321304680432     -0.52237968721535      1.00609451695863
