14
Coordinates from ORCA-job run
  C   -0.38045263499801      0.06497990482620     -0.65067004867983
  C   0.91971655954303     -0.57476632092093     -0.22568289356254
  F   -0.55397752329205     -0.01026314041832     -1.97710284227197
  H   1.66432120843228     -0.16877543066196     -0.91441312271867
  H   0.83062203647939     -1.65248696446230     -0.41417023161499
  N   -1.60381036855707     -0.55168708876993     -0.00187773090595
  O   -1.41122916270031     -1.24782865677185      0.98990869643052
  O   -2.67455878669411     -0.29567167618755     -0.53288313588778
  N   -0.37815445044590      1.53057687155757     -0.25068227903449
  O   0.37211860801705      2.22554908424399     -0.91974164190179
  O   -1.07407939802839      1.86330184180848      0.69625646973690
  N   1.25091719367286     -0.18399897383632      1.12716885328708
  H   0.79008017330901     -0.78228269133247      1.79732879671420
  H   2.24848654526222     -0.21664675907461      1.27656111040930
