14
Coordinates from ORCA-job run
  C   -0.44977278528475      0.17297908565833     -0.58294584086849
  C   0.85434543050555     -0.56961777172854     -0.41646196328476
  F   -0.89883964006488      0.10173220897416     -1.84329437625862
  H   1.61619803093243     -0.02642605448313     -0.99048525121431
  H   0.68555957790731     -1.53411351561747     -0.90105835337385
  N   -1.49875364596953     -0.43510568264447      0.33279701388701
  O   -1.88490894393837     -1.53896739405106     -0.02158955187295
  O   -1.82371879939022      0.19725465998061      1.32584723784934
  N   -0.36521184823489      1.64237883412888     -0.21826761402655
  O   0.60017012248531      1.98900519472167      0.45465207845246
  O   -1.27283578146731      2.34787413424397     -0.63319759380486
  N   1.13416093596534     -0.77885706905408      0.98747349976328
  H   1.59258431689359      0.02732552073462      1.38660030362930
  H   1.71202302966043     -1.59546215086349      1.12093041112300
