14
Coordinates from ORCA-job run
  C   -0.27934352144486      0.14957182905855     -0.52850710002724
  C   0.97334800272898     -0.04353917373782      0.29604222963007
  F   -0.19732255353739     -0.40999750888187     -1.72861474067760
  H   0.87756834572301      0.54437812916856      1.21036118423784
  H   1.78854141644113      0.37659216144215     -0.30101781746794
  N   -1.50612150045608     -0.41464968519786      0.17092072429587
  O   -2.46328322760524     -0.65496155357771     -0.55232000902912
  O   -1.43573959427815     -0.54896792164995      1.38634713784583
  N   -0.58275317391906      1.63195976075544     -0.70675618274345
  O   -0.84541071488205      2.23073809999209      0.33043094954083
  O   -0.50000648368995      2.08748020349981     -1.83707765816932
  N   1.15506756681653     -1.46644675780503      0.50546095990679
  H   2.09938998042025     -1.75597161580432      0.30402531859080
  H   0.91706545768288     -1.72718596726204      1.45070500406663
