14
Coordinates from ORCA-job run
  C   -0.17598056629211      0.51758155426400      0.05065427979377
  C   1.02210934766193     -0.35658088884008     -0.26005156977662
  F   0.06070777395407      1.34109916215370      1.07978378310442
  H   0.80107882545195     -0.94423035128209     -1.14999309307049
  H   1.84985678983148      0.31451146325114     -0.50118844025751
  N   -0.64693368667999      1.37683238733719     -1.10740353664251
  O   -1.62588822266530      2.07406361558092     -0.87213266675508
  O   -0.00379793139591      1.31490972553525     -2.14885056470630
  N   -1.36739625100593     -0.35257010427937      0.39602042402137
  O   -1.76623150454879     -0.34057546919410      1.54963176667334
  O   -1.77651389563938     -1.03193878592277     -0.53874820735182
  N   1.39372503348685     -1.22727705586450      0.83178987800570
  H   0.72376207704851     -1.97077011026497      0.97364552326336
  H   1.51250221079261     -0.71605514247431      1.69584242369837
