14
Coordinates from ORCA-job run
  C   -0.28799078641948      0.24078635558563     -0.44367106268594
  C   0.97901548712072     -0.23846461099994      0.21285557362917
  F   -0.46661567014008     -0.31329083812304     -1.64728697508950
  H   1.81725817241105      0.05816014220317     -0.43048829077863
  H   1.08094981622427      0.28194655601297      1.16304258468852
  N   -1.48537746946240     -0.09654103551261      0.42874257051031
  O   -2.32988277957698     -0.84272297608479     -0.03190737436329
  O   -1.45866596080823      0.43479482013999      1.53191541763175
  N   -0.35395341738889      1.74609228324441     -0.62443689500914
  O   0.52287436865773      2.41444871128008     -0.08862904326539
  O   -1.29523590150345      2.14923117764122     -1.29618431863019
  N   0.81936916680417     -1.66402619267391      0.43635406264357
  H   1.03767014000431     -2.19232891931202     -0.39703108039269
  H   1.41958483407727     -1.97808547340114      1.18472483111145
