14
Coordinates from ORCA-job run
  C   -0.23101766081191      0.52012287140979      0.11685793421052
  C   0.94704943717458     -0.38550461335960     -0.12402573906354
  F   -0.12875562863859      1.17330570564783      1.27895998166521
  H   1.84556029813053      0.24367179025087     -0.16068587763648
  H   0.81848522241306     -0.84917986872227     -1.10001143990812
  N   -0.43829124805043      1.55936545829316     -0.96939983018711
  O   -1.28640702408432      2.40787735606233     -0.72336210359518
  O   0.24644579272920      1.45778075409905     -1.98105544741809
  N   -1.51627855027982     -0.29023376783446      0.12674618957305
  O   -2.17374578977346     -0.29750046046022      1.15137942975991
  O   -1.74666886098486     -0.86473750157301     -0.93009573156190
  N   0.91694536419015     -1.39509332405184      0.91880050526224
  H   1.40785078596468     -2.22691571295171      0.62549010891627
  H   1.33882786202121     -1.05395868680992      1.77140201998322
