14
Coordinates from ORCA-job run
  C   -0.44655979316931      0.18413589735385     -0.58206242643311
  C   0.85963968163143     -0.55665712671645     -0.42238382072321
  F   -0.77000133844533      0.33704933657628     -1.87330555406375
  H   1.54190618197662     -0.06345947931562     -1.11878716060779
  H   0.69776958958565     -1.58450179100108     -0.77230652244099
  N   -1.61973343777869     -0.49516530031813      0.09731403648889
  O   -2.72869747791424     -0.12487731745130     -0.25880808816843
  O   -1.35248662386255     -1.35081765257292      0.93483006168346
  N   -0.32704761963837      1.56152984188807      0.04747093776117
  O   -0.89976359162860      1.75374428755543      1.10902061472538
  O   0.37998786048007      2.33422216192476     -0.58203047534820
  N   1.35726715092380     -0.40767487441642      0.92719823174895
  H   0.94512567602801     -1.09466474910072      1.54161203873359
  H   2.36259374181149     -0.49186323440576      0.95223812664404
