14
Coordinates from ORCA-job run
  C   -0.23135215178563      0.52706182508063      0.07745592343173
  C   0.94181953584645     -0.38706839550784     -0.15489087573288
  F   -0.05323421453235      1.30398593970803      1.15102624895292
  H   1.82299323234362      0.24345332067718     -0.32920255176009
  H   0.74767861010883     -0.95617477651973     -1.06183156575341
  N   -0.53909547251719      1.44030537193428     -1.09504562309579
  O   -1.38524061125222      2.29874321018112     -0.87862973120069
  O   0.07329558507276      1.24000902627119     -2.13787324115369
  N   -1.49703594619066     -0.28989332913818      0.27359140287983
  O   -2.07441438642777     -0.19273178762932      1.34100755189793
  O   -1.79605323830190     -0.97819974744551     -0.69434582439753
  N   1.01029933058264     -1.27645020453282      0.99044235589769
  H   1.48872094819633     -0.83943635569880      1.76591035281373
  H   1.49261877885709     -2.13060409738023      0.75238557722028
