14
Coordinates from ORCA-job run
  C   -0.30706955599311      0.50576796188592      0.17103544717468
  C   0.98783298938748     -0.24706118085171     -0.03611476178858
  F   -0.36585246838062      1.11563522876530      1.34777161526224
  H   1.01244767846340     -0.61329804449232     -1.06376479933204
  H   1.78360832069130      0.49420694730932      0.08553394510453
  N   -0.50559759783456      1.54737907676880     -0.92300698083406
  O   -0.62694595857386      1.08741278357019     -2.05313887188170
  O   -0.48874812799063      2.72173656386109     -0.58762687704116
  N   -1.51585357158653     -0.41001710144525      0.05496144477033
  O   -2.54397518752265      0.00352315057025      0.57353216127097
  O   -1.35970664025977     -1.45441348638770     -0.56566055349438
  N   1.07216371712013     -1.27861380894301      0.97854030414139
  H   1.97231560360755     -1.28475132303063      1.43210698537486
  H   0.88538079887186     -2.18950676758026      0.58683094127292
