14
Coordinates from ORCA-job run
  C   -0.18174230194272      0.51631318316410      0.04243882970215
  C   1.03170278780479     -0.34949457294699     -0.22984001694516
  F   0.01982229241005      1.34779428855578      1.07283142066211
  H   1.86008592452019      0.32686485390862     -0.45323764231265
  H   0.83924379919751     -0.94473801584784     -1.12142434677537
  N   -0.62825612099455      1.36463024099008     -1.13278878584042
  O   0.04487506374473      1.30464604739950     -2.15530821401117
  O   -1.62077567521669      2.05259103735157     -0.92908968233376
  N   -1.37489210795749     -0.36194247319877      0.36041327129477
  O   -1.80409583461479     -0.34784221376031      1.50306542459213
  O   -1.75325546788505     -1.04950022490468     -0.58127867413687
  N   1.38079707031788     -1.20967324815434      0.87746663151320
  H   1.47291793832644     -0.69181205245178      1.74078412772310
  H   0.71357263228970     -1.95783685010496      1.00696765686795
