14
Coordinates from ORCA-job run
  C   -0.39530877974244      0.15036037140257     -0.59082033346545
  C   0.92140201627203     -0.60455437278676     -0.44419659722047
  F   -0.74255854509982      0.24913277014142     -1.88000771850715
  H   1.61636494568083     -0.08282149862736     -1.11012206753050
  H   0.74430264478858     -1.59472357926866     -0.87138252965852
  N   -1.57076497051965     -0.48205718301501      0.12899182165919
  O   -2.63753701730143      0.10147227990955     -0.00915975983008
  O   -1.36442799599679     -1.52192033927718      0.74601871892346
  N   -0.27948399938617      1.54227825208389     -0.01160283106536
  O   -0.01532175261604      2.44257029517036     -0.79399807481538
  O   -0.38539935372260      1.60887960974425      1.20873029026206
  N   1.49839367040147     -0.73447833078721      0.86519614946441
  H   0.87680311035357     -1.23107881496228      1.48646044576773
  H   1.73453602688846      0.15794054027242      1.27489248601606
