14
Coordinates from ORCA-job run
  C   -0.39340348983065      0.13543802043539     -0.59579731812950
  C   0.93638672307344     -0.59197213255779     -0.42949458846975
  F   -0.79420065299216      0.10173059898558     -1.87273334393019
  H   1.64617717825087     -0.06154897190258     -1.06913147955728
  H   0.77118721681196     -1.57817740845945     -0.87530195167589
  N   -1.46112067306516     -0.50156363939336      0.26475246298831
  O   -1.43926149672523     -0.17640792514399      1.44740302550319
  O   -2.18129930221887     -1.32760466293850     -0.27510681000057
  N   -0.37180243100536      1.59512014942989     -0.18512519931047
  O   0.68861818038849      2.05141841092058      0.22949625362798
  O   -1.42726520861376      2.19365062046560     -0.34435364287726
  N   1.48268487351609     -0.73443553123540      0.89170795086350
  H   1.65878860648205      0.16757065669127      1.30923583222130
  H   0.88451047592830     -1.27221818529723      1.50244880874662
