14
Coordinates from ORCA-job run
  C   -0.15036078000391      0.52484139323347      0.05806002333100
  C   1.00439073220870     -0.40273106246181     -0.26141470776723
  F   0.12177263217235      1.31876273697552      1.10175503517384
  H   0.75797661792431     -0.96513912136993     -1.16096808618302
  H   1.86570685560891      0.22951682773661     -0.48958709241038
  N   -0.57215395565648      1.42521470038930     -1.08760587594622
  O   0.06868569385197      1.34410887914283     -2.12913733182653
  O   -1.51308740876070      2.16991683972723     -0.84293748848181
  N   -1.38549237976975     -0.29040751102652      0.38418723266442
  O   -1.82149538301647     -0.93528479184593     -0.56280426841088
  O   -1.79032017506586     -0.27538355496912      1.53563872327335
  N   1.32676815391727     -1.30717952766169      0.81836234050307
  H   0.62200331837649     -2.02072241699780      0.94405645621634
  H   1.46460607821317     -0.81651339087215      1.69139503986405
