14
Coordinates from ORCA-job run
  C   -0.21687254932208      0.45870998361818      0.14281907472608
  C   1.00550123839155     -0.33538128627693     -0.27829278156947
  F   -0.03116587169747      1.08030151205228      1.31164567093757
  H   1.79176877107842      0.40499391042648     -0.45947080460942
  H   0.78209262522616     -0.82954396425907     -1.22290780190716
  N   -0.56702787464751      1.49289637046884     -0.91047913331931
  O   -0.98138900693558      1.01974105830833     -1.96289563080116
  O   -0.35917791474220      2.66466161080434     -0.63817473350382
  N   -1.47447515884654     -0.38458374672909      0.28087477593593
  O   -1.43617268754641     -1.52947385625244     -0.15563861588429
  O   -2.42131898173410      0.17708382670069      0.81649371129922
  N   1.46552259993074     -1.29839740744711      0.69057121404939
  H   1.64216324378063     -0.86896867117614      1.58827113745121
  H   0.80155156706439     -2.05203934023837      0.79818391719522
