14
Coordinates from ORCA-job run
  C   -0.32989372135543      0.17238469921406     -0.65822995697972
  C   0.90680953141880     -0.58811655126219     -0.24367436734796
  F   -0.53383964971402      0.09484798395106     -1.98025112702520
  H   1.77180033777227     -0.06499979411820     -0.67128030034757
  H   0.81428266805116     -1.55650536048841     -0.74094940052551
  N   -1.54248802077881     -0.40884243708422      0.04836126200441
  O   -1.88210703811479     -1.50554101691558     -0.37063581329135
  O   -2.02917429856882      0.23391462618706      0.96575845001498
  N   -0.29120526933770      1.64420295080216     -0.29593769825252
  O   0.55100719889377      1.98886925784580      0.52689642454318
  O   -1.10662733556600      2.35414904760982     -0.86590909656102
  N   0.91708720044162     -0.78058580333787      1.19036334669584
  H   1.31394268224098      0.02187317285995      1.65737861663272
  H   1.44140571461696     -1.60665077526344      1.43810966043973
