14
Coordinates from ORCA-job run
  C   -0.34688716908839      0.14353233025704     -0.40142291002010
  C   1.09751791239535     -0.17300382216749     -0.07052093646934
  F   -0.82546115150252     -0.65625643847826     -1.36307844710042
  H   1.67118661785316     -0.03588637562767     -0.99019140997343
  H   1.45411155423850      0.55651749150667      0.65529603374896
  N   -1.20381305575923     -0.02913469952389      0.83685137578495
  O   -1.99922760143862     -0.95486930018640      0.85453066462194
  O   -0.95704412396686      0.77325407029271      1.73013440380236
  N   -0.59424280733224      1.57216547122728     -0.84675897966526
  O   -1.76129098638668      1.84209985829181     -1.10162513271705
  O   0.38149971939097      2.30894520238382     -0.93217554067639
  N   1.28789293389691     -1.51287859389463      0.43547905088092
  H   0.91588892175234     -1.62723697023062      1.36829318327867
  H   0.87886923594732     -2.20724822385037     -0.17481135549582
