14
Coordinates from ORCA-job run
  C   -0.27400660852520      0.12923828341418     -0.66033889316473
  C   0.99087147115459     -0.61097091695828     -0.23928204225803
  F   -0.43187524309958      0.07766647980355     -1.98874105174175
  H   1.81476044386623     -0.10025065347284     -0.74388430679157
  H   0.89613187299020     -1.60275614992556     -0.69317813072286
  N   -1.49246934322474     -0.47845950337745     -0.00311686633123
  O   -1.68430633485036     -0.13318555850934      1.15830421577554
  O   -2.11448966621120     -1.30349816333777     -0.65492184547484
  N   -0.30619682177717      1.59593794466470     -0.27520941916100
  O   0.66560561889483      2.04607150501720      0.32273358093595
  O   -1.30414102924848      2.20484417387036     -0.63692018472825
  N   1.28064257467734     -0.73706598557317      1.16240799473607
  H   0.57169283394306     -1.25761525901835      1.65894131015988
  H   1.38778023141049      0.17004380340277      1.59220563876683
