14
Coordinates from ORCA-job run
  C   -0.34463489048775      0.00744809811409     -0.63940304505984
  C   1.00012117306994     -0.59334823589156     -0.24481029152329
  F   -0.56937343550931     -0.15627412234672     -1.94891829935259
  H   1.71949112259030     -0.14228731824500     -0.93594695682100
  H   0.93406830709770     -1.65559644756028     -0.49280965864812
  N   -1.53881057160518     -0.58517708336385      0.08426081054234
  O   -2.62499399219862     -0.13246715210853     -0.25129295790693
  O   -1.32167736685628     -1.47354466092476      0.90170514207270
  N   -0.38414381953063      1.48483536551889     -0.32130523002608
  O   -0.61254401563406      1.75876808097033      0.85245318113955
  O   -0.11056190186065      2.25088621428402     -1.23282470872080
  N   1.45420128849920     -0.43570630772344      1.10927520702287
  H   1.58879612888962      0.53281815977105      1.36200472081912
  H   0.80906197353571     -0.86135459049426      1.75861208646207
