14
Coordinates from ORCA-job run
  C   0.93730352764200      0.33050094043508     -0.07961672366611
  C   -0.56884898225120      0.09363809971024      0.23593348963489
  Br  1.25138203151806      0.36443927831949     -2.01588287982973
  H   -0.64350958544337      0.14345941696328      1.33053790254957
  C   1.37276324912132      1.61246272465299      0.47186803283896
  N   1.71813474494445      2.63300170869313      0.94332354157048
  C   1.73210129678243     -0.75370896458724      0.49504549330902
  N   2.33279752923463     -1.64244281601299      0.97672436317150
  C   -1.08647375246949     -1.26271460033141     -0.24378688628124
  H   -2.12493372436910     -1.37902661229753      0.07028508874829
  H   -0.50058243458653     -2.07206416913884      0.19545854449099
  H   -1.04420348262933     -1.33483012252799     -1.33034340688459
  C   -1.35919768641900      1.19608136925942     -0.31266677765340
  N   -2.01573273107488      2.07220374686236     -0.73787978199865
