14
Coordinates from ORCA-job run
  C   0.89319604946303      0.36437461865798      0.36249706016142
  C   -0.64271828865849      0.23598763665337      0.13937945804115
  Br  1.30939322045126      0.02163638057647      2.25278965463428
  H   -1.11200432899196      0.94290180336728      0.83311823899242
  C   1.61562628751060     -0.60958220478773     -0.45277934065287
  N   2.16356846387088     -1.41145723455292     -1.11592415228093
  C   1.34254782318040      1.72129313314574      0.05685611307800
  N   1.67513291302734      2.82222030059264     -0.18883442717566
  C   -1.17456289754311     -1.17804842644204      0.37759211891935
  H   -0.98061429364041     -1.49477025141360      1.40195739629932
  H   -2.25267992062868     -1.18646947012375      0.20965368456427
  H   -0.71436792163945     -1.88643939242935     -0.31358043662204
  C   -0.93693962959001      0.66876903673506     -1.22980669318789
  N   -1.18457747681139      0.98858407002084     -2.33291867477081
