14
Coordinates from ORCA-job run
  C   0.89890937475897      0.38674595134877      0.32621635735561
  C   -0.63983224634918      0.24278633212004      0.13437177398994
  Br  1.34452738566068      0.15524645319053      2.22636234998993
  H   -1.10025424886706      0.98931134890048      0.79172052391429
  C   1.61081941716097     -0.63206439949592     -0.44197009754861
  N   2.14764895719321     -1.47364354304153     -1.06355795268919
  C   1.33938595813918      1.72449164991777     -0.06461512162599
  N   1.66393017638533      2.81078978563808     -0.37697455886664
  C   -1.16532736498780     -1.15507538145072      0.46502378404412
  H   -0.70730127111334     -1.90465173791555     -0.18298852646722
  H   -0.96388436504079     -1.40586117317485      1.50618119290929
  H   -2.24445030462973     -1.17687021530908      0.30504954037401
  C   -0.95659363843445      0.59273287279878     -1.25334787749892
  N   -1.22657782987598      0.84606205647319     -2.36847138788062
