14
Coordinates from ORCA-job run
  C   0.86176162495881      0.49632184942791      0.38694850474408
  C   -0.64783072363056      0.12680825619230      0.36612295133905
  Br  1.13501413004148      2.11792969687081      1.45531661652704
  H   -0.94962009098144      0.00973182297812      1.41318699462723
  C   1.62154179867504     -0.58617260173055      1.01043412040338
  N   2.19298142813527     -1.48042399161131      1.51687443342054
  C   1.35056938754621      0.74097566261076     -0.96832907964630
  N   1.71329514036170      0.91426361836619     -2.07353709948082
  C   -0.89817421177615     -1.17307325785162     -0.40577045755772
  H   -0.35509223363732     -2.00173355043342      0.05199328499139
  H   -0.59107175646454     -1.07137913207842     -1.44836174208661
  H   -1.96424554415165     -1.40472041504787     -0.38360022571100
  C   -1.41420619963090      1.22990943543034     -0.21441266357749
  N   -2.05592274944593      2.08156260687673     -0.70686563799278
