14
Coordinates from ORCA-job run
  C   0.93799206018286      0.32458573126485     -0.05988093230025
  C   -0.56941578785901      0.08119247116821      0.24248269381273
  Br  1.24835502367231      0.48949720752030     -1.99010794945841
  H   -0.64180391309831      0.05582128652134      1.33806989992270
  C   1.38771968769376      1.56055503542296      0.57806827663644
  N   1.73778689469821      2.54394399468947      1.11993580162646
  C   1.72496536578382     -0.80362042468509      0.43587132125574
  N   2.34445322504952     -1.70754397400218      0.86202438088582
  C   -1.10006292297118     -1.23437402062013     -0.32814380564945
  H   -1.06460993496891     -1.23031430907621     -1.41731301390954
  H   -2.13742802859548     -1.36544730759595     -0.01632542826404
  H   -0.51751142084029     -2.07674978410589      0.04932685031259
  C   -1.35069830899980      1.22585186901122     -0.22689938031668
  N   -1.99974193974746      2.13560222448710     -0.58810871455413
