14
Coordinates from ORCA-job run
  C   0.95031655647403      0.27071230852536     -0.15071860287633
  C   -0.53846610269955      0.12945035190947      0.28267561122907
  Br  1.11157683236960      0.30178914933276     -2.10608599667105
  H   -0.52345496162305      0.17750673792163      1.37975594541772
  C   1.50881349980323      1.51750872655977      0.36935110628886
  N   1.93075106892129      2.52066725273295      0.81511649512761
  C   1.71593269268934     -0.86844217850083      0.35285465997664
  N   2.29552153239821     -1.79813581063939      0.77968832444041
  C   -1.17897235795024     -1.18797414027741     -0.15582339119282
  H   -1.22643733309608     -1.25606153165146     -1.24241993863851
  H   -2.19504998974696     -1.23820776187060      0.23854536589946
  H   -0.61457363133282     -2.03615472782561      0.23566186941410
  C   -1.29815146904064      1.28171593021416     -0.20336891564326
  N   -1.93680633716636      2.18662569356920     -0.59423253277189
