14
Coordinates from ORCA-job run
  C   0.97651940696789     -0.00389614881126      0.33093040496911
  C   -0.57571837281021      0.11561152690336      0.37730495456240
  Br  1.54770475173223     -1.52343828527786      1.43958038158449
  H   -0.84242307476268      0.21369762201731      1.43581222794833
  C   1.43465820878143     -0.23358110065849     -1.03743398276553
  N   1.76460618596197     -0.42754952972708     -2.14932353775134
  C   1.59764957884065      1.19723763282012      0.88572228361404
  N   2.06840483600865      2.17134551185857      1.34671568678404
  C   -1.29589626268609     -1.08145339494307     -0.24516790784114
  H   -1.04301592148631     -2.00019735239976      0.28342808050032
  H   -2.37346122933560     -0.92523722086229     -0.17424338915520
  H   -1.03317861612332     -1.18643156964683     -1.29941077965796
  C   -0.95260276589643      1.35376542094761     -0.31064122015345
  N   -1.27124672519217      2.33012688777969     -0.88127320263812
