14
Coordinates from ORCA-job run
  C   0.83930843366010      0.38778014010752      0.45862637058737
  C   -0.66507220419294      0.17842665306041      0.11335191550588
  Br  1.15735494321909     -0.11484822862352      2.33153567875489
  H   -1.23089747279958      0.78372217716784      0.83076116437418
  C   1.68171638364747     -0.44800812677296     -0.39407533289648
  N   2.32284438429543     -1.14201915553638     -1.09430965854868
  C   1.20284333006714      1.79660079106922      0.31829220529037
  N   1.45882485001740      2.93944893448203      0.21071668789998
  C   -1.10660838159464     -1.28436852142223      0.18379317392562
  H   -2.16621312601297     -1.34909698889812     -0.06835210199168
  H   -0.96402893864827     -1.68223117783081      1.18810258527870
  H   -0.54692804252558     -1.89232262781824     -0.52927581745208
  C   -0.89610336077404      0.71588209467284     -1.23084837134632
  N   -1.08804079835862      1.11403403634241     -2.31931849938173
