14
Coordinates from ORCA-job run
  C   0.94613882897661      0.30017485147633     -0.11441937604490
  C   -0.57105554357215      0.14440177715873      0.19818973318939
  Br  1.31334862163490     -0.05932664126098     -2.00832235186118
  H   -0.67401779411421      0.41380318582521      1.25793582255719
  C   1.38226096039550      1.66426670034460      0.17841185082202
  N   1.70119699543374      2.76661102083266      0.43578678050084
  C   1.71065537194864     -0.65262809371958      0.68865384589212
  N   2.28756645066717     -1.42952754626698      1.35670551001392
  C   -1.09477864856431     -1.27646870561765     -0.01401523125045
  H   -1.01804679047199     -1.56795339107372     -1.06133154833844
  H   -0.53676418199848     -1.98484902215863      0.60095152497168
  H   -2.14488025920653     -1.31658353928865      0.27987091437481
  C   -1.33135543599936      1.11890825150497     -0.58474932170159
  N   -1.96826857512953      1.88017115224367     -1.21266815312542
