14
Coordinates from ORCA-job run
  C   0.93808115508436      0.34410052648113     -0.00752423463808
  C   -0.57447541582220      0.06211218262558      0.22974464048596
  Br  1.31078845773237      0.61239549854480     -1.91538214593669
  H   -0.68366083052124     -0.01820857833198      1.31961021684986
  C   1.34254733709448      1.55395357256605      0.70635586876900
  N   1.63792677118161      2.52181401408123      1.30550432420572
  C   1.72623991622545     -0.79673539136966      0.45605660264035
  N   2.32260734770867     -1.73247591815964      0.84511603843866
  C   -1.06295930463756     -1.23180252753934     -0.42263740527158
  H   -0.48333465440611     -2.08356589659120     -0.06244591930863
  H   -2.10974895343458     -1.39040272104290     -0.15878588848745
  H   -0.98525029035545     -1.17492952984947     -1.50815481100366
  C   -1.35991939963009      1.21457302361638     -0.21288972392898
  N   -2.01784213621969      2.11817174496902     -0.57356756281448
