14
Coordinates from ORCA-job run
  C   0.96512753831615      0.03508539591586      0.35711306825338
  C   -0.59140154427982      0.08612018949594      0.36270276496244
  Br  1.57192992064943     -1.46842301199341      1.46921931063478
  H   -0.89029339497282      0.15647710962844      1.41480085102547
  C   1.46987568507936     -0.16358851919434     -0.99976567247008
  N   1.84043271957017     -0.34032856951257     -2.10161650246671
  C   1.51980683224660      1.25640698243180      0.93774008421934
  N   1.93984906365515      2.24397168996969      1.41867239872479
  C   -1.24050961291724     -1.13213682585114     -0.29565500281564
  H   -0.95196201164937     -1.20464640263279     -1.34567550413034
  H   -0.95403858416970     -2.04742409725119      0.22146595639729
  H   -2.32553770898112     -1.02954741518055     -0.24449076151451
  C   -1.00448473075575      1.31727918529098     -0.31691963570981
  N   -1.34879417179105      2.29075428888328     -0.87759135511040
