14
Coordinates from ORCA-job run
  C   0.85675624206201      0.49195613456241      0.40224930957120
  C   -0.65199453361659      0.12062792183465      0.36006336899979
  Br  1.11574625118242      2.10162703928530      1.49245035513476
  H   -0.96441783154421     -0.01232651532758      1.40207939678559
  C   1.60986574365091     -0.59637766958411      1.02357419535939
  N   2.17312284257878     -1.49431356925413      1.53265093189224
  C   1.36117859103614      0.75274031167632     -0.94420305370969
  N   1.73880275986852      0.93698334319270     -2.04250254124318
  C   -0.89172387234754     -1.16798518452181     -0.43381223065243
  H   -0.34683774744691     -2.00111015172818      0.01333874139655
  H   -0.57969785869787     -1.04798433528488     -1.47292079002114
  H   -1.95662725310908     -1.40533671563932     -0.42117794810928
  C   -1.41394510829799      1.23081863283163     -0.21259719109323
  N   -2.05022822531858      2.08868075795698     -0.70119254431058
