14
Coordinates from ORCA-job run
  C   0.93699241881171      0.34738131801054     -0.01327258601202
  C   -0.58019391464033      0.07811305688077      0.21005115763053
  Br  1.35438113961498      0.46385992246261     -1.92695480297376
  H   -0.71569431848695      0.08734247617522      1.29998677419431
  C   1.32049114408450      1.61250306585149      0.61063204262600
  N   1.59767996890944      2.62782735136697      1.13530314883032
  C   1.71689361687253     -0.74878327590204      0.55891686960981
  N   2.30440971798147     -1.64894696025744      1.03572551427988
  C   -1.04852967335152     -1.26736345462008     -0.34545002610720
  H   -2.10082964498241     -1.40946127046691     -0.09450468160482
  H   -0.47488706248491     -2.08365120813085      0.09711231308629
  H   -0.94473316932527     -1.29925420044736     -1.42985065597191
  C   -1.35757934977023      1.18703733662443     -0.34425162732862
  N   -2.00840087323301      2.05539584245266     -0.79344344025882
