14
Coordinates from ORCA-job run
  C   0.94957101076244      0.26029895275264     -0.17431339551207
  C   -0.52349346880369      0.12131147593879      0.31047317732229
  Br  1.03476230507860      0.40379399296556     -2.12920832561390
  H   -0.46295433332648      0.09973144392972      1.40682281902574
  C   1.55407499298246      1.46362071718466      0.39455867852485
  N   2.01159393617956      2.43071150052731      0.88281146106650
  C   1.70986179079388     -0.92027002443004      0.23289460973836
  N   2.28382661354777     -1.88305834589189      0.58842686698479
  C   -1.20984764115799     -1.15332487985263     -0.18164141371401
  H   -1.30334036120466     -1.15207468812140     -1.26739295359306
  H   -0.64805811590510     -2.03490201042657      0.13223434596786
  H   -2.20978906139878     -1.20910759752000      0.25151591502983
  C   -1.27616896830702      1.31684676889631     -0.07009408867980
  N   -1.91003869924099      2.25742269404755     -0.37508769654738
