14
Coordinates from ORCA-job run
  C   0.94800510938483      0.27723767992003     -0.15527807578925
  C   -0.54399253832307      0.13629915882028      0.26789948034699
  Br  1.13434240282784      0.20236181336927     -2.10679160163864
  H   -0.54309183677791      0.24441139166052      1.36087731013642
  C   1.48101246957891      1.55962055188369      0.30124290346207
  N   1.88401865494455      2.59140839749031      0.69616170763556
  C   1.72292679280540     -0.81997249943211      0.42197747184741
  N   2.30765094198690     -1.71508065075744      0.91137610257986
  C   -1.15801971300723     -1.21369132726282     -0.10474126688013
  H   -2.18005030875033     -1.25697470719967      0.27486667704226
  H   -1.18550326218129     -1.34459392363663     -1.18630489004225
  H   -0.58814022094002     -2.02912730638701      0.34418620748567
  C   -1.31548719782320      1.24778083624381     -0.28927993953669
  N   -1.96367129372537      2.11932058528776     -0.73619208664929
