14
Coordinates from ORCA-job run
  C   0.92083938132646      0.28703021505629      0.36411920300694
  C   -0.62714488216619      0.23513266677437      0.19920118381897
  Br  1.40694229678680     -0.31878021375948      2.16951927491090
  H   -1.04088188460206      0.85989588232921      0.99900643914802
  C   1.56997227427436     -0.58969969882511     -0.60805766096321
  N   2.05279517320254     -1.31206104088615     -1.40042508331605
  C   1.40420392536211      1.65905032883429      0.22068430225098
  N   1.76573562011690      2.77283663134678      0.11182279470033
  C   -1.19901057299445     -1.18116985089587      0.27854960527861
  H   -0.79122348354675     -1.80845681549554     -0.51612833333346
  H   -0.97701094862356     -1.63263791856453      1.24504897231076
  H   -2.28239731752632     -1.13536561437423      0.15727141230585
  C   -0.96226477396953      0.84971546988146     -1.08867047810498
  N   -1.24155480764033      1.31450995857851     -2.13094163201365
