14
Coordinates from ORCA-job run
  C   0.88345444933843      0.47340823780562      0.36519741376042
  C   -0.63275248163182      0.13201825243734      0.38838523260448
  Br  1.22226203797092      2.07374232468408      1.44736687156388
  H   -0.90190259936793      0.00257264966209      1.44286350056601
  C   1.64241647355565     -0.63161719860675      0.94873998910841
  N   2.21202276813693     -1.54294028695503      1.42587019514254
  C   1.33215982769652      0.72981883651826     -1.00169638045317
  N   1.65744610701202      0.91403413140550     -2.11667404968395
  C   -0.93259843577168     -1.14974385003845     -0.39591443657928
  H   -0.38744015344279     -1.99478798356951      0.02789885206061
  H   -0.66137401316865     -1.03501430492417     -1.44699232139242
  H   -2.00084738880070     -1.36451346422713     -0.33923354201617
  C   -1.39667492460339      1.25930259860381     -0.14684274698968
  N   -2.03617166692352      2.13472005720436     -0.59896857769173
