14
Coordinates from ORCA-job run
  C   0.84473613280114      0.41539355795072      0.42132814215840
  C   -0.66483294068508      0.16525961180572      0.13081645271213
  Br  1.23693154107772     -0.04499574198390      2.29122963116249
  H   -1.21999115283236      0.77442020712774      0.85323172969741
  C   1.67947762305292     -0.41556240899013     -0.44354291983007
  N   2.31687915874538     -1.10720832188294     -1.14926825315195
  C   1.16932195245941      1.82957646501736      0.24402017016791
  N   1.39303475331951      2.97612226155934      0.10765235360041
  C   -1.07140723784524     -1.30454794334182      0.24859148170639
  H   -0.51494121441194     -1.91865868618328     -0.46179032993511
  H   -0.89663744294396     -1.67317959525024      1.25888742555897
  H   -2.13472549469230     -1.39850852969887      0.02328953288557
  C   -0.95120805434026      0.66647593677762     -1.21662996742042
  N   -1.18563762370493      1.03341318709269     -2.30781544931213
