14
Coordinates from ORCA-job run
  C   0.94245673820317      0.33044791951751     -0.02831366452571
  C   -0.58831422396273      0.11876537571308      0.16130283376019
  Br  1.45685177992620      0.08871315767299     -1.90626661087538
  H   -0.77659630110547      0.32575621706783      1.22333911727703
  C   1.31638602991375      1.68563102170085      0.37240735406044
  N   1.58548717452515      2.77698088545489      0.71829192139434
  C   1.67372653864386     -0.64736087092093      0.77592898726170
  N   2.22319817014157     -1.44779941285089      1.43927480222482
  C   -1.05267342736739     -1.30095497454308     -0.16548660229701
  H   -2.11804039766829     -1.38634791649054      0.05403827591749
  H   -0.89772495113128     -1.52957904998702     -1.21967130032553
  H   -0.51513490689244     -2.02846425870371      0.44527382508678
  C   -1.31817137739905      1.11616762642752     -0.62186745822357
  N   -1.93145084582707      1.89704427994149     -1.24925148073560
