14
Coordinates from ORCA-job run
  C   0.86082076196026      0.47704678139159      0.41208651182157
  C   -0.65141678305468      0.12118696161312      0.36106551223906
  Br  1.13288686217195      2.06786802286794      1.52635461546957
  H   -0.96772447188155     -0.02396200286557      1.40027965296739
  C   1.60218784376165     -0.62747339434909      1.01850866313399
  N   2.15661126068660     -1.53857789090095      1.51348774008764
  C   1.37015419427908      0.75349500358279     -0.92930323209454
  N   1.74794063388871      0.95616748519799     -2.02432106242897
  C   -0.90219158067340     -1.15296386074992     -0.45263727046871
  H   -0.59436665588419     -1.01735248928715     -1.49133601214002
  H   -0.36005823361924     -1.99689461282942     -0.02204262649909
  H   -1.96861730688742     -1.38396981265263     -0.43841280652131
  C   -1.40081719132301      1.24704686722067     -0.19741434827091
  N   -2.02540933342477      2.11838294176064     -0.67731533729568
