14
Coordinates from ORCA-job run
  C   0.87021937007994      0.37989898221626      0.39733870777664
  C   -0.65249120728214      0.22205358702680      0.11190025174269
  Br  1.21732176632955      0.03524370826797      2.30117642569553
  H   -1.16285587530688      0.91912647643115      0.78639624168588
  C   1.64573098484587     -0.57422897496809     -0.39219899820423
  N   2.24063470669088     -1.35983325696261     -1.03404694922000
  C   1.30286499418711      1.74782999260036      0.11757433942043
  N   1.61889808045515      2.85935002666297     -0.10069375532985
  C   -1.16673608803353     -1.20196413022042      0.32775265679276
  H   -1.01423312121303     -1.51375704348258      1.36064602979551
  H   -0.66113946226647     -1.90191902024766     -0.33995731374004
  H   -2.23553315580689     -1.23174382111017      0.11026703311932
  C   -0.89818846067970      0.65162819843257     -1.26784634889645
  N   -1.10449253199987      0.96831527535346     -2.38030832063820
