14
Coordinates from ORCA-job run
  C   0.95835250707476      0.10506641541799      0.36515004110529
  C   -0.57239326950908     -0.18180369122103      0.35792517015590
  Br  1.92786925560585     -1.53490765831529      0.84795990530094
  H   -0.81585657197271     -0.56588239339940      1.35518852392503
  C   1.40721404224693      0.53392384840692     -0.95775159933604
  N   1.73206127702381      0.86328603130295     -2.03891202795871
  C   1.28499058972342      1.11644513893000      1.36865909826690
  N   1.52019228835465      1.92805646636208      2.18654482067885
  C   -0.99685328667643     -1.18323397223182     -0.71732272982153
  H   -0.50483020621941     -2.14344992849346     -0.56492387969112
  H   -2.07603688230633     -1.33287379024685     -0.65917885822500
  H   -0.75602390756586     -0.80746423958391     -1.71335307383862
  C   -1.26900430874141      1.09452873377485      0.17229933577434
  N   -1.83868152703820      2.10730903929697     -0.00128472633624
