14
Coordinates from ORCA-job run
  C   0.87590235508004      0.45302261331788      0.40736589888043
  C   -0.64184024243624      0.11870555971306      0.38010039229919
  Br  1.19494940455464      2.00075912683323      1.56889367823863
  H   -0.93756428479945     -0.05254013930818      1.42138667995909
  C   1.61700364379118     -0.68125519255211      0.95664596942386
  N   2.17305446346552     -1.61644901916716      1.40255526797164
  C   1.35713977233534      0.76941330256155     -0.93569592700374
  N   1.71256554300969      1.00407257828939     -2.03184058125973
  C   -0.92801845859194     -1.12786220032022     -0.46401905652442
  H   -0.39827658383050     -1.99317927552196     -0.06212264458012
  H   -0.62951203609290     -0.97126698861317     -1.50227539273602
  H   -1.99850692794546     -1.33800867907413     -0.44341967431066
  C   -1.38705965939173      1.27057016558948     -0.12893496527539
  N   -2.00983698914820      2.16401814825234     -0.56863964508274
