14
Coordinates from ORCA-job run
  C   0.92311316172382      0.35703459223362      0.28854836379881
  C   -0.62537536789365      0.27625825622748      0.14211301355152
  Br  1.41086798775205      0.17319380475889      2.18343851240525
  H   -1.03423303709978      1.06613847504883      0.78263059206456
  C   1.56746267675751     -0.71946353311884     -0.46050423033784
  N   2.05035710443648     -1.60447428218297     -1.06583294359725
  C   1.41141608096425      1.65858141516374     -0.16321432980626
  N   1.77368589878456      2.71732757769583     -0.52512370708765
  C   -1.20280159919811     -1.08360398363109      0.53789019929476
  H   -0.98475794363413     -1.30546958501655      1.58219606197733
  H   -2.28571776591270     -1.06285385077099      0.40591673753084
  H   -0.79564056627115     -1.87572832020663     -0.09315801352037
  C   -0.96308887675206      0.58961143953645     -1.24938698239046
  N   -1.24628775365710      0.81344799426221     -2.36751327388323
