14
Coordinates from ORCA-job run
  C   0.95167406325698      0.27795973329934     -0.12279160330641
  C   -0.54665610030216      0.12129089059725      0.26975267729763
  Br  1.16378132370153      0.33143700039863     -2.07277379996358
  H   -0.55959370268144      0.15087640466636      1.36758092360875
  C   1.48944223298758      1.52224524443119      0.42432862212125
  N   1.89803148997163      2.52183200839135      0.89019469434709
  C   1.71138263913588     -0.86148415990887      0.38925158465278
  N   2.28336344503282     -1.79309664107163      0.82267593767110
  C   -1.16735274754975     -1.19266496389577     -0.20636121535182
  H   -2.19034770078356     -1.25875536214885      0.16720786595627
  H   -1.19287402856793     -1.24037633959678     -1.29471133753872
  H   -0.60360652530700     -2.04376833248942      0.17981887770732
  C   -1.30090560043418      1.27753554562755     -0.21481611267162
  N   -1.93633878846039      2.18696897169966     -0.60035711453005
