14
Coordinates from ORCA-job run
  C   0.87753664971140      0.47693876053790      0.37429625443822
  C   -0.63657635216711      0.12579220844622      0.38612242534115
  Br  1.19839322955856      2.07207335858750      1.46970975919088
  H   -0.91230027934107     -0.00917347743728      1.43821653256955
  C   1.64058917100852     -0.62698388157814      0.95436869062839
  N   2.21433499484785     -1.53872343359067      1.42579223439864
  C   1.33311580197254      0.74658406315444     -0.98780250994893
  N   1.66778406358149      0.94566311050483     -2.09738170021304
  C   -0.92333253720480     -1.15446370051500     -0.40556825503006
  H   -0.65311631251605     -1.03061217557305     -1.45586504983054
  H   -0.37002245726185     -1.99674226910464      0.01313784766862
  H   -1.98939752586798     -1.38019770588732     -0.35045262108337
  C   -1.40338912533074      1.24999249933556     -0.15196922790323
  N   -2.04361932099076      2.12085264311962     -0.61160438022629
