14
Coordinates from ORCA-job run
  C   0.93617891811942      0.34906040082647     -0.00387536404850
  C   -0.59476928384950      0.10812943386360      0.14579808649264
  Br  1.50583365147715      0.10898337226062     -1.86664769868811
  H   -0.81478348299951      0.31534911480287      1.20173602244841
  C   1.27287308730502      1.71328259278801      0.39871269320173
  N   1.51134094509081      2.81176964937642      0.74446750212715
  C   1.66465536500747     -0.61076314091639      0.82380782562963
  N   2.20999834452302     -1.39791930647903      1.50625914895185
  C   -1.02219705372561     -1.32174975335742     -0.18691494765798
  H   -0.48763139548813     -2.03579542158668      0.44206376747168
  H   -2.09140118230114     -1.42719558649571      0.00325578816468
  H   -0.83348532734353     -1.55153687262223     -1.23534431118652
  C   -1.32280606216915      1.08758251417026     -0.66123008392431
  N   -1.93380652364632      1.85080300336921     -1.31208842898237
