14
Coordinates from ORCA-job run
  C   0.93490298622656      0.35345437816633      0.01362714874027
  C   -0.59490352135999      0.09791787184659      0.15174537571227
  Br  1.50227086821823      0.21841798147866     -1.85962419364263
  H   -0.81508226858730      0.24743331430398      1.21728615458810
  C   1.26564079517508      1.69478697772940      0.49127432774408
  N   1.49945768959807      2.77284541242883      0.89883362925578
  C   1.66805622897272     -0.64723318751982      0.78729930060343
  N   2.21733232057822     -1.46796795167143      1.42563695358174
  C   -1.01658338152361     -1.31410656622357     -0.25669268608510
  H   -0.83019953831980     -1.48628803352896     -1.31650777175215
  H   -0.47691630916477     -2.05883155826789      0.33100596485012
  H   -2.08470378935220     -1.43437159100563     -0.06924968837419
  C   -1.32811373560469      1.11515104359826     -0.60208680887836
  N   -1.94315834485653      1.90879190866527     -1.21154770634334
