14
Coordinates from ORCA-job run
  C   0.87152058222807      0.47118763834445      0.39677770723912
  C   -0.64139138525233      0.11595008647423      0.38145867069995
  Br  1.17406160280435      2.04163443130009      1.53246056944973
  H   -0.93034943174049     -0.04406642117390      1.42637511104455
  C   1.63026541009325     -0.64361059994529      0.96175816074103
  N   2.20085134656563     -1.56317202320350      1.42161927362040
  C   1.34307385005805      0.77309583489469     -0.95295504015836
  N   1.68962147464873      0.99304672898193     -2.05496708081685
  C   -0.91419441831837     -1.14668114841057     -0.44315375743875
  H   -0.36915170846933     -1.99851910622260     -0.03283878221067
  H   -1.98134646085838     -1.37225220009618     -0.41260967331930
  H   -0.62461378684096     -1.00000776795902     -1.48544268373980
  C   -1.40487413292941      1.24907580867344     -0.14237212988528
  N   -2.04247294198881      2.12531873834223     -0.59511034522577
