16

C	0.0	0.0	0.0
C	-0.481941	-0.127872	-1.47477
Br	1.958687	0.0	0.0
H	0.398334	-0.266554	-2.112895
H	-0.292798	0.978165	0.376855
C	-0.48977	-1.077879	0.94372
H	-1.586465	-0.980067	0.88467
H	-0.153052	-2.066791	0.621246
H	-0.121813	-0.890443	1.956495
C	-1.228054	1.133741	-1.919108
H	-2.109034	1.176441	-1.267386
H	-0.571411	2.003356	-1.801972
H	-1.518977	1.056597	-2.971413
C	-1.294637	-1.328478	-1.703205
N	-1.793044	-2.336597	-2.043902
F	-2.809096	0.0	0.0
