16

C	0.0	0.0	0.0
C	-0.64065	-0.012728	-1.380225
Br	1.955958	0.0	0.0
H	-1.735449	0.103488	-1.045277
H	-0.266976	0.947832	0.46842
C	-0.499283	-1.136363	0.874742
H	-0.154879	-1.000279	1.903035
H	-1.59427	-1.055882	0.811142
H	-0.137292	-2.104275	0.519183
C	-0.475782	-1.320016	-2.150173
H	-0.894671	-1.220122	-3.154626
H	-1.028806	-2.108902	-1.637426
H	0.575254	-1.613955	-2.241511
C	-0.221922	1.128476	-2.177577
N	0.093507	2.042998	-2.847405
F	-2.924129	0.0	0.0
