11
Coordinates from ORCA-job run
  C   0.70678164770143      0.05096627442360     -0.41071509640127
  C   -0.35386761194871     -0.11331728734402      0.37912986686684
  H   0.72030825056117      0.53646096481180     -1.37817601394603
  H   -0.20546028922123     -0.62469540175484      1.32677220472620
  N   2.02810999292924     -0.43840403630526     -0.01851319370719
  O   2.93231679544196     -0.22654159212154     -0.82760214852885
  O   2.15633952975919     -1.01227754996165      1.05853963142851
  C   -1.72382424066635      0.36691070068772      0.02748762656021
  H   -2.08847556911439      1.06683531403398      0.78418409389101
  H   -2.42641810468028     -0.47053561178770      0.00305644518772
  H   -1.74481040076202      0.86459822531792     -0.94316341607714
