11
Coordinates from ORCA-job run
  C   0.95424389390357      0.58159061394182      0.10973494790908
  C   -0.32590294776029      0.68342270333633      0.48621063047555
  H   1.71198288054657      1.32244526967134      0.32713009914861
  H   -0.54407135612888      1.57734938661779      1.06682393280264
  N   1.48938274760478     -0.51600843978413     -0.68496816282023
  O   2.62898162599817     -0.35191755145689     -1.12251191789835
  O   0.79648692401875     -1.51671699551221     -0.86546774257707
  C   -1.46192052810486     -0.25683842988015      0.22075424903782
  H   -1.51843224535925     -0.52780605203873     -0.83364902483152
  H   -1.32667327053601     -1.19120479003420      0.76964298965790
  H   -2.40507772418254      0.19568428513903      0.52629999909557
