11
Coordinates from ORCA-job run
  C   0.70626996430501      0.12276186821839     -0.39699579004062
  C   -0.35108449148583     -0.16772451962315      0.36060045877701
  H   0.70720445138329      0.71491170755956     -1.30320663598522
  H   -0.18803424268630     -0.77901631039197      1.24454968878178
  N   2.04197443253868     -0.36473195789763     -0.05406281766872
  O   2.18697063992940     -1.05109201345666      0.95278558562406
  O   2.94044826629611     -0.03567042896348     -0.82983350246011
  C   -1.73582725339740      0.30292133361303      0.05724361255913
  H   -1.77224112266380      0.90560765778761     -0.85143544821038
  H   -2.40958090163292     -0.54958223279314     -0.06459113256887
  H   -2.12509974258623      0.90061489594745      0.88594598119194
