11
Coordinates from ORCA-job run
  C   0.99338989965799      0.50732853231412      0.12494630766235
  C   -0.23697413107073      0.81421538605974     -0.30257475002302
  H   1.82657528152708      1.19743491231055      0.12513264764543
  H   -0.34311701618234      1.84452982121822     -0.63569528921571
  N   1.38896452829966     -0.80826588291400      0.60958446109042
  O   0.52045705753453     -1.65511340508272      0.81697618537013
  O   2.59736374574293     -0.97294505777176      0.78147396038811
  C   -1.45271593165762     -0.05882685155302     -0.37331902633599
  H   -2.25421056847475      0.45247147642621     -0.90606931278403
  H   -1.23686450336316     -1.00486587241560     -0.87023755295654
  H   -1.80386836201358     -0.31396305859176      0.62878236915884
