11
Coordinates from ORCA-job run
  C   0.95559870929347      0.36560150911330      0.46154374316313
  C   -0.34544960387392      0.31261497773137      0.77008714949951
  H   1.71960361681575      0.76448405193156      1.11548187846745
  H   -0.58451293083845      0.73472266937280      1.74397458532945
  N   1.52603188544761     -0.14380339246508     -0.77830132714200
  O   2.75601041103392     -0.19184235346351     -0.82010882017337
  O   0.77090079009245     -0.48437427599967     -1.68839791388605
  C   -1.48174247854081     -0.23620792703992     -0.03790772649725
  H   -1.26335698421793     -1.23939926055615     -0.40453989525810
  H   -2.39232954421097     -0.26232621046911      0.56026108321925
  H   -1.65975387100113      0.37953021184441     -0.92209275672204
