11
Coordinates from ORCA-job run
  C   0.95077484154277      0.44077985256135      0.40061054575348
  C   -0.36822632340958      0.60786503217684      0.55279131725508
  H   1.70067232485614      1.00477531185505      0.93914753137233
  H   -0.63441890929231      1.38761962281911      1.26331438774191
  N   1.55720642267543     -0.54380904990892     -0.48549616959330
  O   0.84047900403218     -1.16310449884234     -1.27108855327337
  O   2.77643922205844     -0.68015858255000     -0.37726384817287
  C   -1.49169597204648     -0.12166831227620     -0.11888936373577
  H   -1.36825909939447     -1.20221005878588     -0.04206708788525
  H   -1.51739432514018      0.10656693518779     -1.18642216198028
  H   -2.44557718588196      0.16334374776322      0.32436340251804
