11
Coordinates from ORCA-job run
  C   0.66496955920665     -0.47709829502596     -0.03656203203686
  C   -0.30818957366456      0.43085242668387      0.03177086521445
  H   0.54124306377063     -1.54981939584996     -0.11243654213715
  H   -0.02098977305485      1.47661161298174      0.10573145544849
  N   2.07337964288194     -0.08296525025355     -0.01371456781898
  O   2.35888066454170      1.10768129730636      0.06738739959167
  O   2.88274245017763     -1.00906842826464     -0.08066007469421
  C   -1.76078266288880      0.08347889984623      0.01237911475834
  H   -2.25076570740860      0.44306513770104      0.92128810880804
  H   -2.25772346417521      0.57006560238520     -0.83128288641334
  H   -1.92176419938654     -0.99280360751033     -0.06490084072044
