11
Coordinates from ORCA-job run
  C   0.74080755677052      0.10648332753324     -0.33387022333331
  C   -0.38710845576091     -0.17153668848707      0.31941471518974
  H   0.84624204885177      0.76713957681604     -1.18490588516323
  H   -0.32963649530218     -0.86006635394229      1.15859593194914
  N   2.01470577356533     -0.49276500658070      0.06294426664303
  O   2.98836166019918     -0.16372046352468     -0.61601452773238
  O   2.04027270324714     -1.26342697207931      1.01751025390563
  C   -1.71373204154805      0.41116337646472     -0.04328437977393
  H   -2.42576749824108     -0.38311698841356     -0.28333075772890
  H   -1.64374052599846      1.08366276686575     -0.89950579653216
  H   -2.12940472578326      0.96718342534786      0.80144640257638
