11
Coordinates from ORCA-job run
  C   0.70452532904024      0.08245442014476     -0.40993313219619
  C   -0.35141621699875     -0.14005384587749      0.37205588491697
  H   0.71081261985106      0.62898549324899     -1.34432895317394
  H   -0.19463483994806     -0.70946757158408      1.28461853026202
  N   2.03145889272297     -0.41938078494382     -0.05368792524743
  O   2.93120588963419     -0.14663765703536     -0.84946433953088
  O   2.16832753304602     -1.06196560172523      0.98267800224745
  C   -1.72680764765373      0.34978647928348      0.05681754534191
  H   -2.42388853311799     -0.48974002962570     -0.01202538503250
  H   -2.09128447170385      1.00190077343604      0.85522857881100
  H   -1.75729855487209      0.90311832467841     -0.88295880639840
