11
Coordinates from ORCA-job run
  C   0.94565106708307      0.37347539208453      0.47502233339947
  C   -0.34684982674893      0.71613826021767      0.42053182165178
  H   1.70100806242740      0.93429703193992      1.00919490675302
  H   -0.58883897729269      1.61287012617709      0.98717423797170
  N   1.51875909805871     -0.77929936299176     -0.20681960516876
  O   2.74840753567840     -0.84838177724508     -0.19696792850694
  O   0.76601766757553     -1.59649142416239     -0.73590616384724
  C   -1.47065671167333      0.03565459530927     -0.30010610744511
  H   -2.37240025865073      0.64593465237156     -0.25517261241919
  H   -1.68220977542432     -0.93863564512910      0.14533553215551
  H   -1.21788788103310     -0.15556184857171     -1.34328641454422
