11
Coordinates from ORCA-job run
  C   0.74146348557892      0.18954722862696     -0.29198751314366
  C   -0.38773238925662     -0.24812655136633      0.26436748558747
  H   0.84641054584412      1.04094816019314     -0.95225232043744
  H   -0.32962895485787     -1.12197548903305      0.90825120313842
  N   2.01782743237676     -0.48096481690962     -0.04625822713667
  O   2.04356911633075     -1.46609000198999      0.68496162366072
  O   2.99343840205674      0.01475488691947     -0.61168214390379
  C   -1.71649999785065      0.39865880238406      0.04718238991343
  H   -2.42228404293667     -0.31624499537962     -0.38440808361871
  H   -2.13986883185151      0.72880554882385      0.99970842177652
  H   -1.64669476543396      1.26068722773113     -0.61788283583630
