11
Coordinates from ORCA-job run
  C   0.75554308905592      0.31685190042505      0.00045559540148
  C   -0.39781026715254     -0.35084851552913      0.01108263264444
  H   0.87815183025455      1.39068886390166     -0.06023249495012
  H   -0.35452432684546     -1.43504077164320      0.07633591416839
  N   2.03793378912980     -0.38283949514799      0.07408733587642
  O   3.03592635848205      0.33893868987821      0.05665816990671
  O   2.04644772692847     -1.60775039661564      0.14666897145930
  C   -1.73395006405964      0.31277697843675     -0.06231995041704
  H   -1.64731885472955      1.39851378898741     -0.12509274448837
  H   -2.33240066438480      0.06279615005041      0.81794637578395
  H   -2.28799861667881     -0.04208719274353     -0.93558980538514
