11
Coordinates from ORCA-job run
  C   0.71122962445928      0.07488472860957     -0.39969423561600
  C   -0.35826601615865     -0.13645800370399      0.36690812887972
  H   0.73704849465736      0.62185396681147     -1.33350256909429
  H   -0.22088363677573     -0.70840626039089      1.28102032426285
  N   2.02683904811802     -0.44400787011197     -0.02627209946613
  O   2.93976312022541     -0.18534536583751     -0.81171938880129
  O   2.14247534294767     -1.08585437622491      1.01315453396293
  C   -1.72316387198383      0.37053894960962      0.03366384230960
  H   -1.73359778221795      0.92804496388231     -0.90407094466570
  H   -2.09176216567115      1.02342080707129      0.82951772571267
  H   -2.42868215760044     -0.46067153971497     -0.04900531748435
