15

C	0.0	0.0	0.0
C	-0.282253	0.027321	-1.553564
Br	1.962025	0.0	0.0
H	-1.399548	-0.124494	-1.552283
C	-0.474136	1.212196	0.685981
N	-0.667157	2.107156	1.420744
C	-0.493761	-1.242237	0.645379
N	-0.664462	-2.214693	1.336137
C	0.303884	-1.146467	-2.237108
N	0.750323	-2.034328	-2.860448
C	0.034412	1.350963	-2.247852
H	-0.319887	1.293402	-3.274893
H	-0.439952	2.163777	-1.731072
H	1.116773	1.495866	-2.242274
H	-2.145651	0.0	0.0
