15

C	0.0	0.0	0.0
C	-0.222832	0.032778	-1.579141
Br	1.961311	0.0	0.0
H	0.481707	-0.722092	-1.94212
C	-0.526478	1.146956	0.718858
N	-0.592231	2.114471	1.398047
C	-0.512057	-1.244767	0.555905
N	-0.5346	-2.334169	1.019815
C	0.246514	1.322842	-2.094943
N	0.55737	2.348182	-2.579357
C	-1.57813	-0.288752	-2.220896
H	-1.408307	-0.38003	-3.304844
H	-2.315319	0.487799	-2.036055
H	-1.964981	-1.232081	-1.8367
H	-1.956428	0.0	0.0
