15

C	0.0	0.0	0.0
C	-0.228672	-0.017361	-1.586471
Br	1.96142	0.0	0.0
H	0.515919	-0.741015	-1.932384
C	-0.489427	1.207248	0.651032
N	-0.563238	2.249639	1.204752
C	-0.62742	-1.191864	0.565865
N	-0.699141	-2.285473	1.024234
C	0.16091	1.280225	-2.144787
N	0.413695	2.298308	-2.675344
C	-1.561985	-0.443876	-2.208187
H	-2.342752	0.299026	-2.071012
H	-1.38206	-0.593881	-3.282133
H	-1.895178	-1.384702	-1.769582
H	-1.950564	0.0	0.0
