15

C	0.0	0.0	0.0
C	-0.317394	-0.028475	-1.548193
Br	1.961655	0.0	0.0
H	-1.401151	-0.18621	-1.576624
C	-0.57909	1.196444	0.610694
N	-0.596097	2.270973	1.11418
C	-0.504399	-1.20649	0.658416
N	-0.549168	-2.25129	1.212443
C	0.313629	-1.163816	-2.215851
N	0.758328	-2.054082	-2.842469
C	0.002889	1.287663	-2.255335
H	-0.552933	2.096883	-1.776078
H	-0.309427	1.217115	-3.299876
H	1.067939	1.519163	-2.223183
H	-2.12555	0.0	0.0
