15

C	0.0	0.0	0.0
C	-0.230617	0.101833	-1.577762
Br	1.961431	0.0	0.0
H	0.500244	-0.609234	-1.977562
C	-0.5167	1.126088	0.761381
N	-0.585901	2.101335	1.429295
C	-0.559068	-1.260982	0.474088
N	-0.60917	-2.388831	0.838373
C	0.182059	1.429575	-2.041322
N	0.445049	2.482426	-2.492192
C	-1.572461	-0.25323	-2.227815
H	-2.340485	0.488276	-2.024402
H	-1.397967	-0.313889	-3.31241
H	-1.919749	-1.221002	-1.867249
H	-1.957199	0.0	0.0
