15

C	0.0	0.0	0.0
C	-0.300532	0.024145	-1.549757
Br	1.965857	0.0	0.0
H	0.524182	0.589213	-2.000332
C	-0.448659	1.227901	0.650872
N	-0.508846	2.278239	1.189427
C	-0.544232	-1.169787	0.670614
N	-0.573318	-2.213156	1.234408
C	-1.532447	0.722877	-1.929681
N	-2.374177	1.315945	-2.505214
C	-0.311582	-1.392583	-2.120604
H	0.597687	-1.921287	-1.831464
H	-0.373853	-1.352271	-3.210976
H	-1.17557	-1.935209	-1.733589
H	-1.963702	0.0	0.0
