15

C	0.0	0.0	0.0
C	-0.318976	-0.067718	-1.547987
Br	1.962457	0.0	0.0
H	-1.397666	-0.255368	-1.57541
C	-0.621077	1.184058	0.594815
N	-0.624749	2.257727	1.104926
C	-0.471031	-1.213255	0.67233
N	-0.541618	-2.248865	1.236678
C	0.341863	-1.196083	-2.195731
N	0.798291	-2.090067	-2.80822
C	-0.035838	1.248779	-2.267499
H	-0.304018	1.150175	-3.322416
H	1.013634	1.534059	-2.1972
H	-0.649323	2.033697	-1.821265
H	-2.117931	0.0	0.0
