15

C	0.0	0.0	0.0
C	-0.234904	0.040462	-1.554595
Br	1.965684	0.0	0.0
H	0.507039	0.748393	-1.947456
C	-0.376864	1.212297	0.702211
N	-0.667159	2.202543	1.277288
C	-0.384041	-1.219092	0.678822
N	-0.665516	-2.20674	1.26449
C	-1.546782	0.508321	-2.024074
N	-2.607538	0.756411	-2.474094
C	0.010725	-1.326878	-2.200093
H	-0.639294	-2.070167	-1.741484
H	1.04873	-1.62197	-2.065472
H	-0.219668	-1.275081	-3.266358
H	-1.829284	0.0	0.0
