15

C	0.0	0.0	0.0
C	-0.296903	-0.016639	-1.547393
Br	1.965664	0.0	0.0
H	0.480774	0.606623	-2.004667
C	-0.462967	1.241419	0.614268
N	-0.522017	2.310262	1.116419
C	-0.545057	-1.1568	0.694761
N	-0.592546	-2.185165	1.283735
C	-1.58756	0.576227	-1.916364
N	-2.437608	1.080658	-2.565049
C	-0.210646	-1.436492	-2.106144
H	0.729652	-1.904921	-1.812632
H	-1.039296	-2.033493	-1.721186
H	-0.270196	-1.405735	-3.196442
H	-1.971211	0.0	0.0
