16

C	0.0	0.0	0.0
C	-0.557854	-0.089744	-1.403039
F	1.361875	0.0	0.0
H	-1.64528	-0.196985	-1.304934
H	-0.149515	-1.025903	-1.800266
N	-0.35294	1.340172	0.651022
O	0.162112	1.543455	1.748704
O	-1.100422	2.115292	0.064939
C	-0.531953	-1.082521	0.90205
H	-0.27759	-2.055866	0.475307
H	-1.619814	-0.987826	0.965695
H	-0.076269	-0.987253	1.887903
N	-0.127276	1.011268	-2.266385
H	-0.21741	0.708387	-3.22803
H	-0.783989	1.770018	-2.130623
Br	-4.054884	0.0	0.0
