16

C	0.0	0.0	0.0
C	-0.582356	0.244389	-1.382096
F	1.369039	0.0	0.0
H	0.133951	0.856704	-1.932966
H	-1.509272	0.807802	-1.245791
N	-0.291786	1.252335	0.839632
O	-0.081104	2.326815	0.280472
O	-0.612102	1.118327	2.014687
C	-0.503261	-1.224214	0.700135
H	-0.056389	-1.290683	1.691333
H	-0.216066	-2.08463	0.096232
H	-1.590423	-1.168193	0.783681
N	-0.813161	-1.025707	-2.075601
H	-0.943509	-0.817783	-3.05742
H	-1.717762	-1.357056	-1.746346
Br	-3.906292	0.0	0.0
