16

C	0.0	0.0	0.0
C	-0.543875	0.006389	-1.411837
F	1.370271	0.0	0.0
H	-0.298752	-0.981321	-1.815679
H	-1.635245	0.070209	-1.32739
N	-0.329752	1.323284	0.707869
O	-0.010661	1.389401	1.891966
O	-0.824957	2.240391	0.060832
C	-0.542985	-1.125063	0.832611
H	-0.136646	-1.068053	1.841527
H	-0.249357	-2.072633	0.373715
H	-1.635078	-1.050385	0.851982
N	0.078756	1.023233	-2.260267
H	-0.469179	1.868419	-2.194903
H	0.050406	0.708067	-3.21985
Br	-4.053086	0.0	0.0
