16

C	0.0	0.0	0.0
C	-0.586013	-0.300798	-1.366549
F	1.368362	0.0	0.0
H	0.098007	0.118149	-2.107489
H	-1.541933	0.229352	-1.420832
N	-0.280724	1.487778	0.271299
O	-0.760035	1.83046	1.345694
O	0.09505	2.252891	-0.616711
C	-0.511425	-0.846492	1.12166
H	-1.59741	-0.748322	1.180275
H	-0.053734	-0.535052	2.060848
H	-0.246444	-1.879195	0.894433
N	-0.753063	-1.743744	-1.564388
H	-1.721059	-1.956002	-1.338455
H	-0.615465	-1.949954	-2.545509
Br	-3.921989	0.0	0.0
