14

C	-0.551117	0.036646	-1.406019
C	0.0	0.0	0.0
F	-0.080227	-1.008975	-2.145655
H	1.09381	0.0	0.0
H	-1.641835	0.044824	-1.471141
N	-0.126651	1.312989	-2.084776
O	1.03474	1.394336	-2.457573
O	-0.99961	2.169572	-2.224896
C	-0.499194	-1.20227	0.654825
N	-0.931777	-2.143669	1.213127
N	-0.358924	1.236306	0.694118
H	0.449923	1.494695	1.243827
H	-1.158712	1.13188	1.302966
F	2.520214	0.0	0.0
