14

C	-0.339028	0.136781	-1.462831
C	0.0	0.0	0.0
F	-1.623315	0.589588	-1.690746
H	1.093646	0.0	0.0
H	0.365047	0.820688	-1.93383
N	-0.210501	-1.165873	-2.202091
O	0.887578	-1.406511	-2.691936
O	-1.200222	-1.889504	-2.244883
C	-0.62078	-1.153916	0.629886
N	-1.101188	-2.084712	1.163666
N	-0.321135	1.228544	0.725605
H	-1.103907	1.719991	0.313637
H	0.510645	1.806943	0.702684
F	2.520327	0.0	0.0
