15

C	0.0	0.0	0.0
C	-0.532979	-0.448414	-1.361846
Cl	1.804606	0.0	0.0
H	-1.622795	-0.47796	-1.237173
H	-0.178977	-1.468737	-1.553556
C	-0.502036	1.379965	0.381604
H	-0.105205	1.674943	1.35526
H	-0.180769	2.086243	-0.383751
H	-1.594755	1.335488	0.4199
C	-0.37139	-0.997914	1.010664
N	-0.602388	-1.806012	1.831529
N	-0.169523	0.500832	-2.4043
H	-0.960703	0.64566	-3.016197
H	0.606201	0.15513	-2.950206
Br	-3.980779	0.0	0.0
