15

C	0.0	0.0	0.0
C	-0.567703	0.314814	-1.387062
Cl	1.797091	0.0	0.0
H	-1.623222	0.0238	-1.330385
H	-0.059667	-0.322085	-2.117354
C	-0.505846	0.96587	1.056554
H	-0.18283	1.970902	0.784213
H	-1.599113	0.907352	1.066404
H	-0.10798	0.701158	2.037989
C	-0.360086	-1.383276	0.344781
N	-0.571812	-2.508357	0.607525
N	-0.409324	1.728754	-1.710669
H	-1.318139	2.173449	-1.660483
H	-0.061905	1.835715	-2.653085
Br	-3.957851	0.0	0.0
