15

C	0.0	0.0	0.0
C	-0.528083	0.053409	-1.428064
Cl	1.804782	0.0	0.0
H	-1.620003	0.057552	-1.324488
H	-0.216378	1.019605	-1.851815
C	-0.509937	1.170505	0.821856
H	-0.115643	1.129542	1.838564
H	-1.603186	1.112977	0.838508
H	-0.193509	2.106642	0.354299
C	-0.35837	-1.277486	0.631279
N	-0.57751	-2.287011	1.18947
N	-0.104932	-1.102098	-2.201779
H	0.740654	-0.906297	-2.719279
H	-0.833512	-1.366935	-2.848925
Br	-3.953573	0.0	0.0
