15

C	0.0	0.0	0.0
C	-0.385198	-0.106037	-1.510561
Cl	1.803652	0.0	0.0
H	-0.077688	0.844756	-1.962096
H	0.256284	-0.883195	-1.93682
C	-0.582339	1.213899	0.693627
H	-0.28924	2.117415	0.15445
H	-1.673593	1.114666	0.686913
H	-0.235483	1.278457	1.726524
C	-0.380522	-1.239582	0.684026
N	-0.631826	-2.261578	1.205598
N	-1.747865	-0.389435	-1.849865
H	-2.41437	0.294542	-1.504658
H	-2.061489	-1.262262	-1.443394
Br	-4.495011	0.0	0.0
