13

C	0.0	0.0	0.0
C	-0.460523	-0.154337	-1.448049
F	1.374858	0.0	0.0
H	-1.553677	-0.306316	-1.355326
H	-0.218715	0.746357	-2.011739
C	-0.476405	1.305646	0.506994
N	-0.654596	2.387644	0.927633
C	-0.448668	-1.061798	0.918918
N	-0.521398	-1.917199	1.72044
N	0.206771	-1.278243	-2.13538
O	0.430639	-2.301876	-1.492691
O	0.442919	-1.137302	-3.335869
F	-2.448202	0.0	0.0
