13

C	0.0	0.0	0.0
C	-0.447851	-0.109331	-1.458776
F	1.374886	0.0	0.0
H	-1.530519	-0.322211	-1.392035
H	-0.245343	0.825623	-1.978073
C	-0.467309	1.28418	0.550419
N	-0.568406	2.374792	0.978966
C	-0.448757	-1.108142	0.863519
N	-0.558601	-1.993374	1.629231
N	0.294506	-1.163729	-2.185492
O	0.585069	-0.932576	-3.361488
O	0.525821	-2.220816	-1.601994
F	-2.426302	0.0	0.0
