13

C	0.0	0.0	0.0
C	-0.468584	-0.094557	-1.450633
F	1.366111	0.0	0.0
H	-0.206922	0.818682	-1.983469
H	-1.569134	-0.231458	-1.347919
C	-0.463389	1.28648	0.553795
N	-0.566205	2.373991	0.98851
C	-0.457763	-1.100086	0.868781
N	-0.579165	-1.973425	1.645697
N	0.175253	-1.206602	-2.178417
O	0.41568	-2.246309	-1.568031
O	0.376437	-1.038527	-3.382769
F	-2.46207	0.0	0.0
