13

C	0.0	0.0	0.0
C	-0.420129	-0.424197	-1.422546
F	1.383307	0.0	0.0
H	-1.030623	-1.319015	-1.394244
H	0.501148	-0.57825	-2.000587
C	-0.435156	1.318201	0.48196
N	-0.494572	2.386777	0.968853
C	-0.411681	-1.049557	0.945861
N	-0.454859	-1.95743	1.691736
N	-1.184915	0.577708	-2.206367
O	-0.819668	1.747225	-2.137699
O	-2.036578	0.144055	-2.974133
F	-2.245578	0.0	0.0
