13

C	0.0	0.0	0.0
C	-0.453513	0.30472	-1.427375
F	1.377063	0.0	0.0
H	-0.225381	-0.54028	-2.07493
H	-1.544811	0.472339	-1.322828
C	-0.449047	0.973903	1.010902
N	-0.564383	1.738171	1.896081
C	-0.464766	-1.347569	0.369033
N	-0.572318	-2.481044	0.663591
N	0.250657	1.473152	-1.996503
O	0.479008	2.432848	-1.262606
O	0.512772	1.433591	-3.19999
F	-2.438862	0.0	0.0
