13

C	0.0	0.0	0.0
C	-0.449063	-0.056949	-1.459117
F	1.378679	0.0	0.0
H	-1.54272	0.114015	-1.39947
H	-0.19758	-1.027492	-1.882761
C	-0.45112	1.191095	0.740835
N	-0.569277	2.144479	1.417521
C	-0.461324	-1.215598	0.69208
N	-0.55965	-2.244119	1.2532
N	0.239433	0.95508	-2.287354
O	0.40655	2.077808	-1.815048
O	0.554115	0.622073	-3.43203
F	-2.437147	0.0	0.0
