13

C	0.0	0.0	0.0
C	-0.445507	0.086358	-1.459934
F	1.377936	0.0	0.0
H	-0.192267	-0.839059	-1.974399
H	-1.537748	0.252506	-1.393509
C	-0.449837	1.111889	0.854684
N	-0.559323	1.999303	1.617275
C	-0.45966	-1.281475	0.561939
N	-0.549616	-2.369454	0.998495
N	0.245654	1.172891	-2.186815
O	0.553726	0.952146	-3.359873
O	0.418866	2.243003	-1.607526
F	-2.43142	0.0	0.0
