13

C	0.0	0.0	0.0
C	-0.444502	0.120336	-1.45819
F	1.377111	0.0	0.0
H	-0.205759	-0.799016	-1.990123
H	-1.533666	0.300652	-1.389925
C	-0.451258	1.093286	0.877908
N	-0.565952	1.963533	1.659398
C	-0.461339	-1.292303	0.535135
N	-0.557658	-2.385351	0.957581
N	0.266429	1.209747	-2.161857
O	0.437567	2.271018	-1.565384
O	0.593403	1.00145	-3.331927
F	-2.428024	0.0	0.0
