18

C	0.0	0.0	0.0
C	-0.511867	-0.028001	-1.442581
F	1.391528	0.0	0.0
H	-1.614855	0.058366	-1.313448
N	-0.483774	1.219275	0.58455
H	-0.268174	1.203309	1.579161
H	-1.513638	1.13687	0.506683
C	-0.419468	-1.248267	0.760095
H	0.041359	-2.150887	0.351138
H	-1.513047	-1.302203	0.718419
H	-0.097969	-1.140704	1.801133
C	-0.174843	-1.312069	-2.202322
H	-0.744931	-2.147195	-1.792406
H	-0.441726	-1.20859	-3.25669
H	0.892812	-1.536116	-2.136024
C	-0.010957	1.131557	-2.177547
N	0.370066	2.012729	-2.854716
H	-3.107744	0.0	0.0
