18

C	0.0	0.0	0.0
C	-0.568785	0.052984	-1.415515
F	1.420275	0.0	0.0
H	-1.672805	0.126402	-1.207088
N	-0.40359	1.191792	0.67764
H	-0.195649	1.118527	1.664659
H	0.089867	1.988048	0.291626
C	-0.500336	-1.209543	0.746401
H	-0.159808	-1.160284	1.785743
H	-1.599711	-1.166058	0.702626
H	-0.115916	-2.130864	0.305836
C	-0.249178	-1.175425	-2.268439
H	-0.795041	-2.039677	-1.885735
H	-0.565638	-1.013507	-3.301555
H	0.823597	-1.389981	-2.261418
C	-0.114394	1.267849	-2.08553
N	0.26704	2.235603	-2.634056
H	-3.325664	0.0	0.0
