17

C	0.0	0.0	0.0
C	-0.536046	0.0769	-1.427624
Br	2.023889	0.0	0.0
H	-1.643586	0.127661	-1.186738
N	-0.364328	1.21278	0.67141
H	-0.223413	1.122838	1.669228
H	0.160938	2.007523	0.328843
N	-0.556485	-1.155886	0.595496
H	-1.598016	-0.954406	0.50328
H	-0.332303	-1.16736	1.586247
C	-0.224968	-1.139397	-2.289639
H	-0.773256	-1.075226	-3.233733
H	0.845076	-1.209847	-2.503448
H	-0.540322	-2.034887	-1.753958
C	-0.151266	1.317021	-2.083567
N	0.144879	2.313363	-2.634049
H	-2.999484	0.0	0.0
