17

C	0.0	0.0	0.0
C	-0.51043	0.037747	-1.448632
Br	1.961529	0.0	0.0
H	-1.613337	0.085571	-1.280346
N	-0.444619	1.225223	0.622779
H	-1.475859	1.136439	0.583389
H	-0.176252	1.207314	1.603176
N	-0.468905	-1.237721	0.579088
H	-0.215471	-1.240058	1.563534
H	-1.500674	-1.120503	0.530702
C	-0.176337	-1.197981	-2.278604
H	-0.674744	-1.135877	-3.249527
H	-0.522859	-2.084927	-1.751209
H	0.900145	-1.282369	-2.442107
C	-0.094423	1.252487	-2.140588
N	0.206021	2.182907	-2.792703
H	-2.983393	0.0	0.0
