17

C	0.0	0.0	0.0
C	-0.227709	-0.003676	-1.565867
Br	1.965993	0.0	0.0
H	0.465467	0.75612	-1.936657
N	-0.491905	1.257335	0.506426
H	-0.237163	1.326593	1.488343
H	-1.522343	1.115835	0.473899
N	-0.514031	-1.208028	0.574938
H	-0.320192	-1.195672	1.570859
H	-1.543474	-1.084066	0.470048
C	-1.592771	0.353076	-2.166104
H	-1.460427	0.397151	-3.25467
H	-1.917452	1.325835	-1.80159
H	-2.369826	-0.352405	-1.892324
C	0.213708	-1.28495	-2.129193
N	0.508487	-2.290213	-2.660825
H	-3.094683	0.0	0.0
