17

C	0.0	0.0	0.0
C	-0.541282	-0.035197	-1.423876
Br	2.016761	0.0	0.0
H	-1.650409	0.022938	-1.188609
N	-0.535211	1.154834	0.61639
H	-0.288431	1.170261	1.600697
H	-1.575598	0.991723	0.533724
N	-0.378054	-1.226461	0.651062
H	0.258027	-1.985098	0.440361
H	-0.430797	-1.088522	1.651132
C	-0.270507	-1.325862	-2.187801
H	0.80109	-1.535252	-2.260133
H	-0.778465	-2.147521	-1.67951
H	-0.676051	-1.24907	-3.199261
C	-0.135957	1.133072	-2.191505
N	0.143818	2.041296	-2.88414
H	-3.014966	0.0	0.0
