17

C	0.0	0.0	0.0
C	-0.517492	0.025222	-1.444601
Br	2.036533	0.0	0.0
H	-1.626204	0.094287	-1.207803
N	-0.396006	1.198478	0.631228
H	-0.236082	1.13209	1.626408
H	0.045692	2.018097	0.238729
N	-0.532515	-1.063438	0.775433
H	-0.314346	-1.955316	0.345809
H	-1.571802	-0.883299	0.684973
C	-0.226041	-1.223834	-2.265984
H	-0.686062	-2.094579	-1.791161
H	-0.666156	-1.124755	-3.261706
H	0.849937	-1.393643	-2.369581
C	-0.105599	1.227559	-2.151781
N	0.210393	2.19926	-2.734674
H	-3.000506	0.0	0.0
