13
Coordinates from ORCA-job run
  C   0.78315776448843     -0.65294496413481      0.20671014956117
  C   -0.37358348856274     -0.33337369280838     -0.71989243161580
  F   0.30035595782459     -1.38071501665622      1.29401336972903
  H   -0.80023681587404     -1.28617139814664     -1.04597166724391
  H   1.49042732470706     -1.33526009184543     -0.28571420329700
  H   0.02371275474273      0.15648111692142     -1.61685948506875
  N   1.38520420510635      0.54100469536976      0.72674497882705
  H   1.53602828456087      1.21926383583731     -0.00730168570330
  H   2.26907357294017      0.33743969049084      1.17409252030655
  C   -1.44772485346146      0.52479263716732     -0.05928848743259
  H   -1.06100519197608      1.50264167512197      0.22724050487048
  H   -1.81372748485429      0.03615292794145      0.84403023231308
  H   -2.29168202964157      0.67168858474141     -0.73680379524603
