13

C	-0.441411	0.045383	-1.448102
C	0.0	0.0	0.0
F	-0.128114	-1.141186	-2.0956
H	1.093646	0.0	0.0
H	0.078486	0.852004	-1.974515
H	-0.361882	-0.935363	0.43658
C	-1.899353	0.251733	-1.590779
N	-3.056817	0.424456	-1.68526
C	-0.49157	1.211119	0.786909
H	-0.15325	2.139575	0.317746
H	-1.581449	1.245288	0.873628
H	-0.063564	1.188192	1.790523
Br	3.653635	0.0	0.0
