17

C	0.0	0.0	0.0
C	-0.321039	-0.613604	-1.413893
Br	2.158586	0.0	0.0
H	0.594878	-0.986041	-1.874286
N	-0.458009	1.275196	0.195586
H	-0.342784	1.585207	1.147999
H	-0.20746	1.950185	-0.507
N	-0.379474	-0.797207	1.106401
H	-0.201199	-1.771829	0.902075
H	-1.391179	-0.672205	1.201379
N	-0.73306	0.47465	-2.456711
O	-1.575685	0.143401	-3.282008
O	-0.107337	1.536526	-2.482789
N	-1.274485	-1.645411	-1.300077
H	-1.460932	-2.045249	-2.209546
H	-2.154083	-1.267425	-0.92077
Cl	-3.710403	0.0	0.0
