17

C	0.0	0.0	0.0
C	-0.439638	0.070338	-1.490526
Br	2.023146	0.0	0.0
H	-1.534572	0.021436	-1.446
N	-0.410771	1.253059	0.586216
H	-1.434702	1.190828	0.634461
H	-0.042889	1.317883	1.528698
N	-0.443856	-1.186724	0.638575
H	-1.13559	-1.664399	0.072547
H	-0.88275	-0.953629	1.518398
N	-0.003489	-1.166655	-2.220593
O	-0.663368	-2.190038	-2.032115
O	0.979795	-1.089728	-2.952924
N	-0.015631	1.21254	-2.238435
H	0.997169	1.267214	-2.205585
H	-0.382235	2.021677	-1.750353
Cl	-3.516545	0.0	0.0
