17

C	0.0	0.0	0.0
C	-0.39564	0.010326	-1.491283
Br	2.069182	0.0	0.0
H	-1.486262	-0.133564	-1.472738
N	-0.408809	1.172895	0.691081
H	-0.164701	1.98359	0.135983
H	-1.431159	1.098634	0.73879
N	-0.485823	-1.097146	0.669061
H	-0.3367	-1.075585	1.663249
H	-0.414898	-1.990223	0.215843
N	0.178888	-1.208543	-2.232547
O	0.867257	-1.001161	-3.229361
O	-0.100744	-2.328064	-1.805633
N	-0.036871	1.22774	-2.120383
H	0.958958	1.248235	-2.302346
H	-0.535216	1.333824	-2.992424
Cl	-3.605704	0.0	0.0
