17

C	0.0	0.0	0.0
C	-0.276048	-0.386624	-1.524912
Br	2.072918	0.0	0.0
H	0.626544	-0.805579	-1.973572
N	-0.491502	1.230684	0.462272
H	-1.435991	1.108015	0.814185
H	-0.47033	1.947526	-0.246112
N	-0.401882	-1.023834	0.903615
H	-0.134815	-1.926811	0.533088
H	-1.4216	-1.003229	0.958183
N	-0.459897	0.892153	-2.397857
O	0.283028	1.852385	-2.190904
O	-1.279081	0.835381	-3.309115
N	-1.34567	-1.291847	-1.655198
H	-1.535785	-1.467235	-2.633203
H	-2.199172	-0.934134	-1.211292
Cl	-3.701831	0.0	0.0
