17

C	0.0	0.0	0.0
C	-0.454008	-0.013799	-1.50241
Br	2.016364	0.0	0.0
H	-0.377251	-1.043932	-1.85432
N	-0.454739	1.182454	0.658119
H	-1.47111	1.108009	0.7282
H	-0.066396	1.241567	1.591844
N	-0.503594	-1.194812	0.569523
H	-0.087741	-2.032592	0.185594
H	-0.458434	-1.195788	1.578916
N	0.49876	0.751455	-2.385455
O	0.479748	1.975009	-2.302288
O	1.201988	0.100581	-3.157167
N	-1.742427	0.513075	-1.774834
H	-2.500266	0.029237	-1.282329
H	-1.779762	1.486676	-1.499314
Cl	-4.299688	0.0	0.0
