17

C	0.0	0.0	0.0
C	-0.272971	-0.334952	-1.480307
Br	2.109182	0.0	0.0
H	0.26758	-1.25252	-1.700985
N	-0.545266	1.193322	0.40496
H	-0.546213	1.373121	1.395403
H	-0.366895	1.987774	-0.189847
N	-0.391311	-1.142754	0.778857
H	-1.401287	-1.061639	0.914649
H	0.071066	-1.12561	1.679897
N	0.381677	0.686701	-2.417479
O	0.953897	0.235266	-3.40438
O	0.218686	1.885795	-2.191444
N	-1.635897	-0.411941	-1.829837
H	-1.925759	-1.351893	-2.038858
H	-2.308774	0.006843	-1.181586
Cl	-4.153533	0.0	0.0
