14
Coordinates from ORCA-job run
  C   0.85121050283178      0.25797262169060      0.14446161093948
  C   -0.42551955034893     -0.08723474441929     -0.09149916069824
  N   1.71480664252061     -0.50186919147705      1.07384476295153
  O   1.21556001709793     -0.85030677031129      2.13608711733170
  O   2.86056533488243     -0.69715916245376      0.68561515304675
  C   1.48088272469715      1.36378296688329     -0.49022513079383
  N   1.97226521125533      2.29511218669614     -1.01678145894068
  C   -1.38142821080886      0.60650761769285     -0.99234152232303
  H   -2.23787080943358      0.94941676100261     -0.40699771778229
  H   -0.91408197546459      1.45693451180937     -1.48796661000493
  H   -1.74884676571260     -0.09329150802644     -1.74850013637297
  N   -0.97936884171684     -1.27562949978057      0.57806071310477
  O   -1.97897953009269     -1.07699046186136      1.26034902906559
  O   -0.43019474970714     -2.34924532744510      0.35489335047614
