14
Coordinates from ORCA-job run
  C   0.79426211530244      0.19790272719586      0.40515082772739
  C   -0.45146456916339     -0.11461437165041      0.00207961865803
  N   1.88904774696653      0.33755888997404     -0.57726036232298
  O   2.98338080346666     -0.08327480189488     -0.21536596840276
  O   1.61540479737787      0.84350891516323     -1.66081481421474
  C   1.19827222245483      0.39161800132155      1.75572469173853
  N   1.54465845903781      0.58880090289844      2.86357411418988
  C   -0.98229832823013     -0.34202167068697     -1.36869056649046
  H   -0.21102839204160     -0.71190729558477     -2.03888117958634
  H   -1.80119941682481     -1.06187331720564     -1.32323578383158
  H   -1.37359051787079      0.59171386748220     -1.77739445391338
  N   -1.47268924149212     -0.19526544542313      1.06066734844139
  O   -1.30066934832946     -0.99541961238588      1.97419570482708
  O   -2.43208633065384      0.55427321079635      0.89925082317997
