14
Coordinates from ORCA-job run
  C   0.79568693103476      0.20702365717376      0.38948048895362
  C   -0.46110585385651     -0.11940804832414      0.03096346005706
  N   1.85098482757186      0.30896130123876     -0.64442989308950
  O   1.56645211278185      0.89418761194244     -1.68413402090422
  O   2.92419546030428     -0.20907513777671     -0.35658868435711
  C   1.26662114893736      0.45787088849363      1.70744432395748
  N   1.70839958875160      0.71118389281536      2.76915863347312
  C   -1.00763590442469     -0.38099094637693     -1.32723724862544
  H   -1.48721126536997      0.52250457231424     -1.71066238554018
  H   -1.76592437244718     -1.16355988950490     -1.26696373426819
  H   -0.22693783743882     -0.67703206927934     -2.02392460058816
  N   -1.46425850752670     -0.17408310855734      1.11229875887448
  O   -2.53897425810212      0.35791922710711      0.84499109245675
  O   -1.16129207021572     -0.73550195126593      2.16160380960030
