14
Coordinates from ORCA-job run
  C   0.87283931881416      0.21918067536995      0.08883107597824
  C   -0.43199991073941     -0.06698463925901     -0.05516627380294
  N   1.78148027240932     -0.61942411609846      0.89978256269510
  O   2.91130704655632     -0.76234947254634      0.44667009654707
  O   1.33136720169292     -1.08128696884970      1.94058713989555
  C   1.48843659177276      1.33313303753567     -0.54658672507125
  N   1.96143068229807      2.27210594598317     -1.07607052723643
  C   -1.42890947072955      0.70550466593158     -0.84013622162214
  H   -0.96839829689694      1.55832024438043     -1.33782776111496
  H   -1.88823455809966      0.05549114382013     -1.59056170630952
  H   -2.21761971799001      1.05522888327325     -0.16958711373935
  N   -0.98447318112553     -1.26479903924677      0.59809805111025
  O   -0.56324037921276     -2.35045662360556      0.21442659813599
  O   -1.86298559874969     -1.05366373668837      1.42654080453439
