14
Coordinates from ORCA-job run
  C   0.82322141317259      0.23919382992124      0.30756423853679
  C   -0.45982669347992     -0.08188881008073      0.05630783244977
  N   1.85924355044317      0.01612602193151     -0.72566596396520
  O   2.62522800119210      0.95413090370846     -0.91766211734592
  O   1.86641996708433     -1.07321895078152     -1.28910423859883
  C   1.31535239124538      0.87079569140087      1.48310456954613
  N   1.76435513601855      1.39216500259773      2.43854250261721
  C   -1.06445238918983     -0.67527416098949     -1.16346607051602
  H   -1.92290760903348     -0.07076172154988     -1.45926429246148
  H   -1.42324107541375     -1.68327549109418     -0.93241080731350
  H   -0.35265206055979     -0.74513400743759     -1.98104193975287
  N   -1.43012937772720      0.21580960809838      1.13239449988685
  O   -2.45230922632243      0.79944419101696      0.78231231602931
  O   -1.14830202742973     -0.15711210674174      2.26838947088775
