14
Coordinates from ORCA-job run
  C   0.79366243679259      0.23562556825092      0.37322173597642
  C   -0.48719959549014     -0.05520153407705      0.06555656680898
  N   1.84442372484164     -0.03485781378006     -0.64141518850408
  O   1.97968091042597     -1.19337989737924     -1.01649257334527
  O   2.49047221743901      0.94453094271656     -0.99565123281900
  C   1.32796073918180      0.82334374843905      1.55059757275592
  N   1.88594777227251      1.29752217480883      2.47435296196941
  C   -0.99678096022097     -0.62477234148755     -1.20966731696683
  H   -0.19581013175589     -0.79926552741982     -1.92303637774938
  H   -1.49917658608888     -1.57413860047205     -1.00927572270712
  H   -1.74030184057095      0.04999122054779     -1.63651396963537
  N   -1.53254852978616      0.24167314271703      1.07500108807178
  O   -2.69477858672411      0.14726443195897      0.68294432478889
  O   -1.17755157031642      0.54166448517663      2.21137813135565
