14
Coordinates from ORCA-job run
  C   0.84596814910361      0.26725589543952      0.16997814324417
  C   -0.41306074252694     -0.10487412596013     -0.11591073481111
  N   1.74239550459090     -0.55310522725506      1.01218063489933
  O   2.48638185670725      0.07285689802633      1.75885305536447
  O   1.67285794490532     -1.76835142557944      0.87732482248463
  C   1.40702411602896      1.49162053911043     -0.28650890232536
  N   1.84429712108329      2.50350242916098     -0.70000124598192
  C   -1.38886983103803      0.63767482877299     -0.95416105883434
  H   -1.67472170289952      0.01629330421045     -1.80655654291909
  H   -2.29100409930617      0.84562963600197     -0.37110544149817
  H   -0.97022917203801      1.57775149352726     -1.31237658143913
  N   -0.93905269802381     -1.36067041646792      0.44383625912286
  O   -1.05958504925990     -1.41496318987819      1.66293810338544
  O   -1.26140139732695     -2.21062063910919     -0.37849051069179
