14
Coordinates from ORCA-job run
  C   0.85546017870737      0.25211230621286      0.11260578153353
  C   -0.43057290373227     -0.08643620097608     -0.07957724559957
  N   1.72048712705679     -0.45050948636592      1.08447792931146
  O   1.25720041138596     -0.64265678182297      2.20117910720035
  O   2.83049052265349     -0.76136202871123      0.66943480710197
  C   1.49335067594091      1.29788686197703     -0.60866623167821
  N   1.99730708271241      2.17466044517519     -1.21149708199996
  C   -1.38762417048775      0.56016742940405     -1.01384557188986
  H   -2.23412904876640      0.95139372286042     -0.44551267137645
  H   -0.91404011307892      1.37004765641955     -1.56811237027752
  H   -1.77119492222469     -0.18198780699470     -1.71996902028906
  N   -0.98866596884600     -1.21575218514977      0.68176849103548
  O   -2.01704796502871     -0.97377587531445      1.30605502723973
  O   -0.41002090629221     -2.29378805671397      0.59165904968812
