14
Coordinates from ORCA-job run
  C   0.87166095164043      0.21930893741846      0.01335421425101
  C   -0.44012298114793     -0.07027071639064     -0.02816199203518
  N   1.84246758460596     -0.62151658874821      0.74575582085344
  O   2.87670223211295     -0.87695551993791      0.14042709867890
  O   1.53286461328837     -0.96475409044513      1.87941581791454
  C   1.43479815284527      1.34490469085317     -0.64775717652974
  N   1.87201760186197      2.29249385949730     -1.19334689822858
  C   -1.49972254183064      0.71305557316637     -0.71318441516714
  H   -1.07957962124390      1.57790781227284     -1.22693321984272
  H   -2.23409160546547      1.04467564489372      0.02420033525306
  H   -2.01671786498824      0.08000778390651     -1.44012380935340
  N   -0.92102328532459     -1.28219385738027      0.65451114018011
  O   -0.41224121562645     -2.35006991290612      0.32873821577562
  O   -1.82701202072773     -1.10759361620008      1.46310486825006
