14
Coordinates from ORCA-job run
  C   0.86849771509523      0.22405188273045      0.10460216424360
  C   -0.43155659488981     -0.06940765995935     -0.06570943154233
  N   1.76718197776358     -0.61810958313046      0.92324764631599
  O   1.30815642691780     -1.07368630569654      1.96287128951521
  O   2.89882057258375     -0.76841120693276      0.47719726396173
  C   1.48910267978233      1.35034802067984     -0.50289429509765
  N   1.97033023603556      2.30087106141707     -1.00381684261154
  C   -1.42028981773317      0.70467676603635     -0.85924994577712
  H   -1.86346612652000      0.05966476162664     -1.62367057201540
  H   -2.22213801825291      1.04318012720805     -0.19850709160223
  H   -0.95676668784638      1.56517753593184     -1.34087251481699
  N   -0.98465147908969     -1.27864571752739      0.56541804815606
  O   -1.89006325040972     -1.08438028961493      1.36879242775894
  O   -0.53415763343656     -2.35632939276881      0.19259185351174
