17

C	-0.558062	0.030216	-1.413336
C	0.0	0.0	0.0
Br	0.11291	-1.512097	-2.422945
H	1.091466	0.0	0.0
H	-1.638763	-0.118793	-1.385507
C	-0.183891	1.303462	-2.149936
H	-0.695473	2.157769	-1.697544
H	-0.492149	1.241716	-3.195326
H	0.89532	1.462448	-2.102733
N	-0.471514	-1.253613	0.678638
O	-1.677992	-1.509466	0.603773
O	0.343241	-1.919046	1.306135
C	-0.522146	1.154828	0.847088
H	-0.215083	0.998462	1.883468
H	-0.077719	2.092601	0.514183
H	-1.613402	1.220127	0.802899
Cl	3.373936	0.0	0.0
