17

C	-0.346722	-0.046118	-1.482219
C	0.0	0.0	0.0
Br	-2.302937	-0.137909	-1.781452
H	1.094219	0.0	0.0
H	-0.070939	0.935173	-1.874542
C	0.350855	-1.127213	-2.284436
H	1.416395	-1.086679	-2.03822
H	0.207317	-0.947772	-3.352243
H	-0.025382	-2.117213	-2.034939
N	-0.455152	-1.246919	0.686773
O	0.074346	-2.304254	0.348359
O	-1.340623	-1.155286	1.540211
C	-0.503946	1.228599	0.723732
H	-0.054065	2.106397	0.2535
H	-0.178729	1.204236	1.764427
H	-1.590507	1.309529	0.695725
Cl	3.330881	0.0	0.0
