17

C	-0.505401	0.102944	-1.430502
C	0.0	0.0	0.0
Br	-0.086707	-1.546916	-2.413162
H	1.091458	0.0	0.0
H	-1.596034	0.151952	-1.445683
C	0.143864	1.275119	-2.146586
H	-0.120049	1.274168	-3.205532
H	-0.201662	2.217514	-1.711213
H	1.229947	1.212502	-2.041657
N	-0.543324	-1.233942	0.63961
O	-1.767349	-1.388817	0.572072
O	0.227167	-1.985145	1.226299
C	-0.474869	1.175178	0.850067
H	-0.220479	0.983701	1.895178
H	-1.554149	1.326308	0.766117
H	0.055586	2.07919	0.55166
Cl	3.403613	0.0	0.0
