10
Coordinates from ORCA-job run
  C   -0.66488727839023     -0.34323288617318      0.08101889803206
  C   0.66429883776660      0.40871624440826     -0.06798225623432
  Cl  -0.72246652403892     -1.73864062054534     -1.02518977415092
  H   0.79684086403871      0.70713597495725     -1.11074610128850
  H   -0.76273880928443     -0.73979038181297      1.09378676728787
  H   0.63276054593822      1.31626739959252      0.54277869996096
  C   -1.77933641918241      0.56154999004472     -0.18791049031028
  N   -2.65156488489772      1.31949819292700     -0.39603691900378
  C   1.79300113280407     -0.41508828677784      0.35668054997788
  N   2.69409253524611     -1.07541562662043      0.71460062572904
