10
Coordinates from ORCA-job run
  C   -0.76185760449267     -0.44428042351233     -0.03484930566424
  C   0.64940092454407     -0.33235290829434      0.55216387597713
  Cl  -0.72528632150545     -1.32494634721233     -1.58269096132205
  H   1.05726516640728     -1.33823753200931      0.68073213305269
  H   -1.38060776082142     -1.03250689947226      0.64637851806081
  H   0.58626405139000      0.13911163698781      1.53820173366254
  C   -1.37293428625797      0.87022323220753     -0.20931257391183
  N   -1.85618475511684      1.93569684563318     -0.31012068301444
  C   1.54248190034862      0.44874827495577     -0.29971630487368
  N   2.26045868550438      1.07854412071628     -0.98078643196694
