10
Coordinates from ORCA-job run
  C   -0.76693968228647     -0.31543474087050      0.17662195388612
  C   0.75422438564227     -0.47925415416880      0.06172108496036
  Cl  -1.55084655849817     -1.87727242387708     -0.18245658574657
  H   1.01560228297003     -0.75764455831480     -0.96210544251479
  H   -1.03921604074566     -0.05256824721926      1.20059962449627
  H   1.07363307840139     -1.28825884665157      0.72336305160100
  C   -1.26318256735176      0.71493491622514     -0.73055325284048
  N   -1.64190101416007      1.54821889310132     -1.46603271805289
  C   1.44070910387262      0.75595386625452      0.43367133593999
  N   1.97791701215583      1.75132529552103      0.74617094827100
