13

C	-0.495733	-0.11848	-1.435088
C	0.0	0.0	0.0
Br	-0.138701	1.457482	-2.51681
H	1.095135	0.0	0.0
H	-1.574832	-0.277379	-1.476667
H	0.025019	-0.944723	-1.918978
C	-0.427091	-1.251658	0.780966
H	-0.028354	-1.20371	1.795585
H	-1.516036	-1.351387	0.830915
H	-0.00392	-2.137296	0.30098
C	-0.526518	1.19201	0.657804
N	-0.996772	2.10652	1.225713
Cl	3.3517	0.0	0.0
