16

C	0.0	0.0	0.0
C	-0.433499	-0.377078	-1.427169
Cl	1.803327	0.0	0.0
H	0.253638	-1.149283	-1.785545
H	-0.258964	0.511586	-2.045406
C	-0.558471	1.332614	0.46483
H	-0.213419	1.569312	1.472722
H	-0.236078	2.11944	-0.220543
H	-1.651706	1.274834	0.465631
C	-0.368194	-1.069125	0.937017
N	-0.629101	-1.941915	1.679141
C	-1.869614	-0.873055	-1.549967
H	-2.625034	-0.245966	-1.074208
H	-1.975096	-1.866258	-1.109672
H	-2.125928	-0.947559	-2.610505
Cl	-4.849276	0.0	0.0
