16

C	0.0	0.0	0.0
C	-0.433891	-0.274129	-1.450799
Cl	1.803416	0.0	0.0
H	-0.264382	0.657319	-2.002913
H	0.254366	-1.016325	-1.865619
C	-0.557191	1.29827	0.556652
H	-1.650492	1.239839	0.554231
H	-0.210831	1.465677	1.577501
H	-0.235229	2.129464	-0.074065
C	-0.367517	-1.130757	0.862026
N	-0.624292	-2.052299	1.543746
C	-1.869695	-0.762803	-1.604977
H	-2.132067	-0.755493	-2.667101
H	-1.970706	-1.786808	-1.240878
H	-2.624333	-0.174182	-1.080563
Cl	-4.850973	0.0	0.0
