16

C	0.0	0.0	0.0
C	-0.531822	0.337299	-1.393829
Cl	1.804761	0.0	0.0
H	-0.066667	-0.350003	-2.107522
H	-1.606776	0.123745	-1.349949
C	-0.513152	0.929237	1.086749
H	-0.163145	0.596843	2.065631
H	-1.607394	0.89969	1.048999
H	-0.152806	1.944061	0.910434
C	-0.35037	-1.39187	0.323152
N	-0.552167	-2.516969	0.59337
C	-0.309915	1.785002	-1.811513
H	0.735075	2.088189	-1.702953
H	-0.940054	2.458288	-1.228286
H	-0.590099	1.908021	-2.860768
Cl	-3.791307	0.0	0.0
