16

C	0.0	0.0	0.0
C	-0.436321	-0.296229	-1.448069
Cl	1.803481	0.0	0.0
H	0.287436	-0.993355	-1.877332
H	-0.332508	0.645958	-1.997547
C	-0.563515	1.305411	0.531365
H	-0.211444	2.127958	-0.093815
H	-1.656207	1.257024	0.489351
H	-0.251265	1.477806	1.5623
C	-0.364067	-1.120099	0.878397
N	-0.614664	-2.025909	1.583531
C	-1.843961	-0.865216	-1.580606
H	-2.614179	-0.334075	-1.017586
H	-1.873655	-1.906682	-1.253342
H	-2.135416	-0.829928	-2.63389
Cl	-4.796678	0.0	0.0
