10
Coordinates from ORCA-job run
  C   1.01959456317222     -0.11283181374909      0.39289982495039
  C   -0.20916677934399      0.02848073687159     -0.48750004810162
  Br  2.57824483692318     -0.60818740467112     -0.66174474399075
  H   -0.36179876153318     -0.89860671536085     -1.05570847882598
  H   1.24393525399306      0.82912203781397      0.88882988201791
  H   0.88809811890320     -0.89492762201335      1.14077995372549
  H   -0.03335111089020      0.82744388861753     -1.21109207975624
  N   -1.33382496096882      0.40869470246439      0.36597860198125
  H   -1.72469828094370     -0.41038162372474      0.81391825236285
  H   -2.06803287931177      0.83019381375167     -0.18736116436330
