10
Coordinates from ORCA-job run
  C   1.04023500211555     -0.34570120445638      0.29103827821309
  C   -0.34803196991736     -0.38731964398767     -0.30945119623236
  Br  1.95826346421244      1.31785180267979     -0.16062238346697
  H   -0.75639796367616     -1.38111603073060     -0.09342216206597
  H   1.66920756016820     -1.14953396331050     -0.08971638267013
  H   0.98525152667725     -0.38205485764218      1.37769104757965
  H   -0.26968937684573     -0.29286872471156     -1.40234851400728
  N   -1.21117718369679      0.60061836398963      0.32566628497963
  H   -2.16180048586369      0.48921522852351     -0.00327486667808
  H   -0.90786057317371      1.53090902964596      0.06443989434842
