10
Coordinates from ORCA-job run
  C   0.95819740381263     -0.34117215632463      0.31224726369912
  C   -0.36362477517850     -0.39500877534283     -0.44574385860648
  Br  1.89498256014639      1.33934082519452     -0.00513125722532
  H   -0.16568529690758     -0.30612689151880     -1.51686140623419
  H   1.63576236000413     -1.13536954162075     -0.00402729855081
  H   0.80239605658271     -0.40443528247421      1.39008559771154
  H   -0.78656088144698     -1.39303713731688     -0.28051021217604
  N   -1.36908386885509      0.58824645847968     -0.08627220238103
  H   -1.01824732533858      1.52108690027079     -0.26320374639907
  H   -1.58813623281914      0.52547560065311      0.90041712016228
