10
Coordinates from ORCA-job run
  C   1.05520344927105     -0.13380761099805      0.01788292181320
  C   -0.38346621551613     -0.43700959214132     -0.38579857708973
  Br  1.24799301383578     -0.04015817710037      1.95604908576931
  H   -0.67863508907335     -1.40004280102874      0.03824768856052
  H   1.74063041050264     -0.91130092363893     -0.32206628020605
  H   1.38213472352954      0.83274972983552     -0.36798518017605
  H   -0.39222261836644     -0.55163583127831     -1.47622114375206
  N   -1.38925266067036      0.54562006857016     -0.02553418431540
  H   -1.42876115965284      0.64590536980772      0.98092709447173
  H   -1.15462385385989      1.45067976797232     -0.41450142507546
