12
Coordinates from ORCA-job run
  C   -0.14248182989073      0.20571853928329      0.10638931518336
  C   1.14291815007354      0.27422213426577      0.50082417884246
  H   1.46949439160583      1.08085997026731      1.14830848355295
  C   -0.78044965515219     -0.81037651798930     -0.77104979995840
  H   -1.20058535261135     -0.33477600916308     -1.65918905414948
  H   -1.60405401831991     -1.30014406174290     -0.24814280338236
  H   -0.04696970553286     -1.55816499081053     -1.07279211845538
  N   -1.03892719803692      1.28113773431427      0.59943928538087
  O   -0.57785930069839      2.12918560179748      1.35714134157718
  O   -2.20217566622776      1.23700627197369      0.19948686614298
  C   2.09534552227228     -0.70035893534609      0.08920885371803
  N   2.88574466251846     -1.50430973684990     -0.24962454845221
