12
Coordinates from ORCA-job run
  C   -0.12945009358363     -0.04044085484239     -0.08949918373278
  C   1.20739312874518     -0.10643339481205     -0.22975828609733
  H   1.60379705341844     -0.73968926597453     -1.01837171855718
  C   -1.12849343068801     -0.77733527917947     -0.91117827373724
  H   -1.67112792691334     -1.49340826501734     -0.29241947348457
  H   -0.63313696893709     -1.30426712452901     -1.72688417810258
  H   -1.86263189175087     -0.08340530920830     -1.32799526210080
  N   -0.70823034600535      0.78211069257099      0.98865064668502
  O   -1.71522367042802      0.32337975242707      1.52694280388926
  O   -0.15962509584819      1.84578587200227      1.26372999670248
  C   2.16959805117998      0.55675003888613      0.58618018848584
  N   3.02813119081090      1.03895313767663      1.23060274004989
