12
Coordinates from ORCA-job run
  C   -0.12391859188502     -0.03392687049683     -0.09891031765400
  C   1.16592796547930     -0.39798585575704      0.02275211530109
  H   1.50039704729207     -1.26824423067168     -0.53480816007535
  C   -1.14979549275423     -0.72969288225635     -0.92337457946166
  H   -0.68831562408873     -1.52439535483115     -1.50981645345038
  H   -1.63623937549098     -0.02272772782158     -1.59995429750759
  H   -1.92468590610470     -1.15366471666845     -0.28320301450034
  N   -0.63027014151445      1.12037879179683      0.66619581117783
  O   0.11653645272021      2.08202126587408      0.82591535351705
  O   -1.78406806332288      1.01974039105333      1.08194217363242
  C   2.14337106793806      0.23312088961245      0.84579644653437
  N   3.01106066173134      0.67237630016641      1.50846492248655
