12
Coordinates from ORCA-job run
  C   -0.14413606331719      0.22054264861049      0.06753344911484
  C   1.17414966741968      0.48763184081470      0.12231620560874
  H   1.51648606399628      1.47283215863148      0.42008198903737
  C   -0.80749082088831     -1.05447164399310     -0.31151388194410
  H   -1.48656402034946     -0.89317789785757     -1.15096512638811
  H   -0.05992194577349     -1.79800639231782     -0.58801504248378
  H   -1.40605703606146     -1.43283994657826      0.51890738610980
  N   -1.05492602913710      1.33010442857910      0.44443951042378
  O   -2.25278795270095      1.05014100031934      0.49121717152293
  O   -0.57057743333941      2.43265813413239      0.68108012345928
  C   2.14312748402339     -0.50091644691306     -0.21056673049113
  N   2.94869808612801     -1.31449788342768     -0.48451505396962
