12
Coordinates from ORCA-job run
  C   -0.14435018091547      0.20420196589209      0.10780786837350
  C   1.15603006207625      0.32914749530178      0.43298693835131
  H   1.48558024313169      1.16422053619622      1.04174440768921
  C   -0.78781710996743     -0.85738278704104     -0.70983705238702
  H   -1.57399022782986     -1.35283007957674     -0.13703956287964
  H   -0.04606141136210     -1.59345769448786     -1.02010962534202
  H   -1.25881089314511     -0.42249558125660     -1.59331337876028
  N   -1.05369565294699      1.26022439963909      0.61802103496900
  O   -2.22884704227418      1.17654486251997      0.26121967447805
  O   -0.59109122770224      2.13138309538534      1.34822387812382
  C   2.12080944053356     -0.62441461037785      0.00104869505710
  N   2.92124400040189     -1.41314160219442     -0.34975287767304
