12
Coordinates from ORCA-job run
  C   -0.14137189705929      0.22104522994817      0.06961652258714
  C   1.17562398698032      0.49814952232625      0.03876998616001
  H   1.52504119735077      1.49836707805429      0.27128462774945
  C   -0.81434836748726     -1.07302693924723     -0.21638640221366
  H   -1.51851998292359     -0.95917488896309     -1.04257998721150
  H   -0.07446462208515     -1.83138843069743     -0.47210521170670
  H   -1.38812173135030     -1.40283929728235      0.65150573421677
  N   -1.04071436278698      1.34492001544806      0.43300696252376
  O   -2.24248199448733      1.08133537896024      0.46910898072517
  O   -0.54407842468913      2.44186948974191      0.66964141400942
  C   2.13347327820799     -0.50001954207655     -0.29720441065161
  N   2.92996292032996     -1.32123761621227     -0.57465821618825
