12
Coordinates from ORCA-job run
  C   -0.13377998091624     -0.08591424477898     -0.03125652034260
  C   1.19081522008339     -0.31427241915033      0.03630022640047
  H   1.56498237701042     -1.24615115593337     -0.37806468920503
  C   -1.14217502298449     -0.99436843861994     -0.64307831863272
  H   -1.94381534923232     -1.20564160943284      0.06893962196913
  H   -0.67440594446327     -1.93285869032824     -0.94115168965305
  H   -1.59664590981198     -0.52162444227241     -1.51483379831714
  N   -0.68240044150555      1.17999927211304      0.48850704117874
  O   -1.62632955872994      1.65206655261449     -0.14424342479145
  O   -0.17363063324170      1.66026780149221      1.49778953538199
  C   2.16940354110689      0.56918122503086      0.57753342176682
  N   3.04798170268479      1.23931614926554      0.98255859424483
