12
Coordinates from ORCA-job run
  C   -0.14097846453638      0.21480995860332      0.08955107503834
  C   1.17136916337789      0.37734064860053      0.34218840367754
  H   1.52190478065577      1.27716511236540      0.83619505515981
  C   -0.81272424464730     -0.93425320859323     -0.57210672694485
  H   -1.55702370109230     -1.37403205740760      0.09430346260089
  H   -0.07772396123569     -1.69169348832133     -0.84470374095689
  H   -1.33954160413907     -0.60101694902057     -1.46813301928024
  N   -1.03448948622078      1.31915694192776      0.52020209657889
  O   -0.54024526600054      2.28554724200746      1.09269172292883
  O   -2.22961734784190      1.17496634190199      0.26323885245934
  C   2.12341666347500     -0.61502561188393     -0.02602136440635
  N   2.91465346820530     -1.43296493017979     -0.32740581685532
