12
Coordinates from ORCA-job run
  C   -0.13447283610105     -0.08188208006050     -0.03766802030494
  C   1.18334706120213     -0.33858095202927      0.05450483001634
  H   1.49612934724373     -1.37888578068992      0.06240520286336
  C   -1.21519700124043     -1.10308341534778     -0.11361183789336
  H   -0.78663551063358     -2.10235551577498     -0.19198859960701
  H   -1.85017196400836     -1.04753373551093      0.77164593593688
  H   -1.85096585164350     -0.91808432701212     -0.98303837242821
  N   -0.60871454992865      1.31397739902477     -0.01858109206732
  O   -1.67562009668922      1.50738371857867      0.56316411565358
  O   0.07708373278168      2.16575288612510     -0.57757809987119
  C   2.22199256741425      0.62999894254783      0.17413306974998
  N   3.14222510160301      1.35329286014912      0.29661286795190
