12
Coordinates from ORCA-job run
  C   -0.13633438820712      0.22482534556637      0.07028589687795
  C   1.17416315495709      0.36655238490043      0.34412018412072
  H   1.53990142436310      1.28696869133150      0.78640043343162
  C   -0.82713547872346     -0.94721352858466     -0.52860104321616
  H   -1.58975734668319     -1.32758598013222      0.15343801626310
  H   -0.10692317096842     -1.73671441586561     -0.74353818233920
  H   -1.33477658781667     -0.65833421585346     -1.45065833475611
  N   -1.00662582578909      1.37873378438483      0.40800041196506
  O   -0.49221644628154      2.37844813776705      0.89984303265896
  O   -2.20462634790791      1.23853089911093      0.16253678964835
  C   2.10468399973739     -0.67369604117060      0.06389822331331
  N   2.87864701331982     -1.53051506145455     -0.16572542796759
