12
Coordinates from ORCA-job run
  C   -0.13728486195095      0.22728379068881      0.05786303851345
  C   1.18570282998061      0.47440675098941      0.02502961775977
  H   1.55582672887521      1.47528783217212      0.21946746211952
  C   -0.83597551061082     -1.06325840459897     -0.17760603171617
  H   -1.53693783494790     -0.96958354057626     -1.00906801719784
  H   -0.11153948221103     -1.84664955989780     -0.40043672060897
  H   -1.41681081409763     -1.34614468734768      0.70225014873763
  N   -1.01373063404350      1.38394707032879      0.36985789345079
  O   -0.49487344972182      2.47890712633998      0.56416499846296
  O   -2.22108604384040      1.14776985982806      0.41107370237799
  C   2.12367629455285     -0.55711106127456     -0.26240922274734
  N   2.90403277801538     -1.40585517665189     -0.50018686915179
