12
Coordinates from ORCA-job run
  C   -0.12916337221510     -0.04796830943704     -0.08496952408088
  C   1.20907099652373     -0.07943026254141     -0.22429133561911
  H   1.62202016256489     -0.72064344450112     -0.99799305694059
  C   -1.10557928457968     -0.83200775180216     -0.88975540409503
  H   -0.59371188603734     -1.36647040584761     -1.69018901374065
  H   -1.63145373605832     -1.54653598026323     -0.25498679417812
  H   -1.85688029541447     -0.16944591596755     -1.32657596055667
  N   -0.73227535832350      0.78497168924856      0.97157280552473
  O   -0.20638506570274      1.86472141852106      1.22831368478496
  O   -1.73464500315427      0.31862912633241      1.51190820408979
  C   2.15370672256826      0.63204555343177      0.57093777474315
  N   3.00629611982854      1.16213428282631      1.18502862006841
