12
Coordinates from ORCA-job run
  C   -0.13440808611539      0.22356536867822      0.07723656984165
  C   1.18307227372482      0.36500458517388      0.31525137174095
  H   1.55934780390609      1.28075381319379      0.75832802262010
  C   -0.84003215590478     -0.94223874877903     -0.51637632029326
  H   -1.58538510523425     -1.32953091417726      0.18069884607578
  H   -0.12565368012910     -1.72950994567993     -0.75738924876586
  H   -1.37063458506361     -0.64401129285155     -1.42242400711687
  N   -0.99686809967336      1.37199351105201      0.45284681606343
  O   -2.20008469447046      1.23531746111336      0.23238573137202
  O   -0.47133800509672      2.36402403703438      0.94840992033570
  C   2.10685172603396     -0.67028273323340     -0.00326472958433
  N   2.87513260802282     -1.52308514152447     -0.26470297228932
