12
Coordinates from ORCA-job run
  C   -0.13817975531174      0.21287290351911      0.09764684482132
  C   1.17281241265576      0.33587202212881      0.37797147459944
  H   1.53283845939745      1.20461518141872      0.91855621818477
  C   -0.82232216936492     -0.89053923425730     -0.62617178545045
  H   -1.32845926706766     -0.50561934704087     -1.51329825688415
  H   -1.58549118457444     -1.34485664421950      0.00830611986480
  H   -0.09852246796580     -1.64980290766648     -0.92244676442088
  N   -1.01601816644713      1.31516241904961      0.56399995388771
  O   -2.21097902509017      1.20300029525133      0.29079286631302
  O   -0.51027239361982      2.24898757682453      1.17892948268783
  C   2.11132420385568     -0.65690795693364     -0.02230512607221
  N   2.89326935353279     -1.47278430807433     -0.35198102753119
