12
Coordinates from ORCA-job run
  C   -0.12572415658964     -0.04511110399963     -0.09207349676038
  C   1.21647543043577     -0.04359686573424     -0.19075712229799
  H   1.66619180088263     -0.63951155879273     -0.97985427985927
  C   -1.06026120190745     -0.80913586758974     -0.96368318916784
  H   -1.81207706079712     -0.14079519430523     -1.39068469507372
  H   -1.58892198457206     -1.56424268859402     -0.38023621826803
  H   -0.51293074684541     -1.29273834255557     -1.77304785346612
  N   -0.77786892033324      0.72130250699933      0.98528364311299
  O   -1.78386329253678      0.20671178918611      1.47245505660038
  O   -0.28492083085571      1.79825678227635      1.30973754158946
  C   2.12139466548885      0.64629109537166      0.66723408944912
  N   2.94250629763018      1.16156944773771      1.33462652414141
