12
Coordinates from ORCA-job run
  C   -0.13844333803435      0.22847179919081      0.05094202083530
  C   1.18499984060169      0.47492488083731      0.03748586771618
  H   1.55238226381643      1.47889024742727      0.22053517156403
  C   -0.83288483073268     -1.06648799518093     -0.17323869771126
  H   -0.10481147893752     -1.85363077629077     -0.36925994763531
  H   -1.42906464334375     -1.33351294486758      0.70126531769163
  H   -1.51918501301304     -0.98740570171557     -1.01837828308275
  N   -1.02024030210146      1.39040146081815      0.32568384437228
  O   -2.22794113947752      1.15425089461193      0.35304046990628
  O   -0.50484308153367      2.48940641985850      0.50592423393976
  C   2.12777580151553     -0.56166512658706     -0.21394894265768
  N   2.91225592124035     -1.41464315810207     -0.42105105493846
