18

C	0.0	0.0	0.0
C	-0.490808	-0.06322	-1.453449
Br	1.960478	0.0	0.0
H	-1.58401	-0.046473	-1.337299
N	-0.440237	1.248635	0.58034
H	-1.463067	1.230011	0.526562
H	-0.186407	1.261135	1.563247
N	-0.427158	-1.223301	0.661554
H	-0.114594	-1.206836	1.627019
H	-1.451157	-1.182557	0.661938
N	-0.030804	-1.305175	-2.087838
H	-0.108487	-2.037813	-1.388861
H	-0.692922	-1.529416	-2.82361
C	-0.078723	1.12807	-2.300035
H	-0.375952	2.065207	-1.82993
H	-0.566637	1.055725	-3.277734
H	1.00137	1.120469	-2.456478
Br	-3.822873	0.0	0.0
