18

C	0.0	0.0	0.0
C	-0.328788	0.178849	-1.470767
Br	2.330452	0.0	0.0
H	-1.429396	0.141191	-1.42134
N	-0.302482	1.074013	0.805953
H	-0.521157	0.841009	1.761816
H	0.330416	1.85079	0.717024
N	-0.368671	-1.208061	0.452999
H	-0.327262	-1.935856	-0.243997
H	-0.172027	-1.457062	1.406218
N	0.1295	-1.001658	-2.197005
H	1.123468	-0.911607	-2.380844
H	-0.367568	-1.06502	-3.076319
C	0.089626	1.519352	-2.053753
H	-0.37635	2.341879	-1.506278
H	1.175804	1.63343	-2.037358
H	-0.258428	1.578411	-3.088713
Br	-3.886885	0.0	0.0
