18

C	0.0	0.0	0.0
C	-0.404661	0.071991	-1.522844
Br	2.054186	0.0	0.0
H	0.495709	0.28971	-2.099269
N	-0.490291	1.102016	0.671136
H	-0.536193	1.951457	0.134154
H	-0.225469	1.167249	1.639509
N	-0.356207	-1.158444	0.771085
H	-1.374777	-1.151819	0.835441
H	-0.044842	-2.006575	0.317728
N	-1.309828	1.205364	-1.725829
H	-1.488214	1.285647	-2.721042
H	-2.203684	0.99511	-1.272834
C	-0.984201	-1.256569	-2.008161
H	-1.209289	-1.17079	-3.07577
H	-1.921127	-1.470215	-1.489036
H	-0.288631	-2.095223	-1.886665
Br	-4.107939	0.0	0.0
