17

C	-0.331687	-0.012384	-1.484792
C	0.0	0.0	0.0
Br	0.266614	-1.673202	-2.249314
H	1.090337	0.0	0.0
N	-1.817671	0.113558	-1.840824
O	-2.162855	0.985929	-2.623312
O	-2.545559	-0.706477	-1.295279
N	0.37177	1.136168	-2.220952
O	0.625488	2.122062	-1.543181
O	0.578786	1.000432	-3.417858
N	-0.416422	-1.126074	0.773171
H	-1.228134	-1.599645	0.405957
H	0.370785	-1.751102	0.875246
N	-0.568285	1.22105	0.653526
O	-0.031019	1.591925	1.686062
O	-1.572024	1.742305	0.154908
F	2.502355	0.0	0.0
