17

C	-0.473042	0.117814	-1.430303
C	0.0	0.0	0.0
Br	0.330713	1.638269	-2.280478
H	1.114608	0.0	0.0
N	-0.01955	-1.115503	-2.229549
O	-0.724375	-1.404865	-3.19416
O	1.010005	-1.661948	-1.884787
N	-1.998383	0.124563	-1.652064
O	-2.499324	0.908569	-2.439301
O	-2.58962	-0.743942	-1.01953
N	-0.392122	-1.209999	0.635706
H	-1.335213	-1.219626	0.995327
H	0.301846	-1.451344	1.327828
N	-0.4914	1.214598	0.75146
O	-1.640064	1.617895	0.517814
O	0.241509	1.682208	1.617668
F	2.508321	0.0	0.0
