17

C	-0.451304	0.002422	-1.450538
C	0.0	0.0	0.0
Br	0.579419	1.157849	-2.563437
H	1.091584	0.0	0.0
N	-0.238248	-1.441625	-1.947536
O	0.923057	-1.802763	-2.030702
O	-1.24206	-2.063874	-2.271594
N	-1.946762	0.245762	-1.677364
O	-2.669642	-0.032428	-0.726386
O	-2.311768	0.637783	-2.774064
N	-0.456652	-1.138768	0.702694
H	-1.429024	-1.065004	0.98461
H	0.14863	-1.326124	1.49476
N	-0.413228	1.31448	0.651517
O	-0.114609	1.40788	1.838038
O	-0.860957	2.230765	-0.052077
F	2.502408	0.0	0.0
