18
Coordinates from ORCA-job run
  C   0.64248617705350      0.66960205308142     -0.09357390072766
  C   -0.45361196057881     -0.41274979247983     -0.20390736663549
  Br  0.09254582885233      2.10672920218999      1.14811615974993
  H   -0.05561334394837     -1.10604815498282     -0.95988008050771
  C   1.98538617966612      0.12832273844378      0.39162238734610
  H   1.90622989793599     -0.22474322217256      1.41914348664286
  H   2.29381388158235     -0.70059392692530     -0.25284892915270
  H   2.74740785199033      0.90740274118863      0.35186730627520
  C   0.82243588323720      1.30776599686916     -1.39746032557113
  N   0.98431846281356      1.76785168286767     -2.46724569962449
  C   -1.77945634070541      0.13559868973558     -0.72508000309364
  H   -2.45930917219320     -0.69363064701240     -0.93556483620054
  H   -1.65201049682660      0.70641065095504     -1.64744978008965
  H   -2.25359195925941      0.78044018852591      0.01752378783332
  C   -0.65515379140900     -1.19008562206678      1.09407700380916
  H   -0.96925497863305     -0.52606154621375      1.90254666591135
  H   -1.44142106078141     -1.93468749206844      0.94836379570039
  H   0.24379894120388     -1.72252353993529      1.40875032833469
