18
Coordinates from ORCA-job run
  C   0.58153182648794      0.84940558458088      0.08486238271298
  C   -0.78579407604020      0.13220609109005      0.17384901669655
  Br  0.78739772890878      2.04806119580917      1.64621850796415
  H   -1.53009003086778      0.92190133345867      0.32784153452773
  C   1.78823899588045     -0.08464524877065      0.05211367913050
  H   1.84021368415360     -0.66993866115548      0.96993380504185
  H   2.70861111641390      0.49224274218568     -0.04332762870964
  H   1.71179705988845     -0.75929404413183     -0.80420711826467
  C   0.60486215044770      1.72887090947016     -1.08339735474601
  N   0.62174198265095      2.39751444314574     -2.05033851880679
  C   -0.86141835065853     -0.84401107481950      1.34498400191364
  H   -0.56766231866559     -0.38052885615645      2.28774013153456
  H   -1.88953436516616     -1.19817698200390      1.45206681886718
  H   -0.23142388588405     -1.72021959241151      1.17286924719405
  C   -1.12011598467554     -0.58481331220493     -1.13722584060839
  H   -1.11114450602585      0.09182279406617     -1.99374353246645
  H   -0.42630112543487     -1.40611624452043     -1.33446042479461
  H   -2.12190990141318     -1.01528107763183     -1.06277870718660
