18
Coordinates from ORCA-job run
  C   0.62418427490590      0.68971151782601     -0.07275082314809
  C   -0.43731199456843     -0.42306751038649     -0.21829832274118
  Br  0.00628233593807      2.09524804088540      1.17327797614249
  H   -0.00322394698347     -1.09431999596201     -0.97435962400361
  C   1.97175196147467      0.18182352917229      0.43507311184036
  H   2.31591305594826     -0.63182274093595     -0.21085741516845
  H   1.88171938961805     -0.18333097225382      1.45748021356279
  H   2.71210461397108      0.98236471574332      0.41775282051103
  C   0.81166867521283      1.34750633702582     -1.36580754799677
  N   0.98334818938286      1.82494713946567     -2.42637218094326
  C   -1.76798445007905      0.09268881039215     -0.75965256271019
  H   -2.27496980036638      0.71506590026210     -0.01957836592463
  H   -2.41883617249403     -0.75378442562777     -0.99222141722728
  H   -1.63940014350797      0.67708167474049     -1.67333955593097
  C   -0.64069481285152     -1.22254186800478      1.06576225885643
  H   -0.98696085967570     -0.57802141770753      1.87685773497884
  H   -1.40356062981334     -1.98621239749282      0.89650288746185
  H   0.26697031388817     -1.73433633714208      1.38953081244065
