18
Coordinates from ORCA-job run
  C   0.53299999238390      0.87040050193218      0.16192931654155
  C   -0.78954102850014      0.06844548984126      0.18984136580709
  Br  0.68638070140734      1.92547844594091      1.82942735763365
  H   -1.57653516992549      0.79511967024001      0.42223798199119
  C   1.79116992594265      0.01657578609145      0.03352005953319
  H   2.67564088081699      0.65260867050955     -0.01380181194110
  H   1.74351109950632     -0.57951472573792     -0.88115504384752
  H   1.88783826747787     -0.64722818198196      0.89251755767584
  C   0.48883374053100      1.85699600981083     -0.91669796471910
  N   0.44971152893837      2.61506799828167     -1.81455574486118
  C   -0.79574514866934     -1.01711098699334      1.26309438330372
  H   -1.80023456374478     -1.44000592131785      1.34122520396869
  H   -0.11754823576639     -1.83444092825728      1.00520014586019
  H   -0.51962822134831     -0.62814958926098      2.24414805526980
  C   -1.09596702248940     -0.53926358250590     -1.18188927290450
  H   -0.35795459928076     -1.29567619650757     -1.46070948752070
  H   -1.13600113084309      0.21489820415673     -1.96985268176886
  H   -2.06993101643673     -1.03320066424179     -1.14347942002194
