18
Coordinates from ORCA-job run
  C   0.53304285249121      0.86723128637149      0.17265919825898
  C   -0.78497785595037      0.05889267802465      0.21591000269208
  Br  0.73172758714210      1.87299341269742      1.86574928156922
  H   -1.56708085625207      0.77374041630171      0.49638273691463
  C   1.79005328516605      0.02291557097348     -0.01766994499566
  H   2.67081823762992      0.66375283380416     -0.06875758699335
  H   1.71957685739946     -0.54383944398828     -0.94934321369324
  H   1.91228295316748     -0.66759476225108      0.81665145535477
  C   0.45604625334394      1.88471009887831     -0.87449015531730
  N   0.40412370849979      2.67076609316806     -1.74740865225077
  C   -0.75259273113989     -1.06134947296247      1.25255131418294
  H   -1.75469896400229     -1.48414804992934      1.35741633288486
  H   -0.08825017473670     -1.87123847647338      0.94090452333620
  H   -0.43598974869722     -0.70574534837998      2.23401971535003
  C   -1.13227590908037     -0.50470322110515     -1.16483301063153
  H   -1.20983668691239      0.27645346154084     -1.92330250938060
  H   -2.09795002288294     -1.01344727672793     -1.11018450728709
  H   -0.39501878518572     -1.24038979994252     -1.49625497999416
