16
Coordinates from ORCA-job run
  C   -0.89023338921813     -0.07359518789697     -0.29196469318303
  C   0.49849632059410     -0.76209263442484     -0.28220463595687
  Cl  -1.76228591667233     -0.61407399846638     -1.76735998572614
  H   0.32028709476730     -1.83579030869011     -0.40738827767245
  C   -0.81619840652108      1.44826525711255     -0.29736733552260
  H   -0.32722110834548      1.80820847927806      0.61006816150904
  H   -1.82272294569946      1.86553692396916     -0.33818983685090
  H   -0.25818318533828      1.78649859432842     -1.17185209473563
  C   -1.64902899401864     -0.54463602966620      0.86801168720256
  N   -2.22931135533896     -0.91315139416126      1.82133239017702
  C   1.28080525283559     -0.52616430523432      1.01485442964276
  H   1.53281278068337      0.52711816424637      1.14287033096040
  H   2.21319743034380     -1.09215406219965      0.98167979327926
  H   0.70415527821410     -0.86541522672853      1.87694640317789
  C   1.27732901735859     -0.30192471778015     -1.43352024596918
  N   1.92810212635551      0.09437044631384     -2.32691609033214
