16
Coordinates from ORCA-job run
  C   -0.81169608831105      0.08451130757728     -0.03142853608635
  C   0.61700299593703     -0.43879620794851     -0.32328301592471
  Cl  -1.95418770815501     -1.28270989342936     -0.27809602338783
  H   0.58896729390362     -0.83854862059365     -1.34419040068540
  C   -1.21678912978988      1.21818720114746     -0.96700254994430
  H   -2.25155537801484      1.50516564621659     -0.77778855474118
  H   -1.12764954658750      0.88361080039563     -2.00274570600592
  H   -0.57226221037049      2.08493432003488     -0.80922133669521
  C   -0.90987700675199      0.51109568397303      1.36492213582527
  N   -0.96850874449272      0.87801117925853      2.47985029329707
  C   1.09718419208603     -1.52396059521163      0.64345101666155
  H   1.14597274832720     -1.13732379689017      1.66300242668790
  H   0.42417268112733     -2.38063817010956      0.61850717355843
  H   2.09507289077001     -1.85694579138691      0.35363916425850
  C   1.54679377930658      0.69384993800754     -0.30929522879938
  N   2.29535923101569      1.59855699895885     -0.28132085801843
