16
Coordinates from ORCA-job run
  C   -0.81037975376816      0.10437091581093     -0.02905581870926
  C   0.60545535082827     -0.44624431263037     -0.33324706578047
  Cl  -1.98467086494046     -1.23001400376120     -0.30524674413368
  H   0.56666060008340     -0.82576066893636     -1.36146817977026
  C   -1.18863043434921      1.26753347861063     -0.93919165290665
  H   -2.21685477483199      1.57356861099134     -0.74433728404379
  H   -0.52479004292843      2.11569417380671     -0.76168313331367
  H   -1.10580697807806      0.95432974897218     -1.98214511058553
  C   -0.89747136098492      0.50177101746302      1.37665168490119
  N   -0.94195369660508      0.84331968631523      2.50021654077226
  C   1.06130816865373     -1.56041004377525      0.61201988213271
  H   2.04763174783980     -1.91613290991502      0.31012704428167
  H   0.36456858290304     -2.39743832053311      0.57747537687762
  H   1.12728491475132     -1.19244309409753      1.63736163529064
  C   1.56233223386156      0.66321848016916     -0.29986137048091
  N   2.33531630756518      1.54663724150963     -0.25861580453186
