14

C	-0.358293	0.169062	-1.49326
C	0.0	0.0	0.0
F	-1.710913	0.4742	-1.576307
H	1.094953	0.0	0.0
H	-0.207742	-0.8114	-1.954475
N	0.39496	1.135518	-2.217828
H	1.358719	0.813043	-2.258943
H	0.401732	2.000913	-1.691686
C	-0.545717	-1.230297	0.547653
N	-0.97649	-2.262795	0.904801
N	-0.448165	1.167302	0.821026
O	-0.993021	0.948318	1.898453
O	-0.211157	2.283802	0.365728
Br	3.340185	0.0	0.0
