14

C	-0.501746	-0.001554	-1.443052
C	0.0	0.0	0.0
F	-0.044195	-1.192753	-2.014847
H	1.091663	0.0	0.0
H	-0.030469	0.816653	-1.984173
N	-1.914464	0.113789	-1.494787
H	-2.230301	0.195506	-2.451889
H	-2.34881	-0.699199	-1.072834
C	-0.548562	-1.130145	0.733774
N	-1.022453	-2.074967	1.245486
N	-0.414524	1.29131	0.641139
O	-0.952106	1.256604	1.74383
O	-0.147452	2.30509	0.006154
Br	3.357526	0.0	0.0
