14

C	-0.347795	0.024453	-1.506339
C	0.0	0.0	0.0
F	-1.69682	0.328792	-1.629779
H	1.095629	0.0	0.0
H	-0.200232	-0.997315	-1.868733
N	0.418976	0.912662	-2.313002
H	0.418376	1.827272	-1.877625
H	1.382458	0.5881	-2.296483
C	-0.547212	-1.172137	0.661986
N	-0.976494	-2.165296	1.119561
N	-0.455646	1.241755	0.697304
O	-0.188867	2.308663	0.149222
O	-1.042234	1.129223	1.769492
Br	3.339885	0.0	0.0
