14

C	-0.389303	-0.05762	-1.479589
C	0.0	0.0	0.0
F	-0.168785	1.238442	-1.990401
H	1.092443	0.0	0.0
H	-1.45581	-0.244477	-1.622529
N	0.402212	-1.050835	-2.078827
H	1.390188	-0.897545	-1.883463
H	0.238735	-1.116677	-3.07354
C	-0.530422	-1.147391	0.71986
N	-0.973547	-2.068422	1.297973
N	-0.567142	1.251065	0.598828
O	0.211733	2.101285	1.007428
O	-1.796848	1.327807	0.608146
Br	3.419605	0.0	0.0
