17

C	-0.002058	-0.00268	0.018863
C	-0.594133	0.134706	-1.401956
Br	1.980406	0.007619	-0.108053
H	-1.706044	0.119397	-1.240824
C	-0.436407	1.179	0.868008
H	-0.049961	1.068742	1.883601
H	-1.530974	1.186459	0.888525
H	-0.073351	2.122878	0.457068
C	-0.438987	-1.323745	0.627068
H	-0.051449	-1.410729	1.6445
H	-1.533553	-1.331964	0.647255
H	-0.078954	-2.172608	0.042776
C	-0.236268	-0.984102	-2.27203
N	0.040761	-1.895566	-2.959473
C	-0.235707	1.399095	-2.042004
N	0.039315	2.424955	-2.544056
Cl	-3.686969	0.040919	-0.381898
