16

C	-0.57751	-0.041579	-1.422756
C	0.0	0.0	0.0
Cl	-2.35218	-0.229295	-1.3547
H	1.091833	0.0	0.0
N	-0.242556	1.287936	-2.120077
O	0.947572	1.417467	-2.358771
O	-1.136563	2.088147	-2.334376
C	-0.037576	-1.121489	-2.236346
N	0.325754	-1.983439	-2.948434
N	-0.366131	-1.250251	0.642482
H	0.359899	-1.501777	1.298295
H	-1.24734	-1.174783	1.131257
N	-0.409256	1.255245	0.598818
H	0.302515	1.550709	1.257296
H	-1.303514	1.179842	1.071254
Cl	3.313233	0.0	0.0
