16

C	-0.503322	-0.094175	-1.457229
C	0.0	0.0	0.0
Cl	0.320597	1.079709	-2.501305
H	1.095972	0.0	0.0
N	-0.229646	-1.474974	-2.058929
O	-0.957187	-1.815079	-2.987356
O	0.71167	-2.102608	-1.599619
C	-1.946772	0.126994	-1.520808
N	-3.091283	0.393152	-1.497919
N	-0.608866	-1.133248	0.689844
H	-0.784442	-0.819428	1.636305
H	0.074835	-1.880532	0.733636
N	-0.409475	1.231079	0.633789
H	0.262218	1.959835	0.436637
H	-1.34042	1.528903	0.368022
Cl	3.393941	0.0	0.0
