16

C	-0.579158	0.011793	-1.422657
C	0.0	0.0	0.0
Cl	0.156529	1.278371	-2.422229
H	1.09593	0.0	0.0
N	-0.268935	-1.340162	-2.075718
O	0.912233	-1.626647	-2.157108
O	-1.226231	-2.013326	-2.443255
C	-2.029505	0.19073	-1.403058
N	-3.193533	0.345067	-1.38728
N	-0.482659	-1.207884	0.626793
H	0.256167	-1.628424	1.173443
H	-1.283388	-1.003673	1.209942
N	-0.511658	1.19557	0.68733
H	-0.04543	1.204341	1.589395
H	-0.156222	2.015701	0.203823
Cl	3.375369	0.0	0.0
