16

C	-0.554251	-0.047175	-1.439023
C	0.0	0.0	0.0
Cl	-2.325222	-0.000241	-1.4482
H	1.0977	0.0	0.0
N	-0.009863	1.177137	-2.195916
O	1.134526	1.041983	-2.605488
O	-0.722634	2.163608	-2.291807
C	-0.116987	-1.240085	-2.154651
N	0.217403	-2.232018	-2.689154
N	-0.503541	-1.1895	0.705567
H	-0.121586	-1.114102	1.644336
H	-0.048693	-2.008037	0.30646
N	-0.431757	1.223888	0.615257
H	-1.308083	1.091762	1.102893
H	0.285757	1.554659	1.244927
Cl	3.339221	0.0	0.0
