16

C	-0.586771	0.018259	-1.424127
C	0.0	0.0	0.0
Cl	0.158535	1.254967	-2.433978
H	1.092331	0.0	0.0
N	-0.348455	-1.344228	-2.077213
O	-1.341669	-2.01109	-2.350726
O	0.815804	-1.655196	-2.250731
C	-2.030691	0.240389	-1.347974
N	-3.172474	0.464087	-1.181478
N	-0.43358	-1.25104	0.603071
H	0.30589	-1.601334	1.198324
H	-1.278698	-1.134088	1.14806
N	-0.394751	1.244034	0.633352
H	0.333799	1.536139	1.271372
H	-1.270885	1.151376	1.133051
Cl	3.331885	0.0	0.0
