14
Coordinates from ORCA-job run
  C   -0.56116235861177      0.33443980508340     -0.12054326201124
  C   0.77970872701307     -0.26849336311877     -0.63100753741970
  Br  -1.48952631188189      1.06789682906752     -1.68161416372146
  H   0.52687007553635     -1.02593540116425     -1.38355517528522
  C   -1.43435471583631     -0.73476751913797      0.52839535174027
  H   -1.61897454222954     -1.54402198809598     -0.18137712253591
  H   -0.93819767809510     -1.13278418358944      1.41678735965722
  H   -2.39032685600039     -0.30185886479385      0.82346304393156
  C   -0.28882985714528      1.42761561234144      0.80693969366093
  N   -0.07001759115846      2.28126873610510      1.58570698124108
  C   1.48735272377627     -0.92402965563896      0.47535138550029
  N   2.02278402956558     -1.46341146425229      1.37099206179162
  C   1.63886955492459      0.74153272476140     -1.25507140503592
  N   2.33580480014286      1.54354873243265     -1.75546721151353
