14
Coordinates from ORCA-job run
  C   -0.52284066254047      0.51563202026561     -0.04815694541097
  C   0.99060473505928      0.30651390761890     -0.35859965940983
  Br  -1.30055612632671      1.46685144342217     -1.57372048720782
  H   1.44285410073311      1.28796018917247     -0.54416669329040
  C   -1.25751545074022     -0.80129751475043      0.16899639451274
  H   -1.18320723630043     -1.42283534951233     -0.72498655392074
  H   -0.82004284507599     -1.33024507113112      1.02010986653457
  H   -2.30972157173888     -0.60737702793806      0.37831406290868
  C   -0.63294910845390      1.38398005946403      1.12047531705766
  N   -0.71040889571528      2.06233376790053      2.07795710309029
  C   1.17242363132727     -0.52986979602624     -1.54899087614148
  N   1.31767631660935     -1.21123293127838     -2.49430564850460
  C   1.65337775645153     -0.31159896279991      0.79617180071372
  N   2.15930535671134     -0.80981473440724      1.73190231906817
