14
Coordinates from ORCA-job run
  C   -0.54363496791165      0.49510691415016     -0.03227186410625
  C   0.96164600687158      0.33375004240276     -0.40343725061425
  Br  -1.41566018341968      1.40063786742316     -1.53464909692004
  H   1.37021407252353      1.32768329010133     -0.62150795440405
  C   -1.22344926106791     -0.84279603116377      0.22978537323114
  H   -2.27235629074408     -0.68197613824571      0.47956175960553
  H   -1.16376450901757     -1.47247318997787     -0.65944460905811
  H   -0.73419629351373     -1.34590705930213      1.06823267920817
  C   -0.63334406933100      1.37425415912063      1.12985425945680
  N   -0.68857787292894      2.06086129831594      2.08296439945290
  C   1.12514177797117     -0.51295060705247     -1.58891519208678
  N   1.25654293956765     -1.20171490106647     -2.53099218511866
  C   1.69592032031150     -0.23991174927813      0.73073069757729
  N   2.26551833068916     -0.69656389542744      1.65108898377632
