14
Coordinates from ORCA-job run
  C   -0.46028966363723      0.40113155823298      0.07017760571724
  C   0.96866907294095     -0.20862691527189     -0.02482513732528
  Br  -0.73979459985046      1.60359419796134     -1.44559230821678
  H   1.09835126780281     -0.84628112282211      0.86133829206256
  C   -1.52466280803867     -0.69165947785089      0.05843538293830
  H   -1.48327325754157     -1.24645209338097     -0.87992359051229
  H   -1.35895418205422     -1.37612443085739      0.89576037247438
  H   -2.51390773469493     -0.24531456095224      0.16080565477628
  C   -0.53572857185860      1.18842477116336      1.29758250619196
  N   -0.60290838960820      1.78164355980119      2.31071298202439
  C   2.01161536932728      0.82007795205040      0.00428354627800
  N   2.85400077289617      1.63696826260612      0.05223607557485
  C   1.09969453325119     -1.05524280195051     -1.21397619433206
  N   1.18518819106546     -1.76313889872941     -2.14701518765156
