14
Coordinates from ORCA-job run
  C   -0.52877478634861      0.51119225871583     -0.02795134292015
  C   0.96856216797374      0.30676693789850     -0.41070628896064
  Br  -1.38479525742407      1.44363137563871     -1.52321251960282
  H   1.40312024819033      1.28845386920659     -0.63393616230267
  C   -1.24509825552075     -0.80684676122425      0.23708992007301
  H   -2.28655605928999     -0.61611911657997      0.49677577671583
  H   -1.21213730355325     -1.43558202203648     -0.65421940062159
  H   -0.76302052050468     -1.32636687042812      1.06967640019180
  C   -0.58531978519075      1.39104431772688      1.13570964102095
  N   -0.62011679646725      2.07773411503181      2.08976857314802
  C   1.09705290325659     -0.54688328388555     -1.59550280338841
  N   1.19803920113102     -1.24565643801346     -2.53388359843927
  C   1.69600414009339     -0.28545100057490      0.71819823161371
  N   2.26304010365427     -0.75591738147559      1.63319357347223
