14
Coordinates from ORCA-job run
  C   -0.48934422247238      0.34982508261085      0.12682075454813
  C   0.98022234703093     -0.12532924675865     -0.06716087866557
  Br  -0.90448138609992      1.70075951534961     -1.22366864559783
  H   1.18327967937074     -0.85418690774557      0.73040451158246
  C   -1.46371019450511     -0.81695907667573     -0.00152470554418
  H   -1.22259218400488     -1.58168968131718      0.74286947139131
  H   -1.40301752452161     -1.24928481923008     -1.00126541712666
  H   -2.48221952667915     -0.46875702088733      0.17070575701436
  C   -0.59230327369771      0.97249519049575      1.44349458064062
  N   -0.66410575927870      1.43071021674081      2.52407860567450
  C   1.93870738458185      0.97414290053464      0.07166598704825
  N   2.70569262536714      1.85290141796079      0.20799420187622
  C   1.14619483863483     -0.80513119921573     -1.35501575436642
  N   1.26867719627397     -1.38049637186219     -2.37139846847520
