14
Coordinates from ORCA-job run
  C   -0.49872785732043      0.34930925393159      0.08227250852820
  C   0.98449181287751     -0.09948064126614     -0.06441203991706
  Br  -0.97567863248746      1.47489263184107     -1.44340298411880
  H   1.22256220249887     -0.69563223323947      0.82794324056972
  C   -1.43307383139730     -0.85525953311388      0.14057978727055
  H   -2.46109622739899     -0.51938087264221      0.27617401370947
  H   -1.36809908840355     -1.42672085190561     -0.78617686805279
  H   -1.15757353421067     -1.49432928542251      0.98466838276446
  C   -0.61094353547516      1.15304044835077      1.29622521841857
  N   -0.70315876987634      1.75593885875833      2.30168230634751
  C   1.90528235493931      1.03940751383805     -0.10300462203105
  N   2.65244176489914      1.94528397508040     -0.10741979556923
  C   1.15936690118470     -0.95557206293397     -1.24084746188752
  N   1.28320644017038     -1.67049720127642     -2.16428168603203
