14
Coordinates from ORCA-job run
  C   -0.47853014595738      0.36717278832746      0.11971261607275
  C   0.97699667411489     -0.16189472627506     -0.03705732241528
  Br  -0.79398112042992      1.76360310793928     -1.21139410047563
  H   1.12491626443414     -0.91475549100332      0.75028146271201
  C   -1.49345537084461     -0.75617378016287     -0.06804230858859
  H   -1.30733896232723     -1.54694977293341      0.66500084120891
  H   -2.50258621247412     -0.37112136209831      0.07985820201155
  H   -1.41680747546357     -1.16728666170321     -1.07570550620294
  C   -0.60191726735228      0.96368447113051      1.44666398472054
  N   -0.70351966591078      1.39578749632370      2.53575547924990
  C   1.97271130335692      0.89543680333538      0.15669122986412
  N   2.77608365233753      1.73385004308688      0.33177364596825
  C   1.15881020439679     -0.82079479671483     -1.33360488603011
  N   1.28761812211962     -1.37855811925221     -2.35893333809547
