12

C	0.0	0.0	0.0
C	-0.481421	-0.025817	-1.471864
Br	1.951821	0.0	0.0
H	-1.157895	-0.877391	-1.572162
H	-0.330767	0.91912	0.473087
H	0.379288	-0.154971	-2.134998
C	-0.43217	-1.160021	0.772132
N	-0.589525	-2.156369	1.375256
N	-1.146576	1.247533	-1.739777
H	-1.43428	1.247302	-2.714198
H	-1.990323	1.100024	-1.154174
F	-2.557409	0.0	0.0
