12

C	0.0	0.0	0.0
C	-0.504676	0.437925	-1.39804
Br	1.948075	0.0	0.0
H	0.341865	0.801014	-1.989315
H	-0.315586	0.708146	0.760041
H	-1.213684	1.244436	-1.203996
C	-0.429269	-1.332023	0.420878
N	-0.605294	-2.416362	0.837198
N	-1.145338	-0.693326	-2.06516
H	-1.995426	-0.759234	-1.481824
H	-1.425718	-0.384377	-2.989969
F	-2.564385	0.0	0.0
