12

C	0.0	0.0	0.0
C	-0.464006	0.19641	-1.43985
Br	1.956888	0.0	0.0
H	-1.560836	0.176405	-1.284198
H	-0.346935	0.833186	0.602876
H	-0.123307	-0.662761	-2.037105
C	-0.444664	-1.269558	0.565576
N	-0.603123	-2.341685	1.019942
N	-0.008157	1.491	-1.942787
H	0.886601	1.401434	-2.407902
H	-0.681899	1.827992	-2.617464
F	-2.610173	0.0	0.0
