12

C	0.0	0.0	0.0
C	-0.242819	0.198062	-1.560937
Br	1.950609	0.0	0.0
H	0.599939	0.810274	-1.891813
H	-0.363083	0.848083	0.572706
H	-0.078919	-0.805238	-1.987905
C	-0.489959	-1.255169	0.545131
N	-0.674121	-2.328636	0.987162
N	-1.471853	0.843798	-1.989304
H	-2.158159	0.614133	-1.214526
H	-1.802187	0.330167	-2.798626
F	-2.640638	0.0	0.0
