12

C	0.0	0.0	0.0
C	-0.468193	0.330066	-1.414335
Br	1.956973	0.0	0.0
H	-1.564662	0.277412	-1.264176
H	-0.347421	0.773297	0.677575
H	-0.113553	-0.457494	-2.094616
C	-0.441024	-1.315937	0.449979
N	-0.611079	-2.420636	0.812889
N	-0.028777	1.673815	-1.78458
H	-0.750585	2.112021	-2.337929
H	0.820111	1.64226	-2.332898
F	-2.616624	0.0	0.0
