12

C	0.0	0.0	0.0
C	-0.460085	0.076428	-1.499876
Br	1.955353	0.0	0.0
H	0.421093	-0.00541	-2.142942
H	-0.339919	0.871378	0.549992
H	-1.117828	-0.77114	-1.672076
C	-0.426825	-1.216379	0.681101
N	-0.589491	-2.251761	1.213478
N	-1.215274	1.268469	-1.822947
H	-0.668784	2.084143	-1.561678
H	-2.005061	1.153127	-1.166426
F	-2.505683	0.0	0.0
