17

C	-0.492938	-0.094121	-1.442165
C	0.0	0.0	0.0
Cl	-0.14167	1.419655	-2.364601
H	1.101818	0.0	0.0
H	-1.582296	-0.181609	-1.429991
C	0.146856	-1.255005	-2.175925
H	-0.155754	-1.274814	-3.22501
H	-0.168717	-2.190669	-1.708974
H	1.232602	-1.167463	-2.114537
N	-0.491119	-1.233852	0.663855
H	-0.544976	-1.047042	1.659255
H	0.235434	-1.934783	0.564911
C	-0.534058	1.208447	0.743648
H	-1.629719	1.181468	0.782415
H	-0.216451	2.138257	0.274181
H	-0.146815	1.20597	1.766934
Br	3.684685	0.0	0.0
