16

C	-0.252848	0.12196	-1.49989
C	0.0	0.0	0.0
F	-1.570734	0.516881	-1.787718
H	1.10355	0.0	0.0
N	0.652188	1.091794	-2.007796
H	1.570131	0.945095	-1.56067
H	0.741579	1.028397	-3.013889
C	-0.134498	-1.208945	-2.162662
N	-0.027856	-2.22845	-2.7374
C	-0.543111	-1.257691	0.663465
H	-0.042359	-2.136647	0.252417
H	-0.324624	-1.221913	1.733066
H	-1.62397	-1.361098	0.528856
C	-0.474707	1.202693	0.660962
N	-0.864982	2.133335	1.264244
H	2.709261	0.0	0.0
