16

C	-0.459871	-0.230132	-1.43518
C	0.0	0.0	0.0
F	-0.07315	-1.499176	-1.836127
H	1.103088	0.0	0.0
N	-1.894802	-0.177884	-1.561926
H	-2.249194	0.641608	-1.083859
H	-2.159293	-0.123525	-2.538913
C	0.212817	0.71454	-2.37077
N	0.616487	1.484351	-3.159991
C	-0.437322	-1.12206	0.936726
H	-0.020822	-2.059958	0.567397
H	-1.522104	-1.213263	1.021948
H	-0.003936	-0.931666	1.920927
C	-0.473758	1.2962	0.442755
N	-0.864703	2.350606	0.793139
H	2.673132	0.0	0.0
