17

C	-0.516347	-0.006409	-1.393558
C	0.0	0.0	0.0
F	-1.866235	-0.044355	-1.505752
H	1.09226	0.0	0.0
N	-0.046752	1.24095	-2.128385
O	-0.848328	2.164433	-2.202811
O	1.103283	1.217598	-2.541449
N	-0.011459	-1.164649	-2.248582
O	-0.420896	-1.156187	-3.406737
O	0.714634	-1.996976	-1.726808
C	-0.533464	-1.14732	0.707843
N	-0.988578	-2.051507	1.307019
C	-0.346487	1.307859	0.722649
H	-1.408102	1.567323	0.690406
H	0.246549	2.116168	0.291753
H	-0.029851	1.201781	1.761161
F	2.479932	0.0	0.0
