17

C	-0.351459	-0.088272	-1.443097
C	0.0	0.0	0.0
F	0.175528	0.922471	-2.140422
H	1.095517	0.0	0.0
N	0.096408	-1.373791	-2.130473
O	-0.015342	-1.356403	-3.353057
O	0.5167	-2.288114	-1.442191
N	-1.859535	-0.055351	-1.696074
O	-2.356819	1.03472	-1.953346
O	-2.452742	-1.11782	-1.537749
C	-0.565164	-1.063375	0.799799
N	-1.035888	-1.830035	1.559351
C	-0.366979	1.370284	0.578102
H	-1.443568	1.559738	0.619321
H	0.120949	2.143979	-0.013304
H	0.045227	1.417775	1.587335
F	2.47477	0.0	0.0
