17

C	-0.365845	-0.012902	-1.44209
C	0.0	0.0	0.0
F	0.166473	1.025422	-2.095188
H	1.095432	0.0	0.0
N	0.05649	-1.266023	-2.204127
O	0.50898	-2.205901	-1.573825
O	-0.108591	-1.196649	-3.419261
N	-1.877201	0.055312	-1.673907
O	-2.35953	1.162548	-1.880288
O	-2.486862	-1.001346	-1.547499
C	-0.55715	-1.103757	0.748281
N	-0.989613	-1.949286	1.442902
C	-0.358709	1.341699	0.647953
H	0.113027	2.143855	0.081199
H	0.078309	1.345928	1.648144
H	-1.434708	1.527575	0.724583
F	2.473216	0.0	0.0
