17

C	-0.509469	0.018343	-1.396135
C	0.0	0.0	0.0
F	-1.859269	0.03274	-1.514216
H	1.092158	0.0	0.0
N	0.011192	1.248107	-2.126664
O	1.158524	1.178342	-2.542592
O	-0.751115	2.204352	-2.193522
N	-0.046458	-1.154768	-2.252911
O	0.650666	-2.012785	-1.733805
O	-0.459315	-1.13237	-3.41013
C	-0.54941	-1.147115	0.694418
N	-1.024116	-2.044879	1.287745
C	-0.338272	1.303732	0.734983
H	0.269171	2.108796	0.319849
H	-0.034645	1.181779	1.775603
H	-1.395996	1.576015	0.694374
F	2.479125	0.0	0.0
