17

C	-0.505031	0.008659	-1.397637
C	0.0	0.0	0.0
F	-1.855265	0.019836	-1.520375
H	1.092291	0.0	0.0
N	0.016702	1.234713	-2.132903
O	-0.749261	2.187822	-2.214819
O	1.167385	1.165621	-2.538936
N	-0.038927	-1.169179	-2.246797
O	0.6351	-2.037755	-1.714448
O	-0.425616	-1.138769	-3.412865
C	-0.553852	-1.138343	0.704928
N	-1.031745	-2.027885	1.308072
C	-0.336267	1.311903	0.722258
H	-1.393799	1.586573	0.676729
H	0.274077	2.112097	0.300757
H	-0.034668	1.199006	1.764508
F	2.479321	0.0	0.0
