17

C	-0.354099	0.040829	-1.450645
C	0.0	0.0	0.0
F	-0.024431	-1.09354	-2.074334
H	1.095687	0.0	0.0
N	-1.849382	0.264108	-1.698453
O	-2.538892	-0.727138	-1.898656
O	-2.238541	1.424791	-1.594538
N	0.296741	1.173326	-2.246483
O	0.199872	1.044301	-3.463473
O	0.824712	2.096487	-1.648602
C	-0.476785	-1.26001	0.541061
N	-0.873209	-2.251615	1.03467
C	-0.479561	1.162341	0.868001
H	-0.109382	2.103146	0.469989
H	-1.568379	1.208346	0.966561
H	-0.041512	1.021995	1.857996
F	2.474856	0.0	0.0
