18

C	-0.494266	-0.022525	-1.434681
C	0.0	0.0	0.0
Br	0.440496	1.519681	-2.448797
H	1.093992	0.0	0.0
N	-0.009646	-1.221793	-2.221063
O	-0.655184	-1.506108	-3.231942
O	0.997233	-1.797133	-1.825829
N	-1.880743	0.056415	-1.547663
H	-2.182148	0.177882	-2.50478
H	-2.187267	0.805378	-0.936268
C	-0.499834	-1.224493	0.751724
H	-0.077067	-1.202746	1.761646
H	-1.591857	-1.245668	0.810706
H	-0.142394	-2.139155	0.279895
N	-0.571435	1.219217	0.605619
H	0.075901	1.975176	0.395391
H	-0.530884	1.094233	1.611586
H	2.869941	0.0	0.0
