18

C	-0.234337	-0.09022	-1.506909
C	0.0	0.0	0.0
Br	-2.021897	-0.897566	-2.031497
H	1.098405	0.0	0.0
N	-0.316797	1.377183	-2.046075
O	-1.387622	1.955257	-2.121632
O	0.781482	1.86631	-2.295045
N	0.79799	-0.831906	-2.064058
H	0.882269	-0.727396	-3.066653
H	1.691714	-0.621834	-1.574697
C	-0.427281	-1.262089	0.725493
H	0.066336	-1.279183	1.70223
H	-0.122248	-2.150297	0.169043
H	-1.513239	-1.294848	0.867795
N	-0.468823	1.238331	0.584898
H	0.294249	1.648726	1.110589
H	-1.258333	1.083953	1.199269
H	2.79911	0.0	0.0
