18

C	-0.32042	-0.043731	-1.485732
C	0.0	0.0	0.0
Br	-2.121227	-0.772183	-1.900948
H	1.09996	0.0	0.0
N	-0.280656	1.406224	-1.999177
O	-1.267351	1.951863	-2.471639
O	0.826776	1.915182	-1.872794
N	0.657674	-0.759538	-2.253785
H	0.433331	-1.745684	-2.249399
H	1.562363	-0.62355	-1.773529
C	-0.390509	-1.268575	0.731275
H	-1.464075	-1.301003	0.941996
H	-0.126233	-2.157927	0.154987
H	0.173041	-1.30616	1.668014
N	-0.53269	1.201691	0.636892
H	0.254274	1.826342	0.795535
H	-0.919317	0.966461	1.544151
H	2.816994	0.0	0.0
