18

C	-0.553212	0.015751	-1.41896
C	0.0	0.0	0.0
Br	0.166973	1.497642	-2.470008
H	1.092029	0.0	0.0
N	-0.06749	-1.279455	-2.137183
O	-0.918576	-2.167347	-2.252787
O	1.107132	-1.372746	-2.451996
N	-1.971303	0.125774	-1.449486
H	-2.307426	0.130515	-2.405052
H	-2.364037	-0.680029	-0.97788
C	-0.444233	-1.25076	0.755623
H	0.083303	-1.223295	1.710516
H	-1.520117	-1.257971	0.967334
H	-0.16517	-2.176434	0.246943
N	-0.398973	1.195393	0.734129
H	-1.234592	1.600621	0.329952
H	0.361641	1.862709	0.656906
H	2.857369	0.0	0.0
