18

C	-0.455786	0.055543	-1.459798
C	0.0	0.0	0.0
Br	0.313276	-1.409713	-2.487591
H	1.094341	0.0	0.0
N	-1.979748	-0.110965	-1.462091
O	-2.616504	0.927806	-1.275634
O	-2.472959	-1.235094	-1.497939
N	-0.145708	1.286608	-2.123745
H	0.867529	1.292085	-2.210894
H	-0.371778	1.99705	-1.429424
C	-0.485004	-1.209577	0.780219
H	-0.286507	-2.142499	0.250847
H	-1.561286	-1.159709	0.990844
H	0.058185	-1.236475	1.729057
N	-0.34475	1.274853	0.62968
H	-1.15116	1.190848	1.237687
H	0.461945	1.565808	1.173335
H	2.786053	0.0	0.0
