18

C	-0.201647	-0.091342	-1.496707
C	0.0	0.0	0.0
Br	-2.106404	-0.437679	-2.043341
H	1.098306	0.0	0.0
N	0.109882	1.258262	-2.227127
O	0.114273	1.209343	-3.455445
O	0.414974	2.245425	-1.568538
N	0.652117	-1.084352	-2.001704
H	0.700018	-1.039021	-3.012493
H	1.582298	-0.938251	-1.569995
C	-0.449996	-1.284624	0.675986
H	-0.171833	-2.157711	0.088763
H	-1.534955	-1.278885	0.820291
H	0.045256	-1.352138	1.650409
N	-0.644054	1.142168	0.631564
H	0.008221	1.916875	0.630623
H	-0.831265	0.896189	1.598891
H	2.827294	0.0	0.0
