16
Coordinates from ORCA-job run
  C   -0.41646256655176      0.39284774332296      0.18039062592525
  C   0.71356142902103     -0.63274798176928      0.20170637417292
  Br  0.20253061921274      2.05399454306942      1.07057057937627
  H   0.95976942869458     -0.84815157247020      1.24547860436634
  H   0.29132777134162     -1.55894565221118     -0.21510079076717
  C   -1.61670753187887     -0.09476882782811      0.98439206750511
  H   -1.34635038500470     -0.31450895679102      2.01915718712275
  H   -2.00385593428736     -1.00839478885671      0.51952860686277
  H   -2.40981884733002      0.65607295817885      0.98681203509744
  N   -0.71893522372102      0.75207519337393     -1.18839971745791
  H   -0.96382686834687     -0.08953994208053     -1.70185577450618
  H   -1.50874091006758      1.38689543845846     -1.22098923083253
  C   1.96541520695998     -0.24588379193390     -0.57532979294080
  H   2.68593326729414     -1.06734845574959     -0.55842558290401
  H   1.72631661476003     -0.01203574283149     -1.61243389954968
  H   2.43984392990406      0.63143983611840     -0.13450129147058
