16
Coordinates from ORCA-job run
  C   -0.51699712302620      0.43272710889929     -0.13648149225864
  C   0.70396418823344     -0.26986114881203     -0.72138926632442
  Br  0.12905195717977      2.26495826444961      0.54219200456548
  H   1.10349540682651      0.35637837981658     -1.52630378240772
  H   0.31445302788209     -1.18130043785985     -1.19055977920365
  C   -1.11244035219473     -0.26110041463286      1.07245030463447
  H   -2.00430306738266      0.26753001838530      1.41579843165166
  H   -0.40671454943674     -0.30220635943874      1.90001439776645
  H   -1.39758977168891     -1.27706083927214      0.78281536304598
  N   -1.49912171609018      0.59014890058259     -1.14338258964183
  H   -1.12989294110447      1.06690591851074     -1.95682950610029
  H   -2.30788985691212      1.09662520853196     -0.80530177687277
  C   1.81341075857465     -0.62358580293279      0.25976394515238
  H   1.47646449246355     -1.34723930005253      1.00439729304145
  H   2.65124535746761     -1.07451791179922     -0.27694442624746
  H   2.18286418920840      0.26159841562409      0.77876087919890
