16
Coordinates from ORCA-job run
  C   -0.42758294601027      0.67671134638454      0.01053478265372
  C   1.07419817038744      0.40077475289704     -0.01984008678591
  Br  -0.64887360988315      2.60916763265124      0.37321317956533
  H   1.51517596798706      1.07838032916372     -0.75460193040624
  H   1.49216871673739      0.65948497838429      0.95743484279496
  C   -1.14829557365177     -0.05828971932052      1.13583199094789
  H   -0.70294585693499      0.15829077059547      2.10919657711556
  H   -2.20058400325070      0.23134024882813      1.16530769538626
  H   -1.09749076352226     -1.13691267116112      0.95778916357697
  N   -0.99114141787604      0.45265072974563     -1.30944960786424
  H   -0.96648938830120     -0.54274403796235     -1.50828990216989
  H   -1.96339978608361      0.74144526104110     -1.32141604374215
  C   1.43259991924343     -1.04190842940183     -0.37756055580773
  H   2.51739235725264     -1.16683711678725     -0.35027645301227
  H   1.10928195777169     -1.29698409216154     -1.38916978678738
  H   1.00598625613435     -1.76456998289653      0.32129613453514
