15

C	0.0	0.0	0.0
C	-0.354354	0.142493	-1.525792
F	1.380443	0.0	0.0
H	0.629479	-0.00789	-1.98877
C	-0.417292	1.145245	0.823536
N	-0.456606	2.119339	1.481514
C	-0.411723	-1.27972	0.598578
N	-0.480391	-2.350652	1.079255
C	-0.838831	1.535422	-1.92602
H	-0.101425	2.28304	-1.622926
H	-0.94726	1.572419	-3.01185
H	-1.797228	1.741914	-1.455171
C	-1.17132	-0.937214	-2.083954
N	-1.581686	-1.834302	-2.723518
Br	-3.198149	0.0	0.0
