15

C	0.0	0.0	0.0
C	-0.488268	-0.217369	-1.445641
F	1.377019	0.0	0.0
H	-1.563964	0.021022	-1.428727
C	-0.412211	1.318429	0.518637
N	-0.527787	2.421298	0.907578
C	-0.423649	-1.085336	0.902664
N	-0.536772	-1.996196	1.636554
C	-0.297598	-1.665544	-1.895834
H	0.727142	-2.004947	-1.727624
H	-0.525713	-1.75216	-2.959502
H	-0.992211	-2.300141	-1.343408
C	0.222477	0.71414	-2.319088
N	0.786889	1.429505	-3.060708
Br	-3.437183	0.0	0.0
