15

C	0.0	0.0	0.0
C	-0.498987	0.312451	-1.422251
F	1.375878	0.0	0.0
H	-1.581127	0.497263	-1.312041
C	-0.407474	1.042242	0.962728
N	-0.560861	1.898768	1.752096
C	-0.422357	-1.336608	0.455842
N	-0.543315	-2.453188	0.801479
C	-0.273773	-0.863309	-2.372602
H	-0.522511	-0.562531	-3.391674
H	-0.935109	-1.682506	-2.086169
H	0.765148	-1.200905	-2.3496
C	0.174586	1.520205	-1.893877
N	0.712685	2.475812	-2.315917
Br	-3.470559	0.0	0.0
