17

C	-0.470956	-0.03951	-1.450832
C	0.0	0.0	0.0
F	-1.842079	-0.274724	-1.503661
H	1.089797	0.0	0.0
C	-0.203596	1.256011	-2.103065
N	0.017503	2.223675	-2.730442
C	0.251213	-1.129587	-2.22646
H	1.329505	-1.016396	-2.092267
H	-0.013589	-1.043047	-3.281336
H	-0.052444	-2.10599	-1.852642
N	-0.511073	-1.213581	0.713056
O	-1.511518	-1.087827	1.413787
O	0.099641	-2.256234	0.505145
N	-0.496486	1.175477	0.772191
O	-0.033103	1.286243	1.901524
O	-1.31866	1.924007	0.246811
Cl	3.160596	0.0	0.0
