17

C	-0.561624	-0.015387	-1.429952
C	0.0	0.0	0.0
F	0.049843	1.04298	-2.090266
H	1.089234	0.0	0.0
C	-0.157036	-1.249133	-2.123815
N	0.14061	-2.197817	-2.7478
C	-2.061431	0.197384	-1.540761
H	-2.605131	-0.571766	-0.997726
H	-2.337326	0.168547	-2.596161
H	-2.314247	1.179041	-1.138771
N	-0.444232	-1.157499	0.825213
O	-0.049711	-1.155771	1.982668
O	-1.134776	-2.030354	0.299282
N	-0.50383	1.235269	0.681723
O	0.124559	2.263337	0.468588
O	-1.5374	1.138125	1.343432
Cl	3.143634	0.0	0.0
