17

C	-0.480617	-0.073535	-1.447445
C	0.0	0.0	0.0
F	-1.840458	-0.371103	-1.482247
H	1.08986	0.0	0.0
C	-0.279105	1.226063	-2.112189
N	-0.07014	2.206372	-2.723161
C	0.280201	-1.135626	-2.224245
H	0.033231	-2.119931	-1.831905
H	-0.009803	-1.075128	-3.275185
H	1.353922	-0.968856	-2.111866
N	-0.500481	-1.203024	0.741419
O	0.085917	-2.25497	0.512061
O	-1.464646	-1.059815	1.486919
N	-0.505557	1.185182	0.750473
O	0.00627	1.36091	1.850592
O	-1.39201	1.870549	0.242366
Cl	3.165911	0.0	0.0
