17

C	-0.491898	-0.084057	-1.450149
C	0.0	0.0	0.0
F	-1.792649	-0.580158	-1.490627
H	1.108937	0.0	0.0
C	-0.514165	1.268816	-2.03906
N	-0.507425	2.306846	-2.588613
C	0.408391	-0.961782	-2.301468
H	0.378768	-1.981465	-1.928859
H	1.434378	-0.59642	-2.232971
H	0.054472	-0.928841	-3.334174
N	-0.449566	-1.199612	0.778236
O	-1.043989	-1.013801	1.835052
O	-0.15264	-2.288416	0.303053
N	-0.534551	1.188085	0.724774
O	0.182535	1.673203	1.591707
O	-1.667133	1.564638	0.421837
Cl	3.172834	0.0	0.0
