17

C	-0.473574	-0.010074	-1.449702
C	0.0	0.0	0.0
F	-1.847017	-0.235888	-1.503303
H	1.109301	0.0	0.0
C	-0.201105	1.290621	-2.087224
N	0.028947	2.258432	-2.711352
C	0.240005	-1.093202	-2.242716
H	-0.03073	-0.99368	-3.295268
H	1.319631	-0.98443	-2.11398
H	-0.06342	-2.073773	-1.879104
N	-0.507624	-1.231384	0.682922
O	0.130226	-2.260104	0.484292
O	-1.534725	-1.134101	1.349564
N	-0.495703	1.154843	0.80178
O	-0.073098	1.206996	1.950995
O	-1.270281	1.951845	0.275713
Cl	3.159461	0.0	0.0
