17

C	-0.483047	0.102047	-1.451864
C	0.0	0.0	0.0
F	-0.350167	-1.191651	-1.957486
H	1.109666	0.0	0.0
C	-1.906519	0.464212	-1.592995
N	-3.017764	0.76429	-1.82746
C	0.405628	1.013902	-2.273625
H	0.131547	0.907295	-3.324738
H	1.444368	0.715275	-2.116233
H	0.277611	2.048729	-1.964003
N	-0.560635	-1.233597	0.62444
O	-1.78772	-1.264498	0.721045
O	0.219892	-2.108779	0.972327
N	-0.433582	1.141251	0.852166
O	-0.410953	0.957472	2.063187
O	-0.719137	2.194155	0.286264
Cl	3.195291	0.0	0.0
