15

C	0.0	0.0	0.0
C	-0.436618	-0.07938	-1.494598
F	1.355915	0.0	0.0
H	-0.601754	0.969936	-1.775881
C	-0.465862	1.203879	0.690109
N	-0.552748	2.263	1.193337
N	-0.357636	-1.233526	0.799838
O	-0.495383	-2.278192	0.182682
O	-0.339518	-1.107577	2.019188
C	-1.705355	-0.779133	-1.753338
N	-2.406006	-1.453165	-2.423059
N	0.616605	-0.713302	-2.291512
H	0.17385	-1.24398	-3.026813
H	1.220039	-0.016319	-2.703432
F	-2.310157	0.0	0.0
