15

C	-0.456985	-0.011021	-1.44135
C	0.0	0.0	0.0
F	-1.850344	0.043201	-1.510914
H	1.091964	0.0	0.0
H	-0.073529	0.907977	-1.895179
C	-0.008011	-1.127961	-2.285201
N	0.270323	-1.9248	-3.100157
N	-0.455876	-1.232295	0.71649
O	-0.532024	-2.276265	0.071426
O	-0.696396	-1.13587	1.918682
C	-0.476934	1.244777	0.724784
H	-0.046039	1.273234	1.723014
H	-0.120754	2.12177	0.179285
H	-1.565163	1.280226	0.799388
Br	3.389846	0.0	0.0
