15

C	-0.438143	0.010914	-1.446586
C	0.0	0.0	0.0
F	-1.808288	0.228934	-1.568684
H	1.092158	0.0	0.0
H	0.068125	0.866318	-1.906062
C	-0.084572	-1.181436	-2.23015
N	0.187837	-2.096571	-2.911647
N	-0.478558	-1.213103	0.728589
O	-0.230306	-1.263238	1.929965
O	-1.095641	-2.075123	0.101959
C	-0.472495	1.239082	0.742872
H	-0.113086	2.126519	0.217799
H	-0.041134	1.239395	1.742049
H	-1.561917	1.276443	0.808638
Br	3.400516	0.0	0.0
