15

C	-0.549716	0.075078	-1.4111
C	0.0	0.0	0.0
F	-0.046897	-0.956641	-2.179191
H	1.090984	0.0	0.0
H	-1.637442	-0.034779	-1.397794
C	-0.212577	1.355683	-2.051784
N	-0.003695	2.374931	-2.594968
N	-0.486706	-1.273215	0.623088
O	-1.5217	-1.782729	0.185543
O	0.149553	-1.694311	1.581764
C	-0.480989	1.146426	0.877023
H	-0.072715	2.085892	0.502793
H	-0.095775	0.996026	1.885882
H	-1.57346	1.207109	0.908687
Br	3.453452	0.0	0.0
