15

C	-0.524015	0.047425	-1.421658
C	0.0	0.0	0.0
F	0.06879	-0.925713	-2.196304
H	1.090945	0.0	0.0
H	-1.601523	-0.139729	-1.435169
C	-0.2698	1.363411	-2.032472
N	-0.097125	2.404323	-2.546756
N	-0.459379	-1.277308	0.637999
O	-1.344703	-1.934308	0.085286
O	0.054219	-1.562644	1.714278
C	-0.49471	1.151645	0.860716
H	-0.120986	1.011506	1.874505
H	-0.089388	2.090105	0.481037
H	-1.588639	1.207743	0.87968
Br	3.440395	0.0	0.0
