15

C	-0.433547	-0.018109	-1.474109
C	0.0	0.0	0.0
Br	0.30794	1.507836	-2.376817
H	1.092789	0.0	0.0
C	0.024472	-1.241708	-2.115315
N	0.346567	-2.236423	-2.653455
N	-1.992332	-0.023658	-1.613305
O	-2.504643	-1.068762	-1.237898
O	-2.552337	0.961442	-2.055422
C	-0.500234	-1.137803	0.755914
N	-0.849012	-2.050974	1.408379
N	-0.512741	1.260217	0.654977
O	-1.737427	1.38533	0.684949
O	0.309602	2.044921	1.10257
Cl	3.120172	0.0	0.0
