15

C	-0.577364	0.0305	-1.414726
C	0.0	0.0	0.0
Br	0.132485	-1.490387	-2.389176
H	1.092781	0.0	0.0
C	-2.032272	-0.024458	-1.442736
N	-3.204487	-0.119921	-1.444241
N	-0.121232	1.285065	-2.188201
O	0.91942	1.798958	-1.824163
O	-0.835282	1.604873	-3.128934
C	-0.482003	-1.173541	0.713932
N	-0.887009	-2.117884	1.284516
N	-0.455192	1.217115	0.771626
O	-0.148293	1.248827	1.953419
O	-1.079145	2.079206	0.154566
Cl	3.10571	0.0	0.0
