15

C	-0.427184	-0.021883	-1.47536
C	0.0	0.0	0.0
Br	0.317863	1.503548	-2.376202
H	1.092748	0.0	0.0
C	0.030997	-1.246698	-2.114706
N	0.349952	-2.243456	-2.650933
N	-1.98768	-0.028718	-1.61679
O	-2.500598	-1.067247	-1.224348
O	-2.546409	0.948571	-2.076376
C	-0.502156	-1.13505	0.758493
N	-0.859481	-2.03822	1.420348
N	-0.514722	1.262733	0.647951
O	-1.73866	1.400048	0.651633
O	0.304971	2.037636	1.118054
Cl	3.125128	0.0	0.0
