15

C	-0.448802	0.014548	-1.467039
C	0.0	0.0	0.0
Br	-2.408097	-0.072208	-1.602143
H	1.114945	0.0	0.0
C	-0.002031	1.291843	-2.252405
N	-0.40285	1.472876	-3.409161
N	0.135499	-1.152365	-2.226596
O	-0.39898	-1.309651	-3.401471
O	1.455748	-1.06999	-2.265074
C	-0.380676	-1.271302	0.806683
N	0.173883	-1.45761	1.898098
N	-0.474198	1.19173	0.754625
O	-1.718877	1.052522	1.147679
O	0.347089	1.458394	1.751099
Cl	2.566687	0.0	0.0
