15

C	-0.490132	-0.012244	-1.437178
C	0.0	0.0	0.0
Br	-2.438989	0.182788	-1.488688
H	1.09441	0.0	0.0
C	0.108766	0.983517	-2.317789
N	0.546911	1.680074	-3.159141
N	-0.111928	-1.418972	-2.046192
O	0.956779	-1.864737	-1.666263
O	-0.807836	-1.833252	-2.964823
C	-0.481675	-1.155814	0.731336
N	-0.804605	-2.117968	1.322966
N	-0.402558	1.255627	0.678887
O	-0.631531	1.204569	1.888882
O	-0.297087	2.294713	0.027037
Cl	2.983087	0.0	0.0
