15

C	-0.549009	-0.021246	-1.42522
C	0.0	0.0	0.0
Br	0.232918	-1.543423	-2.343488
H	1.090699	0.0	0.0
C	-1.999498	-0.125721	-1.496679
N	-3.166492	-0.262993	-1.541042
N	-0.112027	1.227608	-2.214937
O	0.833979	1.852498	-1.773305
O	-0.743379	1.439367	-3.241312
C	-0.468964	-1.165961	0.735531
N	-0.858503	-2.100421	1.332732
N	-0.478489	1.222501	0.739254
O	-0.098602	1.327803	1.895058
O	-1.203816	2.009897	0.131893
Cl	3.101201	0.0	0.0
