18

C	0.0	0.0	0.0
C	-0.476518	0.047132	-1.458084
F	1.402836	0.0	0.0
H	-1.56487	-0.099281	-1.421445
C	-0.415291	1.225969	0.794671
H	-1.503284	1.30948	0.777699
H	-0.080009	1.092962	1.827577
H	0.047315	2.134179	0.402814
N	-0.436487	-1.250552	0.557996
H	-0.200232	-1.264062	1.544778
H	-1.456559	-1.260186	0.493204
C	0.125942	-1.060519	-2.20422
N	0.589924	-1.902632	-2.877659
C	-0.168344	1.370968	-2.16285
H	-0.785122	2.167839	-1.74478
H	-0.396945	1.291964	-3.227571
H	0.887891	1.629545	-2.052199
Cl	-3.658973	0.0	0.0
