18

C	0.0	0.0	0.0
C	-0.468672	0.11294	-1.457692
F	1.404562	0.0	0.0
H	-1.561628	-0.005279	-1.432647
C	-0.413857	1.192677	0.843712
H	-1.501631	1.280991	0.827626
H	-0.081758	1.015862	1.871224
H	0.052465	2.115474	0.492768
N	-0.44434	-1.269914	0.503477
H	-1.462454	-1.269819	0.426323
H	-0.225848	-1.320888	1.492883
C	0.105501	-0.984989	-2.241887
N	0.541936	-1.823173	-2.939239
C	-0.114706	1.450547	-2.11233
H	-0.701368	2.25499	-1.665644
H	0.95007	1.666803	-1.992105
H	-0.344023	1.419753	-3.179209
Cl	-3.660317	0.0	0.0
