18

C	0.0	0.0	0.0
C	-0.49929	-0.208641	-1.435951
F	1.418611	0.0	0.0
H	-1.592393	-0.299019	-1.331742
C	-0.485707	1.302122	0.588108
H	-1.577958	1.314019	0.537628
H	-0.056856	2.152502	0.056893
H	-0.168339	1.362711	1.63315
N	-0.444916	-1.092748	0.790262
H	-0.001365	-1.955018	0.500356
H	-0.271403	-0.929373	1.771996
C	0.032643	-1.473949	-1.947178
N	0.484759	-2.475145	-2.363382
C	-0.139058	0.931243	-2.390337
H	-0.407956	0.666402	-3.414793
H	0.931911	1.1429	-2.352001
H	-0.696818	1.828818	-2.12079
Cl	-3.877059	0.0	0.0
