18

C	0.0	0.0	0.0
C	-0.365001	-0.517916	-1.437614
F	1.395311	0.0	0.0
H	0.618046	-0.714437	-1.879475
C	-0.413475	1.437347	0.266437
H	-0.049894	1.719322	1.259893
H	0.021091	2.114329	-0.471708
H	-1.502435	1.506358	0.241694
N	-0.453881	-0.938969	0.985925
H	-1.473416	-0.959614	0.903799
H	-0.250794	-0.545487	1.899526
C	-0.950434	0.513965	-2.300737
N	-1.300677	1.283938	-3.115091
C	-1.170464	-1.819031	-1.52554
H	-1.230532	-2.127769	-2.572705
H	-2.179739	-1.668515	-1.143705
H	-0.667796	-2.597152	-0.951169
Cl	-3.678123	0.0	0.0
