18

C	0.0	0.0	0.0
C	-0.380948	0.375865	-1.445333
F	1.416398	0.0	0.0
H	-0.03655	-0.457127	-2.073561
C	-0.481621	0.994259	1.028809
H	-0.053379	0.736599	2.001594
H	-0.150954	2.000484	0.76631
H	-1.570937	0.964457	1.092634
N	-0.494548	-1.297174	0.27895
H	-0.431963	-1.523505	1.261804
H	-0.017414	-1.998059	-0.272059
C	0.376871	1.558288	-1.868469
N	0.947321	2.527249	-2.207551
C	-1.882822	0.587175	-1.643687
H	-2.115283	0.647757	-2.709148
H	-2.464129	-0.21697	-1.195188
H	-2.224297	1.508764	-1.17342
Cl	-4.870045	0.0	0.0
