18

C	0.0	0.0	0.0
C	-0.346239	-0.002289	-1.530461
F	1.423258	0.0	0.0
H	0.64744	-0.020971	-1.993548
C	-0.400236	1.260569	0.739882
H	-0.015789	1.192996	1.763367
H	0.019806	2.151122	0.265599
H	-1.489723	1.328756	0.761136
N	-0.448659	-1.216917	0.607137
H	-0.286315	-1.144888	1.606757
H	-1.463816	-1.237408	0.482289
C	-0.947683	1.252693	-1.990606
N	-1.349858	2.25904	-2.443833
C	-1.121317	-1.212598	-2.067999
H	-2.13729	-1.214434	-1.674954
H	-0.607105	-2.129489	-1.781083
H	-1.164007	-1.150429	-3.158436
Cl	-3.66082	0.0	0.0
