16

C	-0.216712	-0.060093	-1.537034
C	0.0	0.0	0.0
Cl	-0.104566	1.660249	-2.228129
H	1.092069	0.0	0.0
N	0.845708	-0.880939	-1.979735
H	1.723808	-0.620537	-1.489785
H	0.942591	-0.867947	-2.986282
N	-1.547055	-0.486045	-1.909488
H	-1.622247	-1.46834	-1.661905
H	-1.65035	-0.402858	-2.915014
C	-0.518849	-1.217056	0.593848
N	-0.904799	-2.228816	1.05107
N	-0.610863	1.178281	0.664749
O	-1.772035	1.074227	1.065991
O	0.086474	2.182646	0.772493
F	2.576075	0.0	0.0
