16

C	-0.179932	-0.021932	-1.531121
C	0.0	0.0	0.0
Cl	0.241366	-1.76678	-2.041954
H	1.091035	0.0	0.0
N	-1.528011	0.158691	-1.990539
H	-1.882698	1.027625	-1.606697
H	-1.527475	0.219645	-3.001893
N	0.788164	0.90056	-2.000687
H	0.907466	0.826169	-3.003504
H	1.680608	0.717082	-1.502968
C	-0.693958	-1.034326	0.727676
N	-1.213209	-1.878553	1.358883
N	-0.450942	1.343273	0.506785
O	0.411703	2.143178	0.847425
O	-1.667494	1.564191	0.543369
F	2.560959	0.0	0.0
