16

C	-0.202196	0.158834	-1.516853
C	0.0	0.0	0.0
Cl	-0.015407	-1.738497	-2.205556
H	1.087811	0.0	0.0
N	-1.487545	0.59209	-1.882849
H	-2.187802	-0.064776	-1.561605
H	-1.573498	0.703408	-2.887625
N	0.849943	0.902747	-2.018352
H	1.716613	0.662605	-1.496727
H	0.965236	0.813485	-3.016239
C	-0.645805	-1.138307	0.611027
N	-1.143898	-2.065586	1.133685
N	-0.477924	1.258857	0.664225
O	0.18447	2.273106	0.473665
O	-1.497131	1.197244	1.354459
F	2.548671	0.0	0.0
