16

C	-0.015321	-0.034913	-1.536855
C	0.0	0.0	0.0
Cl	-1.670679	-0.114051	-2.257865
H	1.093338	0.0	0.0
N	0.607044	1.191338	-1.977056
H	1.515718	1.202069	-1.499885
H	0.764901	1.127036	-2.976908
N	0.667494	-1.27599	-1.843023
H	1.582144	-1.170046	-1.390211
H	0.799187	-1.334043	-2.845019
C	-0.620008	-1.150792	0.612503
N	-1.085908	-2.083669	1.153973
N	-0.553023	1.259827	0.554541
O	-1.72862	1.252922	0.933801
O	0.198767	2.230131	0.600708
F	2.575885	0.0	0.0
