16

C	-0.18809	0.00613	-1.54513
C	0.0	0.0	0.0
Cl	0.108285	-1.773627	-2.024411
H	1.090855	0.0	0.0
N	-1.475902	0.445341	-1.936496
H	-2.192171	-0.153377	-1.54375
H	-1.533559	0.430539	-2.948935
N	0.826457	0.745464	-2.22448
H	1.705566	0.493946	-1.756379
H	0.654947	1.717245	-1.98307
C	-0.656646	-1.076525	0.703747
N	-1.19228	-1.959904	1.26517
N	-0.418774	1.306166	0.581774
O	-0.0344	2.329081	0.01939
O	-1.081654	1.301492	1.620568
F	2.512505	0.0	0.0
