16

C	-0.181736	-0.1973	-1.513368
C	0.0	0.0	0.0
Cl	0.140695	1.665755	-2.252588
H	1.106629	0.0	0.0
N	0.863454	-1.008776	-1.914015
H	1.741231	-0.719613	-1.436878
H	0.952142	-1.099217	-2.915723
N	-1.4618	-0.576619	-1.944947
H	-2.139112	0.089729	-1.594866
H	-1.510564	-0.613297	-2.956059
C	-0.534489	-1.1293	0.738096
N	-0.942737	-2.026893	1.37855
N	-0.649208	1.232453	0.524242
O	-1.842395	1.391378	0.249765
O	0.018933	1.985203	1.221587
F	2.566997	0.0	0.0
