16

C	-0.230786	0.11643	-1.522135
C	0.0	0.0	0.0
Cl	-0.184519	-1.653157	-2.168773
H	1.107772	0.0	0.0
N	-1.553022	0.567552	-1.894055
H	-1.555252	1.570995	-1.749084
H	-1.708228	0.372339	-2.875487
N	0.84891	0.866306	-2.022482
H	1.722927	0.610549	-1.534866
H	0.923701	0.809917	-3.028998
C	-0.610966	-1.133791	0.653944
N	-1.08112	-2.050924	1.219567
N	-0.391171	1.237498	0.744446
O	-0.620032	2.273452	0.12049
O	-0.397623	1.152376	1.969522
F	2.544613	0.0	0.0
