16

C	-0.230936	0.003529	-1.525538
C	0.0	0.0	0.0
Cl	-0.161078	-1.812799	-2.034999
H	1.096449	0.0	0.0
N	-1.554545	0.407652	-1.939138
H	-1.708875	0.120872	-2.900713
H	-1.567191	1.419856	-1.883289
N	0.843577	0.725067	-2.075694
H	0.919614	0.602822	-3.075064
H	1.719753	0.504515	-1.572283
C	-0.614042	-1.078935	0.738941
N	-1.090558	-1.958561	1.355043
N	-0.387021	1.290804	0.650825
O	-0.344533	1.306299	1.878362
O	-0.664904	2.266148	-0.045446
F	2.544706	0.0	0.0
