16

C	-0.195949	-0.035372	-1.535456
C	0.0	0.0	0.0
Cl	0.172367	1.709179	-2.089906
H	1.090762	0.0	0.0
N	0.826918	-0.845744	-2.123515
H	0.580884	-1.813131	-1.936922
H	1.700398	-0.624148	-1.615247
N	-1.478348	-0.464756	-1.948939
H	-1.543028	-0.398479	-2.9579
H	-2.190318	0.102531	-1.505529
C	-0.516856	-1.211011	0.60826
N	-0.91255	-2.189138	1.126666
N	-0.654847	1.160835	0.664076
O	0.0193	1.870542	1.398898
O	-1.857553	1.324962	0.430322
F	2.554443	0.0	0.0
