16

C	-0.174932	-0.016652	-1.537669
C	0.0	0.0	0.0
Cl	-1.808071	0.814143	-1.982639
H	1.092964	0.0	0.0
N	0.868646	0.68981	-2.227955
H	1.721703	0.424434	-1.704683
H	0.742476	1.676064	-2.033848
N	-0.154102	-1.358178	-1.967256
H	-0.950871	-1.888483	-1.641055
H	-0.086026	-1.371817	-2.976325
C	-0.631583	-1.105756	0.676636
N	-1.127956	-2.0556	1.161205
N	-0.379257	1.284409	0.627405
O	-0.991862	1.260195	1.695495
O	0.002456	2.310029	0.067394
F	2.514271	0.0	0.0
