16

C	-0.002585	0.309359	-1.506388
C	0.0	0.0	0.0
Cl	-1.634493	0.398817	-2.266888
H	1.099883	0.0	0.0
N	0.620366	1.608408	-1.634864
H	1.532964	1.496294	-1.180195
H	0.766662	1.79772	-2.620431
N	0.6957	-0.826233	-2.077502
H	0.824805	-0.66505	-3.070284
H	1.612321	-0.813968	-1.611528
C	-0.622953	-1.253744	0.348125
N	-1.099372	-2.273523	0.68527
N	-0.566617	1.114114	0.801875
O	-1.783801	1.113029	0.992276
O	0.210056	1.969323	1.212635
F	2.58463	0.0	0.0
