15
Coordinates from ORCA-job run
  C   0.58583379633183      0.00256974224274      0.64464683912767
  C   -0.43453332401977      0.26729062844580     -0.48241260719247
  Cl  -0.25375168240569     -0.45249348144854      2.16263762080859
  H   0.11554805487386      0.65589570265273     -1.34312519873494
  C   1.27202910012540      1.28186365281404      0.90505168380373
  N   1.90766662764133      2.25772238737054      1.06588470769815
  N   1.45278216648165     -1.08120708562604      0.28725128175561
  H   2.17946961535366     -1.20483077354552      0.98133265123832
  H   1.86827393763115     -0.93700891654155     -0.62619003603897
  N   -1.43487566798488      1.17350280392011     -0.07825254278303
  H   -2.04800424723984      0.75993753012232      0.61250934639724
  H   -1.97731726402542      1.50743912512429     -0.86282840103578
  N   -0.95253006547500     -1.08748995559808     -0.96841173791618
  O   -1.94054505236452     -1.53903432552817     -0.39990085427835
  O   -0.34104599492377     -1.60415703440466     -1.89919275284958
