15
Coordinates from ORCA-job run
  C   0.49687909825899     -0.03857143405979      0.71456544693320
  C   -0.35666023904484      0.29728452664006     -0.52652326625289
  Cl  -0.55144189016519     -0.48669329826402      2.09890219916738
  H   0.31642805897067      0.67850466231242     -1.29853961817654
  C   1.19798946801207      1.20198025887075      1.09484916466510
  N   1.84954613604706      2.14326523361027      1.36248162460721
  N   1.35516930485921     -1.15366937018876      0.44258481037728
  H   1.89241021371656     -1.00879573634631     -0.40496134346758
  H   1.97898884514744     -1.32541147633886      1.22137233937317
  N   -1.36107426500195      1.23953276210794     -0.22913499006214
  H   -2.07648962865890      0.83912420370839      0.36408537974245
  H   -1.78137526156649      1.61680239317917     -1.06717412222905
  N   -0.86466338084989     -1.02097651492960     -1.11273487030683
  O   -0.15863124756115     -1.54523494302793     -1.96943518183636
  O   -1.93707521216358     -1.43914126727373     -0.69033757253440
