18

C	0.0	0.0	0.0
C	-0.228551	0.112438	-1.573398
F	1.370475	0.0	0.0
H	0.522453	-0.611765	-1.9003
N	-0.376512	1.098475	0.803044
H	0.02731	0.932342	1.714622
H	-1.397625	1.02527	0.83308
N	-0.492413	-1.325275	0.535016
O	-0.496337	-1.418422	1.780709
O	-0.535771	-2.291606	-0.237832
C	0.20053	1.502254	-2.008421
H	1.186172	1.77342	-1.62135
H	0.2208	1.527153	-3.100485
H	-0.537553	2.216638	-1.662257
N	-1.503439	-0.162541	-2.218248
H	-1.267403	-0.555206	-3.135666
H	-1.974874	-0.876247	-1.664045
H	-2.448539	0.0	0.0
