18

C	0.0	0.0	0.0
C	-0.531619	-0.409649	-1.406137
F	1.361479	0.0	0.0
H	-1.342317	-1.106633	-1.194185
N	-0.532563	1.154183	0.599977
H	-1.558446	0.941722	0.620473
H	-0.417181	1.916525	-0.060087
N	-0.275646	-1.178607	0.980394
O	-0.203949	-2.308177	0.499141
O	-0.406358	-0.933426	2.172229
C	0.531662	-1.075461	-2.266752
H	1.020745	-1.892095	-1.736958
H	1.296953	-0.357393	-2.576934
H	0.049866	-1.466121	-3.164803
N	-1.178614	0.666219	-2.140582
H	-2.047813	0.847134	-1.627188
H	-0.605868	1.503108	-2.151119
H	-2.997624	0.0	0.0
