18

C	0.0	0.0	0.0
C	-0.564457	-0.232793	-1.415555
F	1.360927	0.0	0.0
H	-1.38999	-0.937708	-1.271887
N	-0.55766	1.093009	0.642839
H	-1.59249	0.925085	0.544511
H	-0.312445	1.057346	1.627568
N	-0.210614	-1.32728	0.855134
O	-0.243079	-2.410449	0.277604
O	-0.211514	-1.187818	2.07686
C	0.483091	-0.820339	-2.352833
H	1.285212	-0.104193	-2.550779
H	0.920266	-1.733728	-1.942849
H	-0.006091	-1.050589	-3.300406
N	-1.184904	0.952587	-2.002779
H	-2.112098	0.9773	-1.566426
H	-0.699242	1.779529	-1.673907
H	-3.005446	0.0	0.0
