18

C	0.0	0.0	0.0
C	-0.398285	0.241525	-1.48733
F	1.357729	0.0	0.0
H	-0.461313	1.334807	-1.526805
N	-0.62232	0.871699	0.883061
H	-0.521279	0.534031	1.834752
H	-1.632035	0.86171	0.667002
N	-0.226497	-1.502716	0.405833
O	-0.070991	-2.361083	-0.460277
O	-0.423138	-1.735317	1.594166
C	-1.722895	-0.339827	-1.953715
H	-1.634719	-1.420813	-2.095178
H	-2.559326	-0.152747	-1.257028
H	-1.963747	0.112992	-2.923238
N	0.723131	-0.136272	-2.373312
H	0.392418	0.051749	-3.313666
H	0.80104	-1.148469	-2.309913
H	-3.723757	0.0	0.0
