15
Coordinates from ORCA-job run
  C   -0.69541876316025     -0.00409143586985      0.16649653625612
  C   0.59637869177896      0.40175114766046     -0.58844024103299
  Br  -1.70104962303029      1.67417523836117      0.59547243773983
  H   0.33493029693361      0.92275850453940     -1.51174735586108
  N   -0.36925024986483     -0.59984054236804      1.42077834477625
  H   -1.17562537424565     -0.66278701704088      2.02733058192627
  H   0.03876228895134     -1.51779752988210      1.27766185330060
  N   -1.42035873223752     -0.85346602428128     -0.71877826888597
  H   -1.73120237314051     -0.37265606906804     -1.55551258706915
  H   -2.22540144687185     -1.25245417556028     -0.25084436806470
  C   1.38341009505787     -0.79382691489610     -0.87054437016204
  N   2.01029964203476     -1.76077508897170     -1.09640922623401
  N   1.44754708777849      1.36889707538188      0.20012322756679
  O   1.34410719906912      2.54894702375747     -0.11855949251981
  O   2.16187126094674      0.89816580823789      1.07497292826387
