15
Coordinates from ORCA-job run
  C   -0.58748440168557     -0.37559129051943      0.05017382468990
  C   0.68395394468098      0.17149128803025     -0.61978000306430
  Br  -0.94353908825709     -2.10240238862884     -1.16699510772594
  H   0.50094465955821      0.28580765328343     -1.68671491594963
  N   -1.62834596133226      0.55177045757867     -0.11397048163862
  H   -2.48781304968898      0.25194402688608      0.32946404274150
  H   -1.81454950550273      0.73961337837978     -1.09097637926023
  N   -0.40254345309150     -0.74130324815227      1.37852574884005
  H   -1.25513223506041     -1.05971959757295      1.82088688426293
  H   0.32565420910548     -1.43326270295408      1.49992459674764
  C   1.85632824562633     -0.65484144884603     -0.37389521402984
  N   2.77333251045702     -1.34925037982147     -0.13531177428277
  N   0.92677638791258      1.57038619446683     -0.06441096744677
  O   1.29559211907827      1.66385933506638      1.09409154642393
  O   0.75782561819965      2.48149872280363     -0.87001180030787
