15
Coordinates from ORCA-job run
  C   -0.62168841398665     -0.49173660808585     -0.01711804357962
  C   0.67538930854212      0.13755019419812     -0.61496756127702
  Br  -0.77240749074175     -2.23379723577583     -1.07079085438400
  H   0.52742665858564      0.31331918094105     -1.68108716495403
  N   -1.84353889309128      0.19345778688965     -0.26746622101396
  H   -1.81750734187881      1.11983203337936      0.14332281025875
  H   -2.05425203413755      0.25468748950275     -1.25419198133805
  N   -0.46691666682103     -0.63395841118341      1.36404289251769
  H   -1.30105491010151     -1.01895543323185      1.78687720643370
  H   0.36187360430777     -1.13989152712841      1.64740090356285
  C   1.86223553396502     -0.66724829595373     -0.36783209994610
  N   2.80805986482493     -1.32852737018747     -0.14776954298620
  N   0.85668764721667      1.50113053684173      0.02092431965556
  O   0.13830306362552      2.38521317209512     -0.43968150490739
  O   1.64739006969091      1.60892448769879      0.94833684195782
