15
Coordinates from ORCA-job run
  C   -0.52982120636374     -0.17270336237079      0.41245200534069
  C   0.81296278475365      0.04008907234748     -0.32472807982805
  Br  -0.46264858589519      0.61593439110767      2.19920362309511
  H   0.77667662448108     -0.55348182944355     -1.24384824749954
  N   -0.62230418574602     -1.60835092388111      0.60338906053100
  H   -0.96797785568872     -2.03987042895482     -0.24823187882060
  H   -1.24709064078471     -1.83926683759000      1.36535536961408
  N   -1.54921993401946      0.52460467402848     -0.31737463062731
  H   -1.57655738440610      0.23919202054787     -1.29057877455382
  H   -2.45704649938970      0.39761918783145      0.11149408564948
  C   1.96717716654968     -0.35449477732805      0.46630251092750
  N   2.92896205884721     -0.67400555112746      1.05856607742175
  N   0.95206617698908      1.46598110966822     -0.79532760191276
  O   1.38381688814695      2.28597760405351      0.00269320835409
  O   0.58900459252600      1.67377565111112     -1.94936672769162
