15
Coordinates from ORCA-job run
  C   -0.52519549380815     -0.14881389115617      0.42651842693947
  C   0.80884496980841      0.01755325643974     -0.33779059714632
  Br  -0.42299395014033      0.71046458130511      2.17825677294783
  H   0.75077539580599     -0.61086173173306     -1.23229818587213
  N   -0.63158744113450     -1.57473572134159      0.67686158559049
  H   -1.24911213709362     -1.76623915132784      1.45573317993455
  H   -0.99569997116928     -2.03530987810491     -0.15159653387585
  N   -1.54709657126365      0.53042519959333     -0.31698386612437
  H   -1.59389618859257      0.20237883669163     -1.27604411827781
  H   -2.44962226150586      0.43306469176298      0.13053407371587
  C   1.96980402917034     -0.36175183515329      0.45047574739779
  N   2.93568329317971     -0.67455124525938      1.03975516271390
  N   0.95809678113670      1.42241836945048     -0.86580307291515
  O   0.58180150437007      1.58948949525960     -2.02205731577503
  O   1.40919804123674      2.26746902357337     -0.10556125925322
