14
Coordinates from ORCA-job run
  C   -0.36878575890458      0.44508256478647     -0.29222101116495
  C   1.04579829330861      0.06677394239415      0.14023770473436
  F   -0.42822937313496      0.27050277370886     -1.67974098906773
  H   1.12473018812043      0.21424857885325      1.22075749499205
  H   1.73773747459048      0.76911384131326     -0.34545680345588
  C   -1.45255758671907     -0.40397184419409      0.33781601349261
  H   -1.23019124698926     -1.45130827508986      0.14150104075467
  H   -1.48323125515813     -0.23894289449692      1.41671493442842
  H   -2.42054093628249     -0.13862647340424     -0.08932107110656
  C   -0.59444694183997      1.87660752966770     -0.01874778591973
  N   -0.76017812041029      3.01073151953679      0.23445975085892
  N   1.28571270389831     -1.33360405373026     -0.17476079314160
  H   1.41425915363160     -1.43540314766153     -1.17305330555606
  H   2.13092340588932     -1.65120406168357      0.28081482015148
