14
Coordinates from ORCA-job run
  C   -0.37798076652215      0.39725732367658     -0.34470247965974
  C   1.04328182528205      0.10547624246305      0.13154070446706
  F   -0.42945996223794      0.05096402698204     -1.69999002770207
  H   1.72124837900102      0.76061662210670     -0.43362276963631
  H   1.11413024330973      0.38252034252560      1.18710560244110
  C   -1.44513208844319     -0.39007581779703      0.38563038884358
  H   -2.41644487973177     -0.20519497074166     -0.07495590730333
  H   -1.19700780751238     -1.44817529633984      0.32580781212958
  H   -1.48657917118025     -0.08838594353347      1.43403541859345
  C   -0.63415045644678      1.84641051887012     -0.25131946688951
  N   -0.82478439879315      2.99927899122194     -0.13974090023894
  N   1.31541990136887     -1.31666313836549     -0.01314932261547
  H   2.16191279803449     -1.56020538381366      0.48366021902347
  H   1.45454638387143     -1.53482351725489     -0.99129927145287
