14
Coordinates from ORCA-job run
  C   -0.42914660267433      0.36243110349504     -0.32119484524880
  C   1.04992596213341      0.12655845592398     -0.02555639161854
  F   -0.66082548290620     -0.10284839115842     -1.62148107509832
  H   1.62878430578957      0.73117120975419     -0.73788651519164
  H   1.26248689926155      0.50086277309223      0.97964747119778
  C   -1.36835591439133     -0.36695240790932      0.61566046953810
  H   -1.11209424078430     -1.42484907999539      0.60896371884412
  H   -1.26645465628678      0.02089511794137      1.63120143310483
  H   -2.39820545171250     -0.22742560293934      0.28441910340869
  C   -0.70127485257587      1.81151778801553     -0.31880891128922
  N   -0.90754275343962      2.96645601898382     -0.28013960602364
  N   1.32855592878706     -1.30105938946790     -0.07815369688636
  H   1.32812492819457     -1.60695705026340     -1.04276332576348
  H   2.24502193060475     -1.48880054547238      0.30609217102648
