14
Coordinates from ORCA-job run
  C   -0.45919447996099      0.22660318349910     -0.30067147828095
  C   0.78542143803714     -0.60424869099138      0.00460892497733
  F   -0.61297402619694      0.29684066084843     -1.67810333592321
  H   0.65588876853284     -1.54567315460160     -0.53667279596549
  H   0.78602104008921     -0.83380403840820      1.08036603404617
  C   -1.72278122637501     -0.37884861641988      0.28217963688023
  H   -1.83108154078815     -1.40158807831601     -0.08517561260710
  H   -2.58879355536194      0.20170976343014     -0.03767395873078
  H   -1.68652771912985     -0.38961987531669      1.37266437404403
  C   -0.26057045431472      1.59908761597548      0.20402601387959
  N   -0.09383806389908      2.66576564352529      0.66463697177743
  N   1.97925908848403      0.06676012085359     -0.47810889792587
  H   2.34898496866743      0.69697099907066      0.22124042760565
  H   2.69918576221603     -0.60095553314893     -0.71431630377703
