14
Coordinates from ORCA-job run
  C   -0.38112704980470      0.26441280715771     -0.16360328319915
  C   0.83364151667276     -0.66625227951450     -0.07849161345783
  F   -0.31923756054015      0.90630096970792     -1.40469690358893
  H   0.79536059974729     -1.20677421903512      0.87172157321374
  H   0.71755018804605     -1.40083055393253     -0.88202765218297
  C   -1.70610153109677     -0.46338984196231     -0.07332919272401
  H   -1.75071001062335     -1.21913260599514     -0.86000496415398
  H   -2.53013273302045      0.23767952063355     -0.21163096918882
  H   -1.81314946515465     -0.94957284819857      0.89808275458659
  C   -0.27170357804517      1.30756270531654      0.87228059106859
  N   -0.15553766313491      2.10083907117395      1.72991463685806
  N   2.12427586338372     -0.02589800054178     -0.21275810409588
  H   2.14714515198526      0.53029509108199     -1.05770460950934
  H   2.30972627158507      0.58476018410830      0.57324773637392
