14
Coordinates from ORCA-job run
  C   -0.40402521587895      0.19108340375482     -0.19918813030790
  C   0.83990388632691     -0.66295123667683      0.06517259700621
  F   -0.51999232896587      0.32822940344213     -1.58666570547136
  H   0.64752958770818     -1.64071767487503     -0.38829584457938
  H   0.93945237343491     -0.81326199039230      1.14408696192001
  C   -1.68348245863823     -0.42815799373872      0.32322607887373
  H   -2.54032563685980      0.18544511898297      0.04233026769271
  H   -1.80233240392618     -1.42118337857175     -0.11472835412909
  H   -1.65220509006482     -0.51698964021374      1.41069700115858
  C   -0.20112057871444      1.54208713541143      0.35512114678065
  N   -0.03335434539655      2.59726491049080      0.84165101811958
  N   2.08251707127670     -0.13973216195250     -0.46104144799004
  H   2.34632039493492      0.71445304748722      0.01416825788209
  H   1.98011474476323      0.06543105685149     -1.44653384695579
