14
Coordinates from ORCA-job run
  C   -0.34980683275140      0.41488999691505     -0.31836311878430
  C   1.14038791288699      0.13606591147705     -0.06517097251500
  F   -0.61681197167128      0.04102062827651     -1.63990522530280
  H   1.70590334639144      0.74891237299774     -0.77277990572836
  H   1.39615488836429      0.48143944098049      0.94063518423371
  C   -1.29183193588000     -0.36020721460441      0.57993826145061
  H   -2.32619009477671     -0.13588367338376      0.31735539291542
  H   -1.12689707520944     -0.09821801362308      1.62704676044724
  H   -1.12469605463726     -1.42891946231665      0.44210768178478
  C   -0.59955240817296      1.86185808012744     -0.20383145962629
  N   -0.78522315266695      3.01342423922612     -0.06957107969625
  N   1.55087506397581     -1.24296137703229     -0.22036669104418
  H   1.16729409693475     -1.83482674886929      0.50337897964943
  H   1.25839421721273     -1.59759418017092     -1.12147380778400
