14
Coordinates from ORCA-job run
  C   -0.45870453082611      0.28434514495732     -0.48964580211601
  C   0.90232227714335     -0.40663320538666     -0.66878342579987
  F   -1.05895602172105      0.33503750512758     -1.74689631942784
  H   1.42789957916778      0.11729307676636     -1.47155802335273
  H   0.70006446589388     -1.42185244442924     -1.02324199900690
  C   -1.39790721803184     -0.44590679055972      0.44922813939886
  H   -2.36641049301982      0.05535521783164      0.46995463993418
  H   -0.99912658502202     -0.47047799396235      1.46423093195221
  H   -1.53616984144120     -1.46750115474254      0.08854016686238
  C   -0.24324270003909      1.66958212236974     -0.03156746996487
  N   -0.05494534607140      2.75380334739856      0.37792989341099
  N   1.75519178876432     -0.46511293556506      0.49794173236842
  H   1.99083827090185      0.45884149778923      0.83586361435601
  H   1.33714635430135     -0.99577338759486      1.24900392138517
