12
Coordinates from ORCA-job run
  C   -0.59771827449896      0.42664853513363     -0.19371999686143
  C   0.57196776162536     -0.47247867076551      0.15006156298289
  Br  -0.60369185637163      0.91460402070324     -2.04243659759181
  H   0.50428551220962     -0.77461111761537      1.19724053609333
  H   -0.58113524735028      1.33272447988808      0.40756589641194
  H   0.63766149945526     -1.33537746098328     -0.51029158347464
  N   -1.85687307220951     -0.32023476519851      0.21731596227371
  O   -2.57939504682774     -0.81616826334893     -0.63174284109674
  O   -2.00012359199396     -0.37742304675439      1.43583096293658
  N   1.85093777418894      0.28962384161506      0.01309900343923
  O   2.77479981557541     -0.27152336948074     -0.56487092430719
  O   1.87928472619749      1.40521581680670      0.52394801919414
