12
Coordinates from ORCA-job run
  C   -0.60984814040295      0.39112072677453     -0.07848950265118
  C   0.62174897075186     -0.46752256871123      0.09706331820036
  Br  -0.79414219743569      1.00307061878512     -1.89483466443930
  H   0.65727378740917     -0.86378578144236      1.11525944591008
  H   -0.60127613266872      1.26361443949192      0.56925775513050
  H   0.67122333615659     -1.27337453763468     -0.62894745135777
  N   -1.82775620861387     -0.41207840622114      0.28672727355462
  O   -2.72897559788293      0.19720022248902      0.85152060330062
  O   -1.82047571720027     -1.60154966857618     -0.01555546184856
  N   1.84053752445729      0.38113355951995     -0.06879385892513
  O   1.86216844589043      1.43632582278233      0.55945183459777
  O   2.72952192953909     -0.05315442725727     -0.79265929147202
