12
Coordinates from ORCA-job run
  C   -0.75108110638481      0.53151904480779      0.15470042001305
  C   0.61126863443364      0.19473482086143      0.71459483510902
  Br  -0.68189381901712      1.96500449696105     -1.11313734660087
  H   0.53317133415797     -0.66642857023033      1.37991700844659
  H   -1.40119758743927      0.84469595134412      0.97307678589066
  H   1.03742109800153      1.04660394295540      1.24038402566842
  N   -1.43271670854883     -0.71707435258531     -0.40070418712719
  O   -1.93234714357175     -0.69613849438969     -1.50932239294534
  O   -1.44780412535293     -1.64385480261439      0.40249159072947
  N   1.58137727276698     -0.18136665227605     -0.35774777686571
  O   2.74024649462477      0.18845187504073     -0.20760034998285
  O   1.14455565632981     -0.86714725987474     -1.27665261233525
