12
Coordinates from ORCA-job run
  C   -0.69356269685750      0.56988717230456      0.25104995206988
  C   0.60123552215282     -0.02962634987314      0.74929634033314
  Br  -0.41935524732658      2.21161409686434     -0.69507670043968
  H   0.40262875652631     -0.99765716430290      1.21174264733473
  H   -1.33601021069895      0.78452147757296      1.10630068417315
  H   1.09510884971103      0.63830751800526      1.45185866502973
  N   -1.48658737908746     -0.45395149104600     -0.55917801566658
  O   -1.92645068895489     -0.15647060635850     -1.65344306099672
  O   -1.64511774330793     -1.51130240734992      0.04170852857459
  N   1.56520996951048     -0.27741053575460     -0.36468934895157
  O   1.09556676742936     -0.73804159754229     -1.40068538839337
  O   2.74633410090330     -0.03887011251977     -0.13988430306731
