12
Coordinates from ORCA-job run
  C   -0.61628128045285      0.34044829381056     -0.18439634666637
  C   0.63066396480846     -0.41318054785684      0.21831270223477
  Br  -0.70052829242236      0.60570077391849     -2.08968901418829
  H   0.75784238624832     -1.33350862773865     -0.34350790631561
  H   -0.68245659799756      1.31490118616135      0.29207043590066
  H   0.61206653150111     -0.61650777767965      1.29217068480166
  N   -1.82756986915328     -0.43915927145386      0.24803497520147
  O   -2.79290438434502      0.22059552000102      0.61550539073599
  O   -1.75198850041685     -1.66281490808482      0.19009911003150
  N   1.82611624316729      0.44899360514740     -0.02783649187500
  O   1.76769996609421      1.59985685024007      0.39723192969753
  O   2.77633983296854     -0.06532509646507     -0.60699546955831
