12
Coordinates from ORCA-job run
  C   -0.74144401030181      0.55237071966844      0.11834324368373
  C   0.59389350540210      0.19604078337868      0.72991836049844
  Br  -0.59584272887086      1.94670980103517     -1.18571520835515
  H   0.47277658180058     -0.65115621810352      1.40668313118867
  H   -1.40832968866658      0.90468429882467      0.90660448242625
  H   1.02269394006749      1.04796394450492      1.25337192967818
  N   -1.43703298715877     -0.69398941245177     -0.42437255811979
  O   -1.88731480401680     -0.69818008796454     -1.55430081321565
  O   -1.51560781191792     -1.59099595877824      0.40852008091294
  N   1.58671789698152     -0.22258126116137     -0.30481742895925
  O   2.74117255406553      0.16065661337026     -0.15339750110281
  O   1.16831755261552     -0.95052322232270     -1.19983771863556
