12
Coordinates from ORCA-job run
  C   -0.74314473159570      0.53067615102209      0.18699409066184
  C   0.62258543687973      0.15663880784256      0.71530526900827
  Br  -0.67437398679978      2.01099030892919     -1.02528355370311
  H   0.54252371282715     -0.73584819479618      1.33778236394855
  H   -1.37944913717682      0.81882595323886      1.02504906237258
  H   1.06175934740055      0.97877336680559      1.27645240879094
  N   -1.44476822020591     -0.68855123655290     -0.40793983648665
  O   -1.94413388127390     -0.62464503165225     -1.51512878845218
  O   -1.47273988467999     -1.64076278567613      0.36451726501232
  N   1.57476120848541     -0.17441448964669     -0.38673238517135
  O   2.72933811371251      0.21697031587841     -0.25908320052444
  O   1.12764202242675     -0.84665316539256     -1.31093269545675
