12
Coordinates from ORCA-job run
  C   -0.64024996620946      0.57310000676115      0.30480758492714
  C   0.73994181385869      0.52087792897505     -0.29384901500064
  Br  -1.54205498378012      2.16514149282670     -0.30707518103557
  H   0.70939714549638      0.45787694565631     -1.37884665237364
  H   -0.64767792264695      0.57231878440940      1.39081358476957
  H   1.32752930307771      1.38784824929176      0.01124634512685
  N   -1.45305506503567     -0.62555035412977     -0.11714014586742
  O   -1.16110191591201     -1.14787039014746     -1.18731333731792
  O   -2.34880664552697     -0.95983757103914      0.64605669688701
  N   1.48268327199139     -0.68946053237771      0.18832348382677
  O   2.53009503410094     -0.94111967299217     -0.39153020125960
  O   1.00329993058609     -1.31032488723413      1.13450683731745
