12
Coordinates from ORCA-job run
  C   -0.74466045354098      0.54282939366206      0.13854973380965
  C   0.60220525899166      0.18701787405988      0.72499323246861
  Br  -0.62863770559232      1.96274059679483     -1.14074484481091
  H   0.49764712739643     -0.67349384734432      1.38754120775547
  H   -1.40295765812557      0.87519833300255      0.94254946234293
  H   1.03025374930704      1.03305793489903      1.25852722527199
  N   -1.43712081204005     -0.69933111598514     -0.41778741796702
  O   -1.90329767675205     -0.68547792823242     -1.54112470201766
  O   -1.49481018949629     -1.61309648349447      0.39821546014735
  N   1.58416886976955     -0.20255393071552     -0.33085229108976
  O   1.15988811051515     -0.91652197981291     -1.23427591318377
  O   2.73732137956743      0.18763115316645     -0.18759115272689
