11

C	0.0	0.0	0.0
C	-0.293755	-0.19641	-1.543235
Br	1.949979	0.0	0.0
H	0.368948	-1.007662	-1.896799
H	-0.341559	-0.809435	0.653247
H	-0.347991	0.98266	0.364794
H	-1.317652	-0.49882	-1.808313
N	-0.003462	1.006518	-2.327176
H	0.969451	1.290547	-2.176146
H	-0.605124	1.768767	-1.996159
Br	-3.189443	0.0	0.0
