14

C	-0.609031	-0.018885	-1.409303
C	0.0	0.0	0.0
Cl	0.040255	1.326512	-2.375698
H	1.09001	0.0	0.0
H	-1.685107	0.154513	-1.310421
C	-0.417594	-1.276443	-2.126448
N	-0.339921	-2.285928	-2.721908
N	-0.484995	-1.300241	0.639276
O	-1.634208	-1.282668	1.097962
O	0.254012	-2.275919	0.62197
N	-0.471188	1.141034	0.70904
H	0.203098	1.394544	1.418823
H	-1.374497	0.958371	1.126509
Cl	3.284858	0.0	0.0
