14

C	-0.547344	0.03106	-1.422849
C	0.0	0.0	0.0
Cl	0.221094	-1.122845	-2.538391
H	1.098902	0.0	0.0
H	-0.283229	1.020541	-1.80287
C	-2.004744	-0.089416	-1.463665
N	-3.175347	-0.155322	-1.521464
N	-0.457212	-1.216787	0.743428
O	-0.8325	-2.191326	0.097889
O	-0.38359	-1.170376	1.968906
N	-0.525696	1.173736	0.691163
H	-0.510903	0.955444	1.682682
H	0.162654	1.90909	0.56251
Cl	3.246909	0.0	0.0
