14

C	-0.425491	-0.015158	-1.470255
C	0.0	0.0	0.0
Cl	-2.208754	-0.205986	-1.624436
H	1.092967	0.0	0.0
H	0.030733	-0.867134	-1.972993
C	-0.039932	1.232074	-2.120637
N	0.252963	2.232665	-2.66012
N	-0.426863	-1.349482	0.555444
O	-1.103759	-1.38897	1.572968
O	-0.059046	-2.327644	-0.092099
N	-0.475484	1.057686	0.800667
H	-1.405135	1.376495	0.568712
H	0.194666	1.812581	0.833767
Cl	3.240304	0.0	0.0
