14

C	-0.435667	-0.012355	-1.463946
C	0.0	0.0	0.0
Cl	-2.230362	-0.1657	-1.599556
H	1.092952	0.0	0.0
H	-0.009	-0.878331	-1.967184
C	-0.035055	1.221957	-2.12733
N	0.258546	2.212388	-2.684356
N	-0.418592	-1.355568	0.562564
O	-1.002291	-1.401848	1.636508
O	-0.116646	-2.329804	-0.127032
N	-0.470733	1.062619	0.794921
H	-1.35855	1.448595	0.514527
H	0.239137	1.767709	0.921038
Cl	3.222547	0.0	0.0
