14

C	-0.576194	-0.053332	-1.412181
C	0.0	0.0	0.0
Cl	-0.274757	1.509231	-2.237052
H	1.097506	0.0	0.0
H	-1.659364	-0.167761	-1.350814
C	-0.012999	-1.123222	-2.230554
N	0.38913	-1.970133	-2.936719
N	-0.447672	-1.225859	0.740259
O	-0.236072	-1.237977	1.949229
O	-0.990433	-2.135764	0.109991
N	-0.561356	1.128428	0.734859
H	-0.254467	1.001827	1.69551
H	-0.07216	1.953139	0.40299
Cl	3.256028	0.0	0.0
