14

C	-0.541875	0.060833	-1.43093
C	0.0	0.0	0.0
Cl	0.205574	-1.041334	-2.609424
H	1.098964	0.0	0.0
H	-0.292137	1.068949	-1.761879
C	-1.998626	-0.07904	-1.442378
N	-3.16934	-0.175002	-1.427502
N	-0.437897	-1.281298	0.692776
O	-0.507246	-2.304312	0.019784
O	-0.668012	-1.212467	1.898438
N	-0.43823	1.166786	0.698988
H	-1.334573	1.018167	1.146315
H	0.240924	1.388686	1.415251
Cl	3.2333	0.0	0.0
