14

C	-0.554324	0.007828	-1.434977
C	0.0	0.0	0.0
Cl	-0.010311	1.474773	-2.291572
H	1.089862	0.0	0.0
H	-1.645716	0.05503	-1.384636
C	-0.185397	-1.182077	-2.197668
N	0.085829	-2.12471	-2.844329
N	-0.542326	-1.278474	0.599888
O	0.23579	-2.13297	1.000791
O	-1.775206	-1.353662	0.6427
N	-0.452568	1.080895	0.812184
H	-1.335462	1.47246	0.5156
H	0.264438	1.790451	0.859881
Cl	3.295433	0.0	0.0
