14

C	-0.548379	0.010532	-1.435519
C	0.0	0.0	0.0
Cl	-0.00552	1.488664	-2.275934
H	1.089618	0.0	0.0
H	-1.639378	0.046862	-1.398667
C	-0.163116	-1.1714	-2.200865
N	0.09675	-2.132463	-2.824176
N	-0.531062	-1.272006	0.621208
O	-1.743169	-1.470486	0.47556
O	0.230617	-1.985116	1.257354
N	-0.453576	1.082679	0.81345
H	0.266039	1.789047	0.868496
H	-1.327245	1.480487	0.501092
Cl	3.294047	0.0	0.0
