14

C	-0.535412	-0.022635	-1.431701
C	0.0	0.0	0.0
Cl	0.22593	-1.19622	-2.530994
H	1.101933	0.0	0.0
H	-0.281215	0.960827	-1.824817
C	-1.991036	-0.16312	-1.448779
N	-3.163397	-0.231344	-1.41899
N	-0.419747	-1.239478	0.771043
O	-0.464325	-1.130661	1.9943
O	-0.650454	-2.270963	0.144598
N	-0.442274	1.201122	0.635952
H	-1.357501	1.090812	1.052916
H	0.215416	1.449896	1.362254
Cl	3.240601	0.0	0.0
