12

C	0.0	0.0	0.0
C	-0.482081	0.341788	-1.389514
Br	1.94614	0.0	0.0
H	-0.214852	1.377777	-1.602531
H	-0.00356	-0.31944	-2.110947
H	-1.567031	0.22419	-1.391307
C	-0.433206	0.918332	1.04183
N	-0.679081	1.695799	1.887658
N	-0.392087	-1.432457	0.396191
O	-0.497375	-2.232009	-0.521242
O	-0.47974	-1.666541	1.591734
Cl	-3.420704	0.0	0.0
