14

C	-0.574457	-0.025036	-1.381352
C	0.0	0.0	0.0
F	-0.139955	1.094395	-2.043981
H	1.089765	0.0	0.0
H	-0.295172	0.937453	0.476889
N	-0.079532	-1.195979	-2.240839
O	-0.70152	-1.355923	-3.290274
O	0.90793	-1.805527	-1.869247
C	-2.047465	-0.032379	-1.43932
N	-3.218731	0.05649	-1.427424
N	-0.535782	-1.089534	0.805448
O	-0.415229	-1.011135	2.026242
O	-1.05048	-2.049999	0.21434
F	2.46583	0.0	0.0
