14

C	-0.431418	0.058835	-1.42861
C	0.0	0.0	0.0
F	0.019047	-0.973771	-2.172728
H	1.088991	0.0	0.0
H	-0.305587	0.898051	0.534358
N	-1.974051	0.086838	-1.596752
O	-2.473513	-0.635025	-2.443186
O	-2.555057	0.883746	-0.869119
C	0.021595	1.324596	-2.032016
N	0.355656	2.342796	-2.513221
N	-0.569944	-1.146328	0.706518
O	-0.317886	-1.235058	1.905122
O	-1.251901	-1.959746	0.071741
F	2.473132	0.0	0.0
