14

C	-0.570037	-0.089896	-1.376276
C	0.0	0.0	0.0
F	-1.934257	-0.229224	-1.389163
H	1.089918	0.0	0.0
H	-0.307514	-0.889631	0.551902
N	-0.251038	1.138466	-2.255189
O	-1.195373	1.719339	-2.762538
O	0.936263	1.37324	-2.39168
C	0.016178	-1.237101	-2.083665
N	0.435898	-2.164021	-2.66811
N	-0.520355	1.150069	0.735507
O	-0.653968	1.027423	1.952431
O	-0.739666	2.191829	0.112623
F	2.46061	0.0	0.0
