14

C	-0.421667	0.131284	-1.43443
C	0.0	0.0	0.0
F	0.207386	1.126727	-2.088768
H	1.102464	0.0	0.0
H	-0.344386	-0.941395	0.421355
N	-0.004929	-1.190353	-2.123156
O	0.769774	-1.11266	-3.06051
O	-0.520084	-2.204069	-1.667094
C	-1.873854	0.241334	-1.669567
N	-3.032906	0.292512	-1.855555
N	-0.533403	1.081149	0.818139
O	-0.912533	2.117126	0.259505
O	-0.531982	0.909044	2.037209
F	2.464306	0.0	0.0
