14

C	-0.584725	0.003359	-1.372943
C	0.0	0.0	0.0
F	-1.954278	-0.079886	-1.379909
H	1.101448	0.0	0.0
H	-0.313023	-0.91717	0.500973
N	-0.222719	1.261574	-2.191438
O	-1.144894	1.929938	-2.628228
O	0.972913	1.433566	-2.35773
C	-0.055406	-1.131787	-2.143512
N	0.279996	-2.066681	-2.769773
N	-0.497728	1.111575	0.805938
O	-0.682331	2.19803	0.249814
O	-0.643247	0.914677	2.012463
F	2.458364	0.0	0.0
