14

C	-0.592258	-0.082294	-1.371442
C	0.0	0.0	0.0
F	-0.158859	1.001745	-2.092876
H	1.106642	0.0	0.0
H	-0.289049	0.95524	0.442451
N	-0.125195	-1.295564	-2.184013
O	0.967408	-1.763156	-1.916974
O	-0.871266	-1.629356	-3.103401
C	-2.066766	-0.075578	-1.397409
N	-3.235695	0.039425	-1.363197
N	-0.522974	-1.058106	0.845889
O	-0.450855	-0.910506	2.064203
O	-0.969287	-2.07328	0.289764
F	2.458899	0.0	0.0
