15

C	-0.510803	0.009444	-1.412299
C	0.0	0.0	0.0
F	0.042466	1.03564	-2.062912
H	1.091523	0.0	0.0
H	-0.356619	0.896617	0.50538
N	-0.215418	-1.248354	-2.227511
O	-1.16777	-1.960393	-2.515417
O	0.953419	-1.380531	-2.54618
N	-2.02152	0.193381	-1.503184
O	-2.452098	0.738547	-2.510988
O	-2.668577	-0.222123	-0.54981
N	-0.447481	-1.164648	0.7926
O	-0.773051	-0.952608	1.955824
O	-0.404017	-2.264205	0.246056
Br	3.373254	0.0	0.0
