15

C	-0.531832	-0.018985	-1.404838
C	0.0	0.0	0.0
F	0.047994	-1.01603	-2.080632
H	1.091353	0.0	0.0
H	-0.346093	-0.89937	0.508642
N	-2.038441	-0.260308	-1.456215
O	-2.684699	0.140102	-0.494832
O	-2.466445	-0.820348	-2.456162
N	-0.307855	1.258939	-2.216326
O	0.849244	1.44879	-2.545401
O	-1.293999	1.935667	-2.481293
N	-0.449707	1.156209	0.804247
O	-0.438444	2.2578	0.259899
O	-0.741156	0.937454	1.975347
Br	3.371129	0.0	0.0
