14

C	-0.50625	0.074624	-1.417118
C	0.0	0.0	0.0
Cl	0.385719	-1.048924	-2.474875
H	1.089726	0.0	0.0
H	-0.318082	0.895552	0.54324
N	-1.894727	-0.168479	-1.574185
H	-2.190023	0.058891	-2.515367
H	-2.420005	0.364998	-0.892316
N	-0.166007	1.492418	-1.989806
O	0.50484	2.26393	-1.318551
O	-0.660567	1.746774	-3.088634
C	-0.510937	-1.181248	0.665903
N	-0.894159	-2.126474	1.250881
F	2.520145	0.0	0.0
