14

C	-0.070826	-0.00438	-1.523179
C	0.0	0.0	0.0
Cl	-0.12669	1.819324	-2.069472
H	1.093964	0.0	0.0
H	-0.455308	0.876328	0.451061
N	0.99196	-0.716838	-2.01188
H	1.09586	-0.696806	-3.013981
H	1.849062	-0.520803	-1.435911
N	-1.387757	-0.488883	-2.131045
O	-2.404494	-0.333145	-1.464872
O	-1.333445	-0.976719	-3.256109
C	-0.499406	-1.233359	0.575819
N	-0.885463	-2.226845	1.070067
F	2.639167	0.0	0.0
