14

C	-0.116138	-0.071056	-1.517802
C	0.0	0.0	0.0
Cl	-0.289138	1.646158	-2.232717
H	1.094364	0.0	0.0
H	-0.329815	-0.957459	0.408023
N	0.971086	-0.785434	-1.984762
H	1.071515	-0.77204	-2.988143
H	1.827649	-0.543587	-1.429084
N	-1.411361	-0.72008	-2.026084
O	-1.410151	-1.120098	-3.186172
O	-2.353466	-0.79884	-1.244099
C	-0.656216	1.093013	0.674047
N	-1.15991	1.979244	1.257465
F	2.640001	0.0	0.0
