14

C	-0.109016	-0.062874	-1.531939
C	0.0	0.0	0.0
Cl	-0.003893	1.567295	-2.218659
H	1.092989	0.0	0.0
H	-0.315433	-0.971626	0.39352
N	0.932185	-0.874714	-2.086222
H	1.778718	-0.600872	-1.544383
H	0.723269	-1.834966	-1.829633
N	-1.464363	-0.676149	-1.930339
O	-1.536937	-1.896238	-1.780979
O	-2.388261	0.046017	-2.280474
C	-0.683159	1.075824	0.674743
N	-1.239242	1.932387	1.257158
F	2.601044	0.0	0.0
