14

C	-0.130775	-0.178725	-1.511243
C	0.0	0.0	0.0
Cl	-0.531014	1.463845	-2.350084
H	1.092404	0.0	0.0
H	-0.326493	-0.925335	0.479523
N	1.007908	-0.798061	-1.95055
H	1.079624	-0.944846	-2.943821
H	1.86118	-0.521549	-1.400457
N	-1.364357	-0.98414	-1.945707
O	-1.292793	-1.560259	-3.025911
O	-2.329883	-0.996985	-1.190477
C	-0.642467	1.137562	0.613136
N	-1.114328	2.05841	1.169509
F	2.656182	0.0	0.0
