18

C	-0.348866	0.029066	-1.496693
C	0.0	0.0	0.0
F	-0.026413	-1.222372	-2.043942
H	1.097524	0.0	0.0
C	-1.806659	0.187148	-1.705467
N	-2.965607	0.336997	-1.830101
C	0.453001	1.07014	-2.25322
H	0.123871	2.079603	-2.001544
H	1.500207	0.943261	-1.957425
H	0.333848	0.915163	-3.328341
N	-0.471915	-1.197886	0.678698
H	-1.434213	-1.398615	0.425081
H	0.10017	-1.974976	0.371633
C	-0.493245	1.240242	0.723896
H	-0.137687	1.179616	1.753733
H	-0.092402	2.156393	0.283813
H	-1.588455	1.30196	0.738063
H	2.976962	0.0	0.0
