15

C	0.0	0.0	0.0
C	-0.364175	-0.007644	-1.48129
Cl	1.762525	0.0	0.0
H	0.46572	-0.494172	-2.011644
H	-0.370175	0.851342	0.543266
N	-0.43805	-1.239235	0.725287
O	-0.381438	-2.288918	0.08536
O	-0.684927	-1.140001	1.918091
C	-0.431623	1.454196	-1.93244
H	-1.264428	1.927027	-1.415171
H	-0.599294	1.519042	-3.011646
H	0.495922	1.971808	-1.681984
C	-1.558407	-0.746095	-1.902657
N	-2.297832	-1.370471	-2.57347
F	-2.312764	0.0	0.0
