15

C	0.0	0.0	0.0
C	-0.244902	-0.031119	-1.558869
Cl	1.754178	0.0	0.0
H	0.304196	0.865637	-1.878452
H	-0.421849	0.871518	0.476122
N	-0.485825	-1.192918	0.749268
O	-0.640641	-2.237492	0.130971
O	-0.55368	-1.058113	1.965661
C	-1.605851	0.03189	-2.257449
H	-2.190099	-0.854461	-2.041961
H	-2.175137	0.875123	-1.887639
H	-1.396486	0.115048	-3.334282
C	0.494633	-1.147389	-2.179398
N	1.01647	-2.00303	-2.79233
F	-2.388229	0.0	0.0
