15

C	0.0	0.0	0.0
C	-0.329574	-0.042663	-1.51229
Cl	1.762502	0.0	0.0
H	0.45224	-0.660633	-1.974415
H	-0.384373	0.858569	0.526288
N	-0.424019	-1.226567	0.745016
O	-0.500727	-2.269521	0.107264
O	-0.518969	-1.112417	1.961483
C	-0.198656	1.378794	-2.075615
H	-0.337199	1.365328	-3.158039
H	-0.966226	2.009854	-1.62506
H	0.791102	1.79005	-1.864942
C	-1.57334	-0.672232	-1.996417
N	-2.339433	-1.390491	-2.519432
F	-2.279802	0.0	0.0
