15

C	0.0	0.0	0.0
C	-0.248588	-0.103083	-1.551978
Cl	1.754299	0.0	0.0
H	0.330241	0.756322	-1.917769
H	-0.419313	0.895596	0.432868
N	-0.491664	-1.148451	0.815093
O	-0.63746	-2.228701	0.260485
O	-0.578965	-0.937772	2.019316
C	-1.606771	-0.019889	-2.249709
H	-2.224969	-0.870863	-1.99431
H	-1.399113	0.014837	-3.329409
H	-2.143579	0.858824	-1.913568
C	0.454834	-1.271642	-2.116834
N	0.947512	-2.176849	-2.680532
F	-2.405217	0.0	0.0
