18

C	-0.501646	0.034908	-1.444993
C	0.0	0.0	0.0
Cl	0.457219	-1.049469	-2.533272
H	1.092396	0.0	0.0
C	-1.980891	-0.316872	-1.61094
H	-2.584661	0.351441	-0.991878
H	-2.133463	-1.347466	-1.30072
H	-2.277714	-0.2009	-2.655938
C	-0.296611	1.381768	-1.996831
N	-0.223641	2.453052	-2.477509
N	-0.394791	-1.200464	0.686807
O	-0.521514	-2.255617	0.032737
O	-0.426759	-1.171657	1.933152
C	-0.340611	1.233395	0.814655
H	0.042427	2.120205	0.311204
H	0.175104	1.144795	1.769906
H	-1.413923	1.34943	1.001378
H	2.436055	0.0	0.0
