18

C	-0.481833	0.04775	-1.455261
C	0.0	0.0	0.0
Cl	0.210941	-1.288371	-2.446916
H	1.090947	0.0	0.0
C	-2.002273	-0.011435	-1.600618
H	-2.276848	0.024626	-2.656751
H	-2.459812	0.836019	-1.085979
H	-2.377975	-0.938729	-1.164762
C	-0.003887	1.296465	-2.065351
N	0.242004	2.302582	-2.621882
N	-0.491284	-1.222547	0.652559
O	0.064533	-2.287417	0.363924
O	-1.411823	-1.12765	1.484675
C	-0.411982	1.227206	0.790504
H	-0.003262	1.124721	1.797779
H	0.05573	2.105954	0.341318
H	-1.49005	1.371505	0.871155
H	2.632149	0.0	0.0
