18

C	-0.411218	-0.05231	-1.484123
C	0.0	0.0	0.0
Cl	0.096027	1.519939	-2.238164
H	1.09093	0.0	0.0
C	0.266342	-1.151218	-2.288917
H	1.332602	-1.113371	-2.059215
H	-0.123627	-2.124163	-2.009165
H	0.089831	-0.974963	-3.350503
C	-1.869868	-0.110185	-1.619122
N	-3.039263	-0.188124	-1.714544
N	-0.39512	-1.25317	0.671708
O	-1.149218	-1.209348	1.654712
O	0.124535	-2.29855	0.261876
C	-0.530034	1.197255	0.757918
H	-0.062713	2.100257	0.361399
H	-1.620061	1.288295	0.708878
H	-0.2405	1.099339	1.804019
H	2.622015	0.0	0.0
