18

C	-0.376286	0.017139	-1.464497
C	0.0	0.0	0.0
Cl	-2.194223	0.050148	-1.70722
H	1.093703	0.0	0.0
C	0.21466	1.264007	-2.122804
H	1.28221	1.28538	-1.872189
H	0.080337	1.213921	-3.203536
H	-0.276286	2.161036	-1.745446
C	0.117187	-1.141022	-2.221198
N	0.530679	-1.949799	-2.967147
N	-0.433355	-1.217742	0.680697
O	-0.665343	-2.226024	-0.001585
O	-0.441473	-1.214796	1.919667
C	-0.384111	1.239674	0.776996
H	-1.449467	1.475576	0.699278
H	-0.125165	1.076156	1.821153
H	0.212539	2.08249	0.423586
H	2.537387	0.0	0.0
