17

C	-0.523174	0.016667	-1.419823
C	0.0	0.0	0.0
F	-1.905601	0.34255	-1.423555
H	1.092409	0.0	0.0
N	0.034997	1.169602	-2.261497
O	-0.236658	1.110206	-3.460376
O	0.662643	2.067186	-1.718209
N	-0.249846	-1.145193	-2.135301
H	-0.423402	-1.984187	-1.605708
H	-0.699367	-1.144594	-3.037864
C	-0.428274	-1.256895	0.597447
N	-0.763133	-2.273106	1.087331
C	-0.469929	1.15981	0.881061
H	-1.555423	1.178737	0.997397
H	-0.003428	1.043182	1.86176
H	-0.124293	2.101775	0.461642
H	2.679306	0.0	0.0
