17

C	-0.304354	-0.090865	-1.492939
C	0.0	0.0	0.0
F	-1.59886	-0.46714	-1.736779
H	1.095202	0.0	0.0
N	-0.171891	1.320124	-2.076533
O	-1.186908	2.012211	-2.096625
O	0.946923	1.666278	-2.432204
N	0.575479	-0.938578	-2.218898
H	0.353109	-1.891427	-1.948288
H	1.523149	-0.739847	-1.872075
C	-0.436608	-1.244922	0.607213
N	-0.779862	-2.248949	1.114894
C	-0.524471	1.220829	0.745317
H	-0.292319	1.112772	1.807067
H	-0.004534	2.112247	0.388283
H	-1.600881	1.359141	0.623906
H	2.697318	0.0	0.0
