17

C	-0.495747	-0.029742	-1.425402
C	0.0	0.0	0.0
F	0.074418	1.032267	-2.106664
H	1.092339	0.0	0.0
N	-0.001914	-1.256165	-2.196909
O	-0.247566	-1.235305	-3.404161
O	0.552176	-2.156928	-1.585084
N	-1.900438	-0.054071	-1.573178
H	-2.147869	0.092685	-2.54481
H	-2.326573	0.650699	-0.987543
C	-0.527207	-1.105398	0.779629
N	-0.941918	-1.94807	1.488895
C	-0.345117	1.332524	0.678755
H	-1.409634	1.452244	0.906287
H	1.7e-05	2.155866	0.051493
H	0.21546	1.377299	1.61452
H	2.689456	0.0	0.0
