17

C	-0.515719	-0.042997	-1.416448
C	0.0	0.0	0.0
F	0.079916	0.984206	-2.133879
H	1.09241	0.0	0.0
N	-0.068051	-1.303618	-2.160804
O	0.556446	-2.160397	-1.55906
O	-0.404878	-1.344784	-3.343085
N	-1.920949	-0.02694	-1.544464
H	-2.313825	0.725666	-0.999167
H	-2.177283	0.065859	-2.519717
C	-0.520737	-1.104859	0.784523
N	-0.944752	-1.947485	1.484407
C	-0.345874	1.334177	0.673767
H	0.241677	1.39612	1.591499
H	-1.405169	1.442676	0.928522
H	-0.030352	2.155316	0.029761
H	2.696471	0.0	0.0
