17

C	-0.501242	0.002443	-1.425881
C	0.0	0.0	0.0
F	-0.077184	1.122942	-2.07277
H	1.092415	0.0	0.0
N	0.140499	-1.152367	-2.241171
O	0.614832	-2.102881	-1.635112
O	0.029927	-1.053616	-3.46357
N	-1.912504	-0.067735	-1.557765
H	-2.165561	-0.19611	-2.530876
H	-2.288214	-0.816226	-0.989506
C	-0.539704	-1.136487	0.722639
N	-1.03193	-2.008006	1.341986
C	-0.381945	1.306295	0.704681
H	0.081584	2.135935	0.169977
H	-1.461736	1.459904	0.761308
H	0.042232	1.284417	1.710719
H	2.693159	0.0	0.0
