17

C	-0.524718	0.039457	-1.431816
C	0.0	0.0	0.0
F	-0.2617	1.261793	-1.95783
H	1.095161	0.0	0.0
N	0.237403	-0.980753	-2.275235
O	-0.022481	-2.152636	-2.014325
O	1.007166	-0.575481	-3.131624
N	-1.910585	-0.253319	-1.678429
H	-2.465886	0.386236	-1.121252
H	-2.091838	-1.195342	-1.352369
C	-0.509546	-1.171596	0.686987
N	-0.941373	-2.094124	1.277331
C	-0.370054	1.272644	0.76677
H	0.031427	1.188191	1.778639
H	0.114898	2.123823	0.28926
H	-1.449245	1.449145	0.832357
H	2.669429	0.0	0.0
