14
Coordinates from ORCA-job run
  C   -0.87840347632551      0.10292051445729      0.52869718314721
  C   0.23915282750958      0.32565506293908     -0.47195387420934
  F   -0.45764391804868      0.25755513209834      1.79454824046522
  H   -0.13648240601500      0.39791029983457     -1.48944404873633
  H   -1.69697787033713      0.79622865590649      0.32323652136383
  N   -1.44095495538069     -1.28806787019292      0.33100483283728
  O   -1.61875694698768     -1.58955562491134     -0.84518454250571
  O   -1.70792685012997     -1.94010486783189      1.32322238570608
  N   1.28774589041676     -0.73760052005545     -0.45371246047362
  O   1.30489277261427     -1.50009313411609      0.50661190635412
  O   2.04799042420927     -0.72375175598601     -1.41414667648435
  N   0.88444637610820      1.64670368063722     -0.12928227305064
  O   0.15062831287778      2.60990384017132     -0.31310412812037
  O   2.02328981948881      1.64029658704942      0.30950693370661
