14
Coordinates from ORCA-job run
  C   -0.93602161078799      0.07820346309699      0.34407065408819
  C   0.55120499868999      0.21899721594136      0.11645537225095
  F   -1.28565070921543      0.90142431914265      1.36858230564310
  H   1.14035806553755     -0.05107045567315      0.98860554204814
  H   -1.52937337320364      0.29786812360734     -0.53973143448801
  N   -1.25964309976587     -1.32715863263223      0.77455392713255
  O   -0.36465398481679     -1.96345586449310      1.32513913918680
  O   -2.41497259921012     -1.68463730570278      0.58256862367074
  N   0.84551449500578      1.64545483396258     -0.24068127501072
  O   0.25328295761265      2.07259250907618     -1.22738581192803
  O   1.63827443262783      2.24263028269427      0.47579404230517
  N   1.00649161926796     -0.61462799365239     -1.04145077555503
  O   2.20807395104686     -0.58044159363731     -1.27085570457843
  O   0.14511485721123     -1.23677890173041     -1.65566460476542
