14
Coordinates from ORCA-job run
  C   -0.96773876689667      0.17342237832406      0.18269583710976
  C   0.54283364592729      0.15515396000230      0.21590581706327
  F   -1.40101007575450      1.01191535480040      1.16190074834541
  H   0.94145359961385     -0.19470594635987      1.16429253844522
  H   -1.37348342594472      0.47188812979254     -0.78051083211328
  N   -1.50597904097530     -1.19548647029152      0.50140314317431
  O   -2.64077997041674     -1.42230770582184      0.10125635104582
  O   -0.79210337702103     -1.93386938044151      1.17527053146142
  N   1.04169534578258      1.54731864753616     -0.03260242765161
  O   1.75432838551351      2.04208983711651      0.83089766390187
  O   0.67836781479147      2.05387305174977     -1.09003087132119
  N   1.10164141521401     -0.70098371773894     -0.87869568574993
  O   2.32193728273525     -0.78915569038654     -0.90291253916001
  O   0.29883716743103     -1.21915244828153     -1.64887027455106
