14
Coordinates from ORCA-job run
  C   -0.95564012137141      0.09504781300997      0.27805973284370
  C   0.54336434830659      0.22509172670271      0.13983075365094
  F   -1.36893773364620      0.97166511146947      1.23230764837912
  H   1.07484749089450      0.00119815468093      1.06073386963577
  H   -1.49051587792342      0.26622880636554     -0.65256276220991
  N   -1.31011924963653     -1.28558564603698      0.76170685587742
  O   -2.45286896395276     -1.65191875054681      0.51833367119021
  O   -0.45289218421227     -1.89245134755905      1.39870076667741
  N   0.86329924764848      1.63147981696383     -0.27154880869861
  O   0.33912244238343      2.00473575056518     -1.31679895400342
  O   1.60709349259610      2.26711241386662      0.46399280274000
  N   1.07023472567210     -0.66715581611582     -0.94185111550781
  O   0.24906712251645     -1.32365064942746     -1.57488913739726
  O   2.28394526072493     -0.64179738393814     -1.09601532317755
