14
Coordinates from ORCA-job run
  C   -0.87655497345064      0.17349857878449      0.44914847976794
  C   0.58801792151198      0.11554992356959      0.08194913103334
  F   -0.99715629711964      0.89919054088981      1.59293217843249
  H   1.20015366919815     -0.35132930062946      0.84866983149072
  H   -1.50008543486263      0.59419753688527     -0.33548125162621
  N   -1.38763705613397     -1.21069955343281      0.74649455279758
  O   -2.60024469604932     -1.35470230833678      0.65658893524958
  O   -0.56231133004118     -2.04789964242752      1.10283654505490
  N   1.07894232667927      1.51587939083440     -0.13866336955792
  O   0.48106755475796      2.15228074710460     -1.00129564954323
  O   2.01719126309288      1.88804393767433      0.55374786414539
  N   0.79795235714535     -0.61909883658306     -1.20617177956222
  O   -0.20434930675616     -1.00730213273055     -1.79853481209253
  O   1.96501400202794     -0.74760888160227     -1.55122065558982
