14
Coordinates from ORCA-job run
  C   -0.61173245374189     -0.17290026158119      0.93890964134803
  C   0.66822047094691      0.27114525895643      0.25605734347128
  F   -0.30861234283402     -1.15409044416630      1.81430473713125
  H   1.38574530586147      0.58152050454962      1.01594264678482
  H   -1.06806864689973      0.67267715778963      1.45584023048224
  N   -1.65211271334605     -0.66919563143694     -0.04115436516031
  O   -1.87697662733758      0.11553789772299     -0.95421174296248
  O   -2.19149257756164     -1.73479142034242      0.18987541233770
  N   0.44714572625216      1.47100843607685     -0.63142344809724
  O   0.73938485396435      1.37646720420077     -1.81131598253472
  O   0.00865595179943      2.44441881632950     -0.03467298253146
  N   1.32301528750816     -0.81268304880388     -0.53646033149887
  O   0.59510659246506     -1.66110105750117     -1.03936627665924
  O   2.54272117292333     -0.72801341179396     -0.62232488211095
