14
Coordinates from ORCA-job run
  C   -0.45338004873163     -0.11154150763067      1.03362425204728
  C   0.67801324968504      0.33146832711413      0.12510119283910
  F   0.04234224223192     -0.98095423843305      1.93860409668228
  H   1.47706010242211      0.75494493200351      0.73404038275903
  H   -0.88669279591093      0.75552536727420      1.53455231658229
  N   -1.58919732274850     -0.76102236595639      0.27360339866179
  O   -2.01479189412108     -1.82457499887933      0.68284179823868
  O   -1.99855956812816     -0.08738017487078     -0.66374695245722
  N   0.24581776952139      1.42328781626532     -0.82260392551609
  O   -0.16720317210346      2.42522173664138     -0.25558738358290
  O   0.36713371469966      1.22840308831813     -2.01993228212305
  N   1.28232054538975     -0.78817052524407     -0.65796575706830
  O   2.46507507104924     -0.64133293276963     -0.94378947460563
  O   0.55106210674466     -1.72487452383276     -0.95874166245727
