14
Coordinates from ORCA-job run
  C   -0.91521122628900      0.22130581364237      0.42091395214711
  C   0.30627514018890      0.25351193106934     -0.47764383297772
  F   -0.60694381012318      0.49667636801467      1.69851498273361
  H   0.03565526590216      0.23244200733299     -1.53023235658298
  H   -1.65662353825467      0.93560395423681      0.05639811962010
  N   -1.55776014514703     -1.14523906640744      0.32110897168403
  O   -1.96282269081865     -1.66038857970076      1.34651758111454
  O   -1.64678152046622     -1.56915358096002     -0.82713750824679
  N   1.26327469590306     -0.86734368458359     -0.23654640833464
  O   1.13768631044856     -1.50544746594611      0.80314590818377
  O   2.10276060749910     -1.02237489663263     -1.11516040877465
  N   1.01629835699289      1.55975726451333     -0.21595578965365
  O   0.37519664330345      2.54195520829396     -0.56862008096520
  O   2.10999591086059      1.52869472712708      0.32469687005243
