14
Coordinates from ORCA-job run
  C   -0.72957827133185     -0.03633960175028      0.69004098538442
  C   0.25828773747308      0.32956124243351     -0.40092048379023
  F   -0.10156965148040     -0.53994500189015      1.76478411515122
  H   -0.20941141005105      0.36181725307042     -1.38295340953465
  H   -1.34133364182034      0.82063351556682      0.97357490975559
  N   -1.69673271836585     -1.07103104245721      0.13746371139585
  O   -1.80624362928285     -2.12604965078430      0.73618595703733
  O   -2.30463645242619     -0.69749221055118     -0.85826636045845
  N   1.33739518252748     -0.72506130773373     -0.44342830237185
  O   2.47139441987011     -0.41206399184210     -0.11993652402261
  O   0.92280004463125     -1.82336603852119     -0.78986232136766
  N   0.90259959484090      1.65556976514702     -0.15546610869715
  O   1.46540148872010      2.14248383685865     -1.12917795867721
  O   0.83062730669556      2.12228323245374      0.97696179019537
