14
Coordinates from ORCA-job run
  C   -0.66130051869709      0.05062003287934      0.80796559148002
  C   0.18914944088014      0.39838533738616     -0.39973200323140
  F   0.07327199861764     -0.31275130392826      1.86698922957936
  H   -0.44214739533755      0.70415666018341     -1.23337339595800
  H   -1.31912738585438      0.88081486819877      1.06254544531175
  N   -1.55936698333654     -1.09792587177696      0.38436172679268
  O   -1.40341722662897     -2.17822265977442      0.93015357219106
  O   -2.36846206450796     -0.79719104363775     -0.48642674846959
  N   1.00358914898816     -0.77255477287832     -0.84979817400044
  O   0.72468326371801     -1.21881880756341     -1.95991398804004
  O   1.84018102968570     -1.19252160501845     -0.06005802359070
  N   1.10506235734296      1.55437830782674     -0.08158423437299
  O   0.61918323133183      2.41419544738489      0.64298931442286
  O   2.19870110379806      1.56543541071823     -0.62411831211460
