14
Coordinates from ORCA-job run
  C   -0.85827719638838      0.12271619429415      0.55806608604691
  C   0.24952452541461      0.34217127448188     -0.45442429884575
  F   -0.40128513026628      0.16279639416726      1.82003694917626
  H   -0.14324920377998      0.50956893790232     -1.45407093290079
  H   -1.63393029754088      0.87927966537887      0.42053171059893
  N   -1.51406404083464     -1.21280338112036      0.28189734023635
  O   -1.80021984996372     -1.91439395027290      1.23416639913400
  O   -1.73765012739690     -1.41989474535389     -0.90691340459183
  N   1.22557330378475     -0.78491560171975     -0.53637092262106
  O   1.95819653775327     -0.75782407509937     -1.51784245578941
  O   1.21370503339892     -1.61175449993433      0.36923332677757
  N   0.98836965254571      1.59171866839056     -0.03992701335896
  O   0.31637105482375      2.61091691565400     -0.13799041820538
  O   2.13493573844980      1.48141820323158      0.36360763434317
