14
Coordinates from ORCA-job run
  C   -0.62778995016362      0.03982535326309      0.81647269747740
  C   0.11019927440683      0.40621275120949     -0.45679040808014
  F   0.20940295636408     -0.11892443323299      1.85435937903625
  H   -0.57012702268783      0.72720006131499     -1.24145607537472
  H   -1.36320102565888      0.81323317760459      1.04873764022512
  N   -1.41143215287264     -1.23265704633539      0.57774355020607
  O   -2.01203230064791     -1.25314212554003     -0.49223764850362
  O   -1.41945399214437     -2.07000881533694      1.46078496647847
  N   0.94614745192027     -0.70061789918377     -1.01062180192690
  O   1.17742385681959     -1.65700310686490     -0.27874025908711
  O   1.33484074154520     -0.52335415481484     -2.15874384445811
  N   1.00977355034451      1.57305153669350     -0.12816252985683
  O   2.21725243887672      1.39570399081179     -0.13494932122899
  O   0.39799617389804      2.59848071041140      0.14460365509314
