14
Coordinates from ORCA-job run
  C   -0.94679071888419      0.17340555242167      0.27297924717265
  C   0.55971956739103      0.16659269881363      0.15735697015833
  F   -1.28996899376563      1.03788774307205      1.26523915027113
  H   1.05390387186363     -0.14721516024244      1.07271062904868
  H   -1.44844939352492      0.43984572024176     -0.65370399532103
  N   -1.43706989027759     -1.18926306796713      0.68308816028548
  O   -2.60559574214114     -1.43331241000974      0.41050419028620
  O   -0.65016643315575     -1.90517007344427      1.29738214347326
  N   1.01756863644542      1.55306390629948     -0.18610526988593
  O   1.81077866243609      2.07975283085997      0.58316241270995
  O   0.54316955786165      2.02263707932811     -1.21622330868282
  N   1.01645821991175     -0.72268555307957     -0.95785910059010
  O   0.14684178380602     -1.25869063649073     -1.63805205940531
  O   2.22960087203359     -0.81584862980274     -1.08947916952047
