14
Coordinates from ORCA-job run
  C   -0.92635139982404      0.05332562234795      0.37246038217727
  C   0.55189720778333      0.22157991503512      0.10870250620780
  F   -1.25743619964191      0.83565929638302      1.43444596175417
  H   1.16949884384550     -0.07176101672894      0.95320412000373
  H   -1.54721423770413      0.29528187183232     -0.48626526314777
  N   -1.22072893416455     -1.37049127298632      0.76247489255482
  O   -2.37955140047419     -1.73152853280719      0.60065062486605
  O   -0.30038402075668     -2.01812391530336      1.25471521241670
  N   0.81842031291725      1.66384845607348     -0.20415423542905
  O   0.19444998542190      2.11845117877029     -1.15842192064927
  O   1.62281812879323      2.24535688902437      0.51235708312568
  N   0.98392303096110     -0.56338340817238     -1.09143730465110
  O   0.11261734468802     -1.17317953131311     -1.70403808159461
  O   2.17804133815517     -0.50603555215528     -1.35269397763441
