14
Coordinates from ORCA-job run
  C   -0.80982383627529      0.11064028135793      0.65132227564836
  C   0.56995400604958      0.19914717410680      0.03385509829440
  F   -0.75713568366264      0.66038625494772      1.88212728796088
  H   1.32971616554915     -0.23525019417528      0.68150749033498
  H   -1.58129102584041      0.57810985316313      0.04347027497819
  N   -1.14475536459605     -1.35618746382494      0.77887571766947
  O   -0.70372236048020     -1.93801864289708      1.76012906907779
  O   -1.80061481276583     -1.82271060598881     -0.14720051629425
  N   0.94282644881412      1.62855585309897     -0.22724660690835
  O   0.03375075678320      2.44222008804927     -0.34060312905242
  O   2.14676873454887      1.83183409531952     -0.33811724819829
  N   0.59525383810223     -0.52118739686138     -1.28334947917378
  O   1.09704064589479     -1.63870152931061     -1.26552982717494
  O   0.08203248787845      0.06216223301480     -2.23024040716200
