17

C	0.0	0.0	0.0
C	-0.536902	0.031834	-1.435807
Br	1.955811	0.0	0.0
H	-1.625698	-0.051576	-1.242392
C	-0.312241	1.296628	0.653352
N	-0.507965	2.31748	1.204145
N	-0.575751	-1.125182	0.672069
H	-1.611399	-0.927447	0.579826
H	-0.354712	-1.075024	1.662853
C	-0.050968	-1.13982	-2.263073
H	-0.110177	-2.057914	-1.678537
H	-0.683372	-1.249706	-3.150876
H	0.981475	-0.982994	-2.585528
N	-0.183687	1.297661	-2.080356
H	-0.348458	1.19798	-3.077414
H	-0.83666	2.006092	-1.754428
H	-3.042743	0.0	0.0
