17

C	0.0	0.0	0.0
C	-0.378991	-0.078752	-1.555206
Br	1.955995	0.0	0.0
H	0.480411	-0.58325	-2.00842
C	-0.339132	1.293024	0.623185
N	-0.534578	2.321113	1.162812
N	-0.546883	-1.131188	0.690576
H	-1.57463	-0.966612	0.62107
H	-0.299875	-1.067835	1.675043
C	-0.503253	1.320354	-2.145257
H	0.370039	1.94144	-1.922403
H	-1.397832	1.805823	-1.746839
H	-0.612445	1.22941	-3.228177
N	-1.54867	-0.854056	-1.882277
H	-1.390254	-1.810204	-1.575632
H	-2.340212	-0.501602	-1.301643
H	-3.148191	0.0	0.0
