17

C	0.0	0.0	0.0
C	-0.508239	0.05811	-1.441879
Br	1.969988	0.0	0.0
H	-1.597332	0.174007	-1.259458
C	-0.282962	1.298135	0.663549
N	-0.447468	2.280899	1.289641
N	-0.598825	-1.111178	0.657597
H	-1.638364	-0.907734	0.509007
H	-0.427344	-1.040347	1.65881
C	-0.263289	-1.240066	-2.197082
H	0.808049	-1.394319	-2.370758
H	-0.653467	-2.093521	-1.641812
H	-0.767587	-1.186046	-3.167427
N	-0.010198	1.257772	-2.103147
H	-0.695301	1.568486	-2.782119
H	0.855986	1.052331	-2.593019
H	-3.004158	0.0	0.0
