17

C	0.0	0.0	0.0
C	-0.48215	0.058609	-1.457808
Br	1.980497	0.0	0.0
H	-1.570653	0.193221	-1.279853
C	-0.311895	1.292155	0.6489
N	-0.481118	2.319999	1.19149
N	-0.57274	-1.040624	0.789653
H	-0.432531	-1.928546	0.315705
H	-1.608268	-0.803345	0.715661
C	-0.265711	-1.242504	-2.221827
H	-0.642455	-1.116675	-3.240816
H	-0.813767	-2.076685	-1.778839
H	0.797008	-1.500328	-2.277867
N	0.049591	1.240877	-2.122461
H	-0.588058	1.522098	-2.857845
H	0.951515	1.031573	-2.540363
H	-3.011607	0.0	0.0
