17

C	0.0	0.0	0.0
C	-0.36417	-0.048052	-1.555016
Br	2.025243	0.0	0.0
H	0.515392	-0.495381	-2.024377
C	-0.30148	1.281368	0.65696
N	-0.519227	2.277846	1.243956
N	-0.536823	-1.136811	0.675043
H	-1.566243	-0.973302	0.593582
H	-0.303004	-1.077022	1.662258
C	-0.564517	1.357251	-2.10024
H	0.263945	2.022486	-1.841929
H	-1.491202	1.768313	-1.696056
H	-0.653003	1.298969	-3.187112
N	-1.496537	-0.870094	-1.902435
H	-2.301234	-0.553603	-1.324606
H	-1.29872	-1.824078	-1.617181
H	-3.094181	0.0	0.0
