14

C	-0.505122	0.021389	-1.392601
C	0.0	0.0	0.0
F	-1.855527	0.100594	-1.523642
H	1.090445	0.0	0.0
H	-0.302531	0.9326	0.482366
N	0.013973	1.212804	-2.185601
O	0.442202	2.169817	-1.555944
O	-0.141584	1.140646	-3.401898
N	-0.051627	-1.211528	-2.156937
O	1.120853	-1.219545	-2.498622
O	-0.888394	-2.092461	-2.318136
C	-0.545487	-1.131276	0.720516
N	-0.965094	-2.04004	1.336994
F	2.472747	0.0	0.0
