14

C	-0.438736	-0.008268	-1.415916
C	0.0	0.0	0.0
F	-0.04607	-1.129535	-2.034381
H	1.092637	0.0	0.0
H	-0.312463	-0.95911	0.426629
N	-1.962327	0.076285	-1.574007
O	-2.451792	1.201446	-1.560226
O	-2.569631	-0.986279	-1.608548
N	0.076936	1.162807	-2.240747
O	0.652534	2.074392	-1.658622
O	-0.180495	1.092468	-3.437164
C	-0.540461	1.091647	0.780094
N	-0.947478	1.959438	1.459062
F	2.466475	0.0	0.0
