14

C	-0.377301	-0.051211	-1.437058
C	0.0	0.0	0.0
F	0.041531	1.045705	-2.078082
H	1.092637	0.0	0.0
H	-0.315139	0.985324	0.364478
N	0.172284	-1.256454	-2.190447
O	0.548641	-2.216827	-1.534837
O	0.154833	-1.149998	-3.416652
N	-1.892217	-0.133992	-1.665771
O	-2.492709	0.93213	-1.715327
O	-2.383444	-1.255767	-1.698971
C	-0.585478	-1.040317	0.816577
N	-1.027451	-1.863019	1.532688
F	2.474997	0.0	0.0
