14

C	-0.43089	-0.011578	-1.414867
C	0.0	0.0	0.0
F	-0.000542	1.042242	-2.115983
H	1.092566	0.0	0.0
H	-0.32811	-0.921583	0.487669
N	0.013941	-1.269073	-2.152441
O	-0.232809	-1.265645	-3.356603
O	0.529564	-2.176238	-1.509987
N	-1.960707	-0.056753	-1.571445
O	-2.492264	-1.081984	-1.152876
O	-2.527491	0.925375	-2.03846
C	-0.537296	1.153456	0.674978
N	-0.965903	2.105958	1.245197
F	2.473988	0.0	0.0
