14

C	-0.320744	4e-06	-1.446015
C	0.0	0.0	0.0
F	-0.03739	-1.145528	-2.063411
H	1.094598	0.0	0.0
H	-0.327565	0.940537	0.441216
N	-1.787673	0.322873	-1.812817
O	-2.500954	0.798068	-0.937955
O	-2.109422	0.090462	-2.974878
N	0.440443	1.124742	-2.145034
O	0.207041	2.244781	-1.703895
O	1.167195	0.826786	-3.077022
C	-0.594458	-1.133522	0.667444
N	-1.058027	-2.062274	1.219372
F	2.477763	0.0	0.0
