14

C	-0.321036	-0.017145	-1.44573
C	0.0	0.0	0.0
F	-0.031385	1.118426	-2.077858
H	1.094766	0.0	0.0
H	-0.329174	-0.934054	0.453458
N	0.433715	-1.155218	-2.130304
O	0.19583	-2.267849	-1.673673
O	1.160674	-0.87376	-3.067272
N	-1.790434	-0.335979	-1.808275
O	-2.506305	-0.796385	-0.927574
O	-2.11114	-0.115329	-2.972738
C	-0.592256	1.143078	0.653373
N	-1.05438	2.077553	1.196832
F	2.477485	0.0	0.0
