14

C	-0.375616	0.002163	-1.437477
C	0.0	0.0	0.0
F	0.131455	-1.059931	-2.055387
H	1.095128	0.0	0.0
H	-0.291615	-0.980959	0.39073
N	-1.896163	-0.019248	-1.731422
O	-2.298559	-0.842499	-2.546077
O	-2.573469	0.795601	-1.116014
N	0.08935	1.245323	-2.193504
O	-0.050715	2.313105	-1.613203
O	0.512947	1.066098	-3.328462
C	-0.53808	1.039186	0.846337
N	-0.908167	1.830194	1.633153
F	2.47586	0.0	0.0
