14

C	-0.502574	0.016022	-1.393749
C	0.0	0.0	0.0
F	-1.852064	0.092921	-1.528216
H	1.090394	0.0	0.0
H	-0.301721	0.935552	0.477795
N	0.018893	1.203829	-2.191353
O	0.471104	2.154662	-1.566989
O	-0.155126	1.135118	-3.404791
N	-0.045203	-1.219317	-2.152411
O	1.122241	-1.21995	-2.510186
O	-0.874839	-2.110803	-2.290122
C	-0.546291	-1.12775	0.725533
N	-0.956511	-2.039946	1.343491
F	2.473718	0.0	0.0
