14

C	-0.401482	0.009399	-1.424137
C	0.0	0.0	0.0
F	-0.047992	-1.081449	-2.097028
H	1.094523	0.0	0.0
H	-0.333942	0.922271	0.473427
N	-1.920273	0.190487	-1.678467
O	-2.32712	-0.15853	-2.782611
O	-2.584522	0.687269	-0.777701
N	0.187982	1.226058	-2.135644
O	0.839847	1.02724	-3.147922
O	-0.088874	2.30589	-1.625539
C	-0.549104	-1.157313	0.671923
N	-0.971547	-2.106029	1.222709
F	2.479142	0.0	0.0
