16
Coordinates from ORCA-job run
  C   0.74873471363189     -0.10001207022807      0.28079854639440
  C   -0.71842357046780     -0.47320172318921      0.08849141775893
  H   1.07491430172628     -0.50603484848334      1.24475852737019
  H   -0.87493301258883     -1.52822134964329     -0.12922808810479
  N   0.94559444643926      1.30573112466112      0.10570560933870
  H   1.01524756500652      1.76553331456248      1.00191815519044
  H   1.77791970814145      1.47256056176941     -0.44619594626541
  N   1.55482747546083     -0.89817044754135     -0.73303416984829
  O   2.37939449930056     -0.30272734710211     -1.41282071830516
  O   1.33696534719749     -2.10312933049096     -0.74306775945651
  N   -1.25386307125522      0.32539047966949     -1.06767761466186
  O   -0.69076358540021      0.07300518099651     -2.12478208757841
  O   -2.13662929141596      1.14200410322983     -0.86529216858678
  N   -1.51697489218454     -0.13853005926100      1.30514014904487
  O   -2.63422102933074     -0.64086107387437      1.35492057736281
  O   -1.00778960426097      0.60566348492486      2.14036557034690
