16
Coordinates from ORCA-job run
  C   0.78506815548894      0.19727261697015      0.34812305713285
  C   -0.73082459622848      0.19155618371144      0.44843846659128
  H   1.16314146478939     -0.09482173093607      1.33114155956587
  H   -1.03400883940038      0.95818214158618      1.16037070262313
  N   1.24034405626257      1.48994916230957     -0.00436051779464
  H   1.10425495831495      1.66112965193329     -0.99304259663309
  H   2.22223003896644      1.60038028168783      0.20580368423736
  N   1.27867368267759     -0.92425135039389     -0.58395179564106
  O   2.20062347614592     -0.65040267276718     -1.33806784158742
  O   0.73851466503528     -2.01548661258497     -0.44875347658466
  N   -1.29287755125003     -1.10742886344598      0.97464600117288
  O   -0.87752704311470     -1.39987777555742      2.08753058838158
  O   -2.09910908131988     -1.71539132388082      0.29078835979761
  N   -1.39988919633181      0.52218428107224     -0.84471269799656
  O   -2.54392103463930      0.95061450970103     -0.75712693898649
  O   -0.75469315539650      0.33739150059460     -1.87482655427864
