16
Coordinates from ORCA-job run
  C   0.75298450018326      0.23244751956440      0.39310010178763
  C   -0.76549433058023      0.18839598693068      0.38685006266924
  H   1.06737858506177     -0.00944384149121      1.41156286794506
  H   -1.13764889924001      0.97476282035763      1.04234233410234
  N   1.20038297763575      1.52188639176167      0.02023693702177
  H   1.12977544763591      1.65148344118026     -0.98143497187986
  H   2.16143776410987      1.66837198033981      0.29449041236097
  N   1.33961095723527     -0.91135681320031     -0.45443008202492
  O   2.31420849018746     -0.64451835631718     -1.14193452891617
  O   0.81088994554307     -2.00849570095774     -0.32243056052547
  N   -1.33132823382875     -1.10292233117214      0.92812469611998
  O   -0.98535685228769     -1.33879516373534      2.07761770126822
  O   -2.07576054773196     -1.75844913214375      0.21891792000275
  N   -1.34866291519079      0.44773079878316     -0.96307787062544
  O   -0.62505614518242      0.24653224810322     -1.93648055599504
  O   -2.50836074355049      0.84137015199686     -0.97445446331107
