16
Coordinates from ORCA-job run
  C   0.74793598467717     -0.36644125194591      0.17953483406495
  C   -0.76932479189718     -0.39992011979807      0.06245448812390
  H   1.03987563676330     -1.25774092623231      0.74125204868983
  H   -1.14744334598234     -1.37331215987046     -0.23723297806974
  N   1.23591284979834      0.78876254574290      0.81203710835550
  H   1.10792418201041      1.61379460516123      0.24288389543824
  H   2.20388370477819      0.69424435885609      1.08138497915837
  N   1.29677504232059     -0.63357864263657     -1.24136053578644
  O   2.31103292919510     -0.03447655647605     -1.56625170570973
  O   0.69032065816758     -1.46883485324482     -1.90670856426636
  N   -1.31591747496214      0.59559594608420     -0.90853492181852
  O   -2.47840245739084      0.41254299127687     -1.24712266337654
  O   -0.57475124809100      1.50532419517138     -1.27342670576318
  N   -1.33036323073552     -0.08959224735252      1.42247318001906
  O   -1.15857000616116     -0.98243503988166      2.24202759661922
  O   -1.85988843249052      0.99706715514569      1.59658994432143
