13

C	0.0	0.0	0.0
C	-0.678761	0.025294	-1.32463
F	1.350228	0.0	0.0
H	-0.475249	0.908425	-1.922423
H	-0.323438	-0.88515	0.543168
H	-1.81854	-0.000855	-0.939525
N	-0.606465	1.132017	0.715013
O	-1.701264	0.742812	1.295623
O	-0.387883	2.288303	0.282099
N	-0.480177	-1.170617	-2.099757
O	-0.273738	-1.054264	-3.318409
O	-0.577457	-2.263487	-1.516297
H	-2.744145	0.0	0.0
