13

C	0.0	0.0	0.0
C	-0.626946	0.093227	-1.354634
F	1.353558	0.0	0.0
H	-1.75331	0.195472	-1.055598
H	-0.375902	-0.916868	0.452437
H	-0.465237	-0.867986	-1.843825
N	-0.364446	1.055866	1.025655
O	-0.263967	2.235952	0.714596
O	-0.604287	0.628778	2.153343
N	-0.122288	1.096542	-2.293042
O	-0.254864	2.294497	-2.03326
O	0.349146	0.672094	-3.361659
H	-2.883637	0.0	0.0
