13

C	0.0	0.0	0.0
C	-0.462247	-0.272208	-1.420068
F	1.346924	0.0	0.0
H	-1.546307	-0.156467	-1.460026
H	-0.39567	-0.804099	0.642932
H	-0.140476	-1.27417	-1.702485
N	-0.589074	1.210516	0.575931
O	-1.751973	1.444453	0.039036
O	-0.309117	1.385377	1.789012
N	0.199882	0.637724	-2.395587
O	1.236774	0.221596	-2.923567
O	-0.309793	1.72953	-2.629549
H	-2.812217	0.0	0.0
