13

C	0.0	0.0	0.0
C	-0.663432	0.077928	-1.334426
F	1.350138	0.0	0.0
H	-1.801332	0.052738	-1.001999
H	-0.322443	-0.908381	0.502734
H	-0.416527	0.974303	-1.894485
N	-0.613383	1.098985	0.752078
O	-0.397873	2.270915	0.360669
O	-1.71795	0.680858	1.297504
N	-0.443907	-1.093754	-2.153545
O	-0.194796	-0.930122	-3.357031
O	-0.567636	-2.20551	-1.6212
H	-2.773021	0.0	0.0
