13

C	0.0	0.0	0.0
C	-0.563315	0.08509	-1.392899
F	1.348846	0.0	0.0
H	-0.202543	-0.789237	-1.941569
H	-0.417151	-0.863227	0.516012
H	-1.665778	0.098215	-1.249408
N	-0.361668	1.193781	0.853153
O	-0.182816	2.296263	0.339455
O	-0.657113	0.981772	2.023025
N	-0.093932	1.2669	-2.167922
O	1.100457	1.307333	-2.472369
O	-0.929121	2.102929	-2.500563
H	-2.971167	0.0	0.0
