14

C	-0.558107	-0.009729	-1.421413
C	0.0	0.0	0.0
Br	0.27201	1.353549	-2.520427
H	1.089629	0.0	0.0
H	-0.339785	-0.929559	0.476561
N	-0.300547	-1.349187	-2.110635
O	0.693993	-1.962044	-1.749665
O	-1.099013	-1.688386	-2.98135
C	-2.000406	0.211117	-1.414709
N	-3.157959	0.397277	-1.331805
N	-0.47041	1.207434	0.663721
H	0.301879	1.623985	1.163615
H	-1.218665	1.010952	1.311998
Cl	3.430142	0.0	0.0
