14

C	-0.569207	-0.056846	-1.40989
C	0.0	0.0	0.0
Br	0.219791	1.314411	-2.537351
H	1.091321	0.0	0.0
H	-0.32277	0.957372	0.421066
N	-0.261031	-1.404137	-2.066928
O	0.72428	-2.00026	-1.66386
O	-1.017904	-1.754429	-2.968002
C	-2.019279	0.110027	-1.408884
N	-3.175632	0.307834	-1.335908
N	-0.564604	-1.13361	0.727073
H	-1.000157	-0.829741	1.585943
H	0.186911	-1.771869	0.955951
Cl	3.433298	0.0	0.0
