14

C	-0.545126	-0.003913	-1.425694
C	0.0	0.0	0.0
Br	0.224799	1.444476	-2.461407
H	1.092577	0.0	0.0
H	-0.347829	-0.922385	0.474732
N	-0.221527	-1.309859	-2.165684
O	-0.748942	-1.458734	-3.261991
O	0.520246	-2.100086	-1.598654
C	-1.998858	0.128667	-1.445618
N	-3.171258	0.205234	-1.410026
N	-0.517751	1.189409	0.67583
H	-0.960677	0.936045	1.546236
H	0.264104	1.792525	0.894145
Cl	3.404244	0.0	0.0
