14

C	-0.564092	-0.015715	-1.412535
C	0.0	0.0	0.0
Br	0.216909	1.389076	-2.505462
H	1.091223	0.0	0.0
H	-0.324884	0.944559	0.447264
N	-0.252858	-1.34474	-2.108627
O	-0.987695	-1.64853	-3.042942
O	0.710507	-1.971989	-1.698918
C	-2.014967	0.138588	-1.41346
N	-3.173287	0.321197	-1.34108
N	-0.566424	-1.153925	0.694894
H	0.184555	-1.798458	0.90662
H	-1.0003	-0.873263	1.561069
Cl	3.421124	0.0	0.0
