14

C	-0.512098	0.010173	-1.439708
C	0.0	0.0	0.0
Br	0.196167	-1.472121	-2.449672
H	1.096906	0.0	0.0
H	-0.358663	0.924896	0.457822
N	-2.054691	-0.081976	-1.364733
O	-2.633503	-1.058358	-1.803422
O	-2.567731	0.88441	-0.809957
C	-0.210914	1.25127	-2.140795
N	0.02082	2.250085	-2.715692
N	-0.573373	-1.157395	0.68478
H	0.123399	-1.893696	0.694432
H	-0.748659	-0.9098	1.649702
Cl	3.388531	0.0	0.0
