14

C	-0.508501	0.006425	-1.441793
C	0.0	0.0	0.0
Br	0.176978	-1.49827	-2.434393
H	1.096914	0.0	0.0
H	-0.358884	0.928625	0.450608
N	-2.051573	-0.062869	-1.372462
O	-2.556063	0.921867	-0.8417
O	-2.640415	-1.044077	-1.787166
C	-0.181301	1.237497	-2.152015
N	0.072925	2.227277	-2.733498
N	-0.577678	-1.148397	0.696129
H	0.107491	-1.896681	0.682388
H	-0.713998	-0.898625	1.666552
Cl	3.390383	0.0	0.0
