14

C	-0.556984	-0.003336	-1.422595
C	0.0	0.0	0.0
Br	0.279894	1.363686	-2.511406
H	1.089642	0.0	0.0
H	-0.342734	-0.928339	0.474071
N	-0.299081	-1.338642	-2.120685
O	0.64188	-1.998107	-1.704314
O	-1.045123	-1.628582	-3.051787
C	-2.000089	0.214892	-1.420297
N	-3.159813	0.391672	-1.348887
N	-0.474573	1.206284	0.666149
H	0.305132	1.643345	1.134487
H	-1.191988	0.999136	1.343347
Cl	3.409006	0.0	0.0
