14

C	-0.514976	0.01685	-1.446738
C	0.0	0.0	0.0
Br	0.116027	1.568171	-2.398346
H	1.097094	0.0	0.0
H	-0.358607	-0.936739	0.434484
N	-0.040248	-1.279163	-2.136078
O	-0.534239	-2.290119	-1.643155
O	0.757988	-1.22697	-3.053424
C	-1.973464	0.002784	-1.496043
N	-3.14855	-0.004728	-1.525003
N	-0.548016	1.154733	0.701045
H	-0.917962	0.871368	1.597287
H	0.204478	1.809601	0.872063
Cl	3.386679	0.0	0.0
