14
Coordinates from ORCA-job run
  C   -0.57397441033178     -0.13206946160290      0.00090898371799
  C   0.61184615939697      0.63905955026329      0.53273379868869
  Cl  -1.42631439821944     -0.99072562038211      1.23954841951302
  H   0.29308848899399      1.37210534805285      1.26811247838077
  H   1.14146085284237      1.12240622999913     -0.28813903865417
  N   -0.15743580243990     -1.05119163010247     -1.16456841391513
  O   -0.48319960186534     -2.21972413260920     -1.14187300040527
  O   0.45268673842506     -0.44559847745435     -2.03585070363195
  N   -1.54797550614300      0.84365877113011     -0.67744730235810
  O   -2.42972164728227      0.32277359855101     -1.34130828985031
  O   -1.35941462110110      2.03705007135044     -0.48353192791392
  N   1.57872530174566     -0.27979228118796      1.20591593971009
  O   2.10967618409084      0.14039263608109      2.22704106813485
  O   1.79055226188796     -1.35834460208893      0.65945798858345
