14
Coordinates from ORCA-job run
  C   -0.73693238035780     -0.15404291384103      0.10116396453518
  C   0.42794145985759      0.07926485433604      1.03528633100936
  Cl  -2.14731746274857     -0.55141767442711      1.05399863033678
  H   0.58627767049443     -0.82908966106438      1.61805915171398
  H   0.22360031569761      0.92127378995332      1.69339775027784
  N   -0.45417753580842     -1.33113256222752     -0.85242253156670
  O   -0.57728210364848     -1.13393294091466     -2.04737330521509
  O   -0.13822676456520     -2.35989661302581     -0.27936566137043
  N   -1.04276422932156      1.07069720409979     -0.75596464503685
  O   -0.16269009730388      1.92458093578647     -0.78539682784065
  O   -2.11439287198343      1.08311036276613     -1.33717214291191
  N   1.72212808034918      0.36933881910687      0.34249175307318
  O   2.50501952509950      1.08135626236299      0.95513730505188
  O   1.90981639423903     -0.17010986291112     -0.74183977205658
