14

C	0.0	0.0	0.0
C	-0.515613	0.020493	-1.439523
Br	1.962086	0.0	0.0
H	-1.627948	0.043552	-1.248304
H	-0.160839	0.937058	-1.922269
C	-0.432535	1.263009	0.740495
H	-0.005427	2.132638	0.231954
H	-0.058445	1.243502	1.766392
H	-1.52765	1.242832	0.698333
C	-0.419266	-1.221552	0.687171
N	-0.604707	-2.254323	1.215675
C	-0.097193	-1.124352	-2.232677
N	0.245594	-2.030109	-2.8989
F	-2.731367	0.0	0.0
