14

C	0.0	0.0	0.0
C	-0.347879	-0.170898	-1.492352
Br	1.965228	0.0	0.0
H	0.01022	-1.156118	-1.812059
H	0.257763	0.560247	-2.039354
C	-0.401205	1.355845	0.577233
H	-0.008717	1.461445	1.591432
H	-1.493144	1.348909	0.560006
H	0.022463	2.146526	-0.048131
C	-0.436996	-1.131012	0.812135
N	-0.605897	-2.096688	1.461983
C	-1.738625	-0.013141	-1.957956
N	-2.515204	0.092474	-2.842361
F	-2.546198	0.0	0.0
