14

C	0.0	0.0	0.0
C	-0.328667	-0.238171	-1.488071
Br	1.965214	0.0	0.0
H	0.213576	0.53192	-2.050393
H	0.117951	-1.193115	-1.781786
C	-0.415391	1.362101	0.543539
H	-1.509774	1.337171	0.519546
H	-0.00094	2.14777	-0.095026
H	-0.028666	1.490951	1.558638
C	-0.435728	-1.107701	0.846242
N	-0.599948	-2.028583	1.55832
C	-1.72197	-0.260724	-1.979964
N	-2.520645	-0.549741	-2.797765
F	-2.554253	0.0	0.0
