14
Coordinates from ORCA-job run
  C   -0.71081433936123      0.07291327890795     -0.28560483106920
  C   0.58153619488922     -0.56413383085631      0.20836041818321
  Br  -0.75819564192113      0.19737389299177     -2.22796013693890
  H   0.66642618608483     -1.53996597027124     -0.27259666868142
  H   0.44647845378475     -0.73728772834430      1.28295612193363
  C   -0.91987063303260      1.39910296845140      0.27517930505668
  N   -0.99803988195107      2.47523082488948      0.74252312670383
  N   -1.89812265554340     -0.82298671553137      0.11004250070928
  O   -1.74269972769435     -2.02055928483297     -0.07702222647079
  O   -2.88844359741597     -0.26703120745028      0.56538014183776
  C   1.81513904046050      0.29489916652655     -0.03763925691419
  H   2.69552402061069     -0.21745183609402      0.35461920123852
  H   1.97338878119695      0.46733500466159     -1.10287274319805
  H   1.73769379989279      1.26156143695174      0.46363504760963
