14
Coordinates from ORCA-job run
  C   -0.73583496718289      0.13144700132048     -0.18320857938891
  C   0.62156063767419     -0.55283284287949     -0.08946052790611
  Br  -0.96148728949727      1.05907197053998     -1.87997060631977
  H   0.70625567173926     -1.22342394958981     -0.94613861967018
  H   0.58959045321154     -1.17472557748856      0.81340076760061
  C   -0.95172564220239      1.07804303501388      0.90048360710511
  N   -1.03486445035759      1.84786818312562      1.78534916610695
  N   -1.84338643578158     -0.93635574169684     -0.13359422051490
  O   -2.81241560953722     -0.70167689161696      0.57565111123535
  O   -1.65347701551189     -1.92788924021328     -0.82196427151998
  C   1.78989270599616      0.42195080723307     -0.01869877748400
  H   1.84558729857307      1.04180612318076     -0.91435182669162
  H   2.72309147024986     -0.13864881865190      0.06086042812930
  H   1.71521317262675      1.07536594172306      0.85264234931816
