17

C	-0.493586	0.03686	-1.445398
C	0.0	0.0	0.0
Br	-0.014111	-1.620798	-2.375679
H	1.090656	0.0	0.0
H	0.118298	0.797698	-1.936767
C	-1.972093	0.30864	-1.664933
H	-2.188526	0.343147	-2.734276
H	-2.245923	1.272906	-1.22852
H	-2.582437	-0.467146	-1.204277
N	-0.504693	-1.219663	0.699841
O	0.288532	-2.115894	0.963572
O	-1.713134	-1.251034	0.965544
C	-0.441369	1.227124	0.786433
H	-0.102554	2.124343	0.262398
H	0.053032	1.214284	1.760275
H	-1.520568	1.265807	0.931206
Br	3.542388	0.0	0.0
