17

C	-0.359611	-0.040581	-1.471642
C	0.0	0.0	0.0
Br	-2.321163	-0.044342	-1.742324
H	1.092929	0.0	0.0
H	-0.041019	-1.001866	-1.870426
C	0.273034	1.09847	-2.245906
H	1.346895	1.094238	-2.030801
H	-0.14738	2.06376	-1.959501
H	0.115913	0.962189	-3.31768
N	-0.41404	-1.289262	0.647929
O	-0.208825	-2.32787	0.02273
O	-0.905186	-1.244244	1.775568
C	-0.49249	1.190534	0.789696
H	-1.581662	1.229216	0.837396
H	-0.113966	2.102007	0.323931
H	-0.094621	1.145332	1.802179
Br	3.461391	0.0	0.0
