17

C	-0.491343	-0.047674	-1.446933
C	0.0	0.0	0.0
Br	-0.171084	1.681747	-2.313419
H	1.091522	0.0	0.0
H	-1.576391	-0.165857	-1.466844
C	0.222557	-1.13582	-2.22936
H	1.303326	-0.996809	-2.147218
H	-0.030328	-2.115191	-1.810796
H	-0.076224	-1.123892	-3.279291
N	-0.463723	-1.298519	0.601013
O	-1.686525	-1.473407	0.656784
O	0.373607	-2.103001	0.996166
C	-0.553116	1.122536	0.856679
H	-0.290057	0.943745	1.901872
H	-1.638782	1.196398	0.766097
H	-0.093247	2.061778	0.553728
Br	3.579719	0.0	0.0
