14
Coordinates from ORCA-job run
  C   0.54128590249996      0.22827626673776      0.22886236782553
  C   -0.97039463139535     -0.00106903036056      0.15375194031450
  H   0.85282742945097      0.49557948416154      1.24273240492575
  H   -1.45040898477048      0.76686436437066      0.77249938179798
  H   -1.28407643239186      0.17295544737942     -0.88200186379275
  N   0.76554578286863      1.54273084759937     -0.54397537490901
  O   0.34113329601966      2.56090079626066     -0.00372973838586
  O   1.31545839237162      1.48328368338856     -1.63947361167614
  N   1.28478374022363     -0.86750602904320     -0.25271691695257
  H   2.25319565627655     -0.63108491856656     -0.41717040877167
  H   0.87692514037414     -1.26768129073129     -1.08536964283039
  N   -1.29750043654628     -1.37986496152235      0.49237162411693
  H   -0.92615024833674     -1.61575870016431      1.40427510313772
  H   -2.30362460664447     -1.48662595950969      0.52894473519999
