14
Coordinates from ORCA-job run
  C   0.47966443521531      0.33623333264390      0.08168159025758
  C   -0.97369021372940     -0.10465169921828      0.09739419728412
  H   0.84226592935023      0.52958784681965      1.10220513102849
  H   -1.58777264865279      0.66609318992434      0.57592256284463
  H   -1.29970244422631     -0.19334353157241     -0.93951315806210
  N   0.62855128815237      1.67764089927138     -0.59623366808002
  O   1.74705744650069      2.17950439998283     -0.51729877560108
  O   -0.33282159598109      2.16024473429813     -1.18867133453690
  N   1.26954487303462     -0.59365130210070     -0.67405429616508
  H   2.25253057408339     -0.49133213897095     -0.45914874221109
  H   0.95879817910962     -1.52401578438478     -0.41761150538339
  N   -1.03836993099832     -1.42167642866822      0.73350224802429
  H   -1.88770462906780     -1.89693087038542      0.45958375462731
  H   -1.05835126279051     -1.32470264763947      1.74124199597324
