16

C	0.0	0.0	0.0
C	-0.304475	0.056904	-1.515218
F	1.398227	0.0	0.0
H	0.404433	-0.601985	-2.017604
H	-0.194518	1.078029	-1.886751
C	-0.456509	1.237469	0.738351
H	-1.54001	1.325176	0.625528
H	0.037157	2.120126	0.325469
H	-0.192718	1.13516	1.794549
N	-0.500298	-1.17595	0.638054
H	-1.476598	-0.970481	0.878283
H	-0.595254	-1.906505	-0.066157
N	-1.642635	-0.42172	-1.881547
O	-2.624584	0.354109	-1.573632
O	-1.769887	-1.681117	-1.953857
H	-3.169554	0.0	0.0
