14

C	-0.498066	-0.054657	-1.39475
C	0.0	0.0	0.0
F	-1.848979	-0.045344	-1.536041
H	1.091786	0.0	0.0
H	-0.308137	0.954159	0.434124
N	-0.029609	1.128028	-2.232061
O	0.373272	2.121225	-1.642278
O	-0.194993	1.009076	-3.442388
N	0.019376	-1.295104	-2.107561
O	1.182481	-1.250375	-2.476876
O	-0.764799	-2.232842	-2.199823
C	-0.538774	-1.098042	0.775062
N	-0.946599	-1.982042	1.433989
F	2.474723	0.0	0.0
