14

C	-0.498327	0.285033	-1.364559
C	0.0	0.0	0.0
F	-1.826405	0.564264	-1.455158
H	1.105075	0.0	0.0
H	-0.292383	0.837805	0.637744
N	0.172061	1.514765	-1.966524
O	0.410462	2.428228	-1.18935
O	0.306468	1.533014	-3.185543
N	-0.213885	-0.867176	-2.31469
O	0.968395	-1.124362	-2.47959
O	-1.181202	-1.439933	-2.801698
C	-0.563321	-1.232937	0.503514
N	-0.995833	-2.239692	0.93053
F	2.467528	0.0	0.0
