14

C	-0.316339	0.233442	-1.425747
C	0.0	0.0	0.0
F	-0.039429	1.46739	-1.848034
H	1.105761	0.0	0.0
H	-0.328109	-0.999296	0.283144
N	0.450569	-0.757978	-2.295585
O	1.213787	-0.313173	-3.136361
O	0.182101	-1.933449	-2.071914
N	-1.778176	-0.029737	-1.852459
O	-2.543758	-0.500795	-1.021648
O	-2.045153	0.249405	-3.019151
C	-0.588419	1.012172	0.84372
N	-1.042853	1.839645	1.544201
F	2.472568	0.0	0.0
