14

C	-0.397101	0.091375	-1.424856
C	0.0	0.0	0.0
F	-1.651963	0.551503	-1.658707
H	1.106843	0.0	0.0
H	-0.281438	0.953879	0.45587
N	0.534543	1.077537	-2.134457
O	1.259799	0.658746	-3.024359
O	0.429403	2.23152	-1.742771
N	-0.263607	-1.216128	-2.18816
O	0.558403	-2.017454	-1.767257
O	-0.974777	-1.335488	-3.181007
C	-0.637266	-1.093343	0.692248
N	-1.151925	-1.969477	1.284155
F	2.466901	0.0	0.0
