13

C	-0.31668	-0.000736	-1.473412
C	0.0	0.0	0.0
F	-1.678558	-0.118098	-1.729515
H	1.094624	0.0	0.0
H	0.18608	-0.861327	-1.91466
C	0.156475	1.244412	-2.096736
N	0.481796	2.251196	-2.604078
N	-0.347272	-1.265482	0.616379
O	-0.583326	-1.274962	1.831395
O	-0.2177	-2.279712	-0.085191
C	-0.536772	1.123732	0.725627
N	-0.92909	2.092715	1.264857
H	2.375114	0.0	0.0
