13

C	-0.499526	-0.001598	-1.445751
C	0.0	0.0	0.0
F	-0.11688	1.180131	-2.041391
H	1.09132	0.0	0.0
H	-1.589833	-0.061284	-1.476409
C	0.052769	-1.1428	-2.197438
N	0.390132	-2.071503	-2.831718
N	-0.518829	-1.261215	0.637227
O	-1.731192	-1.473477	0.524353
O	0.275941	-1.996545	1.207161
C	-0.551009	1.13573	0.712259
N	-0.959691	2.07297	1.294136
H	2.568557	0.0	0.0
