13

C	-0.428174	-0.031118	-1.464329
C	0.0	0.0	0.0
F	-0.353634	1.255998	-1.974725
H	1.091318	0.0	0.0
H	-1.463681	-0.369443	-1.556163
C	0.414007	-0.901126	-2.306675
N	1.007334	-1.542473	-3.091305
N	-0.391227	-1.203887	0.670788
O	-0.565063	-2.208161	-0.054204
O	-0.360628	-1.224567	1.911275
C	-0.463036	1.177112	0.690322
N	-0.788317	2.171202	1.22877
H	2.333205	0.0	0.0
