13

C	-0.312614	-0.022918	-1.474717
C	0.0	0.0	0.0
F	-1.672541	-0.148384	-1.733649
H	1.094638	0.0	0.0
H	0.195906	-0.886256	-1.902183
C	0.156468	1.215364	-2.115818
N	0.477365	2.215151	-2.639365
N	-0.342685	-1.257052	0.636102
O	-0.576908	-1.248691	1.851942
O	-0.213194	-2.281415	-0.05087
C	-0.539	1.131852	0.710048
N	-0.960701	2.092222	1.24259
H	2.374186	0.0	0.0
