13

C	-0.409098	-0.041551	-1.469004
C	0.0	0.0	0.0
F	-0.369078	1.246453	-1.978941
H	1.09124	0.0	0.0
H	-1.431453	-0.412119	-1.572335
C	0.465341	-0.8862	-2.307027
N	1.044993	-1.533263	-3.096795
N	-0.37788	-1.207719	0.669605
O	-0.359571	-1.221843	1.910589
O	-0.516365	-2.219222	-0.052211
C	-0.473682	1.173704	0.684373
N	-0.815764	2.162841	1.2209
H	2.326693	0.0	0.0
