17

C	0.0	0.0	0.0
C	-0.315697	0.183685	-1.496489
Cl	1.955909	0.0	0.0
H	0.286843	-0.570361	-2.018516
N	-0.509597	1.049297	0.733502
H	-0.363039	1.023732	1.729345
H	-0.366155	1.945733	0.289011
N	-0.364068	-1.314949	0.448122
H	-1.368549	-1.282476	0.622075
H	0.107075	-1.525861	1.319415
N	0.024951	1.559139	-1.865344
H	-0.481525	1.754874	-2.718545
H	1.019861	1.635778	-2.034261
N	-1.693596	-0.036391	-1.841819
H	-1.906923	-1.024135	-1.856534
H	-2.361258	0.38557	-1.194988
Br	-4.570254	0.0	0.0
