17

C	0.0	0.0	0.0
C	-0.324992	-0.207226	-1.489289
Cl	1.955879	0.0	0.0
H	0.275457	0.536174	-2.028092
N	-0.367416	1.319627	0.433235
H	0.104521	1.543572	1.299892
H	-1.37158	1.285815	0.605905
N	-0.498782	-1.039762	0.759111
H	-0.348106	-1.942861	0.332013
H	-0.326742	-0.991766	1.750133
N	-1.705459	0.008501	-1.82939
H	-1.919664	0.996045	-1.849579
H	-2.364755	-0.406542	-1.169906
N	0.011882	-1.588172	-1.837299
H	-0.492584	-1.794952	-2.689675
H	1.006751	-1.668402	-2.007903
Br	-4.584223	0.0	0.0
