17

C	0.0	0.0	0.0
C	-0.305882	-0.122566	-1.520219
Cl	1.874342	0.0	0.0
H	0.239252	-1.012376	-1.877819
N	-0.489367	1.176713	0.6254
H	-1.486499	1.029731	0.784944
H	-0.376727	1.941385	-0.032122
N	-0.480336	-1.12686	0.695645
H	-0.363223	-1.007414	1.693137
H	-0.032366	-1.978469	0.388538
N	0.126689	1.110279	-2.170236
H	-0.313459	1.116986	-3.082057
H	1.131763	1.121996	-2.283258
N	-1.692709	-0.29811	-1.851921
H	-2.269073	0.436329	-1.448354
H	-2.060247	-1.134602	-1.414057
Br	-4.4707	0.0	0.0
