17

C	0.0	0.0	0.0
C	-0.43479	0.319618	-1.476027
Cl	1.89409	0.0	0.0
H	0.461759	0.438449	-2.086305
N	-0.45396	0.985747	0.888465
H	-0.100867	0.819086	1.81875
H	-0.268421	1.917234	0.549788
N	-0.388438	-1.270413	0.527689
H	-1.385466	-1.18535	0.727005
H	-0.282873	-1.962496	-0.204664
N	-1.135357	1.602482	-1.492752
H	-2.026984	1.470125	-1.01186
H	-1.345859	1.830989	-2.458694
N	-1.151568	-0.84065	-2.002626
H	-2.073226	-0.861078	-1.560474
H	-1.307008	-0.683991	-2.992406
Br	-4.013691	0.0	0.0
