10
Coordinates from ORCA-job run
  C   0.14953431641937      0.53110063174933     -0.06871441532217
  C   -1.01413202600204     -0.40994972453880     -0.26700429492912
  F   -0.29239265736543      1.62179862980195      0.68023215887648
  H   -1.85739961667368      0.12782367162126     -0.70005355301054
  H   0.47013482520474      0.96913377804230     -1.02333281113323
  H   -0.74585997586824     -1.23253264667704     -0.93422506979622
  H   -1.31144712295825     -0.81297540140147      0.70229532840879
  N   1.20305909827051     -0.10489567910556      0.66304445700051
  H   2.08233583027500      0.38091769883116      0.55582602788244
  H   1.31616732869803     -1.07042095832313      0.39193217202306
