10
Coordinates from ORCA-job run
  C   0.19681124216135      0.46342315355465     -0.23349694077461
  C   -1.07359081875695     -0.33523636830300     -0.06800379282626
  F   -0.05122127997750      1.77196810425542      0.18084993789232
  H   -0.96154665830792     -1.34254306144422     -0.47619901669233
  H   0.46671534503745      0.56042165692962     -1.29361538236420
  H   -1.31391549529802     -0.40024262219130      0.99421149794251
  H   -1.89380988057980      0.16059411333231     -0.58697104478539
  N   1.24377685082326     -0.06431202683029      0.58853096315751
  H   1.23313607042190     -1.07347683781194      0.60328017406901
  H   2.15364462447623      0.25840388850874      0.29041360438144
