15

C	-0.337979	0.096887	-1.478486
C	0.0	0.0	0.0
Cl	0.167548	-1.411712	-2.332041
H	1.088434	0.0	0.0
H	-0.335974	0.908754	0.508194
C	-1.756652	0.324629	-1.763822
N	-2.879938	0.607131	-1.964829
C	0.542137	1.234134	-2.011985
H	0.20302	2.191541	-1.601052
H	0.503162	1.274356	-3.101875
H	1.552878	1.016356	-1.645941
N	-0.624949	-1.116652	0.73023
O	-1.493564	-1.79432	0.173148
O	-0.265335	-1.268637	1.896485
F	2.586975	0.0	0.0
