15

C	-0.540141	0.019591	-1.422518
C	0.0	0.0	0.0
Cl	0.426115	1.095991	-2.500468
H	1.091528	0.0	0.0
H	-0.348442	-0.896887	0.514627
C	-0.382896	-1.341745	-1.949575
N	-0.351158	-2.435973	-2.375376
C	-2.012489	0.411939	-1.560607
H	-2.335967	0.304605	-2.596844
H	-2.139289	1.447594	-1.250623
H	-2.621462	-0.238934	-0.924303
N	-0.457888	1.130475	0.805621
O	-0.546672	2.242928	0.277027
O	-0.661811	0.923887	2.004916
F	2.499388	0.0	0.0
