15

C	-0.292831	-0.04302	-1.47834
C	0.0	0.0	0.0
Cl	-2.067139	-0.285548	-1.828319
H	1.092756	0.0	0.0
H	-0.368871	-0.902768	0.484747
C	0.118794	1.161522	-2.206326
N	0.496396	2.029962	-2.901513
C	0.50947	-1.223361	-2.02921
H	0.118722	-2.151326	-1.606085
H	1.535497	-1.064578	-1.678293
H	0.450973	-1.266465	-3.116634
N	-0.567476	1.134325	0.725735
O	-0.719748	2.205924	0.135143
O	-0.827406	0.956712	1.918773
F	2.551855	0.0	0.0
