15

C	-0.320351	0.14112	-1.493855
C	0.0	0.0	0.0
Cl	-0.182194	-1.540911	-2.16028
H	1.101088	0.0	0.0
H	-0.433287	-0.892086	0.444483
C	-1.692538	0.57133	-1.774241
N	-2.790781	0.916632	-2.011032
C	0.726492	1.001968	-2.1952
H	0.649623	0.900848	-3.279668
H	0.572497	2.041568	-1.905951
H	1.69751	0.669553	-1.809548
N	-0.463029	1.144203	0.790974
O	-0.667334	0.950085	1.989876
O	-0.57339	2.244517	0.240512
F	2.570776	0.0	0.0
