15

C	-0.546335	-0.116517	-1.416368
C	0.0	0.0	0.0
Cl	0.433046	0.833124	-2.596011
H	1.101513	0.0	0.0
H	-0.343489	-0.844651	0.59954
C	-0.410188	-1.526552	-1.800881
N	-0.38806	-2.661517	-2.104515
C	-2.0125	0.280834	-1.591833
H	-2.120835	1.345057	-1.39485
H	-2.62807	-0.287784	-0.888618
H	-2.342218	0.067515	-2.609855
N	-0.451645	1.200768	0.698103
O	-0.553809	2.256909	0.065078
O	-0.638415	1.111502	1.914723
F	2.496289	0.0	0.0
