15

C	-0.536492	0.221917	-1.407469
C	0.0	0.0	0.0
Cl	0.4439	1.430841	-2.319544
H	1.102139	0.0	0.0
H	-0.345888	-0.962641	0.38012
C	-0.386576	-1.054149	-2.11734
N	-0.351116	-2.081368	-2.686955
C	-2.003794	0.642719	-1.495081
H	-2.323775	0.681465	-2.537852
H	-2.621132	-0.082442	-0.956673
H	-2.121475	1.627217	-1.046863
N	-0.458227	1.001655	0.958571
O	-0.5511	2.178625	0.594625
O	-0.661773	0.624884	2.116963
F	2.496063	0.0	0.0
