15

C	-0.30119	0.144111	-1.469545
C	0.0	0.0	0.0
Cl	-2.075665	-0.088168	-1.837162
H	1.101567	0.0	0.0
H	-0.358761	-0.961978	0.364087
C	0.07442	1.440591	-2.040773
N	0.391322	2.405203	-2.63173
C	0.515708	-0.940388	-2.173124
H	1.545351	-0.806604	-1.820553
H	0.437671	-0.850356	-3.257319
H	0.152778	-1.923258	-1.86293
N	-0.570937	1.022552	0.873048
O	-0.748306	2.158331	0.429056
O	-0.803315	0.689432	2.037817
F	2.54969	0.0	0.0
