15

C	-0.313768	0.184421	-1.491097
C	0.0	0.0	0.0
Cl	-0.171393	-1.478183	-2.204359
H	1.101881	0.0	0.0
H	-0.434704	-0.904589	0.416502
C	-1.684176	0.62177	-1.766901
N	-2.780926	0.974755	-2.000976
C	0.735958	1.064932	-2.162533
H	0.662604	0.994998	-3.249748
H	1.70521	0.721694	-1.782406
H	0.581898	2.095908	-1.844482
N	-0.466782	1.120882	0.821146
O	-0.567715	2.238521	0.303562
O	-0.684679	0.890415	2.011746
F	2.571696	0.0	0.0
