15

C	0.0	0.0	0.0
C	-0.345963	-0.018119	-1.522556
Cl	1.782509	0.0	0.0
H	0.50128	0.446223	-2.03546
H	-0.259362	0.998996	0.372056
N	-0.617094	-1.078744	0.699268
H	-0.487086	-0.940944	1.696955
H	-1.634511	-0.958107	0.523627
C	-1.59387	0.771162	-1.925775
H	-1.770716	0.65043	-2.999917
H	-2.470611	0.451764	-1.338027
H	-1.415476	1.832759	-1.721328
C	-0.368622	-1.397227	-2.022092
N	-0.353336	-2.463584	-2.513835
H	-3.478777	0.0	0.0
