15

C	0.0	0.0	0.0
C	-0.517337	0.024195	-1.450931
Cl	1.788211	0.0	0.0
H	-1.617822	0.109695	-1.265132
H	-0.29812	0.945302	0.456917
N	-0.542099	-1.048309	0.806999
H	-1.566909	-0.855945	0.761531
H	-0.376751	-1.941959	0.355591
C	-0.213565	-1.235809	-2.256127
H	-0.645627	-1.154818	-3.256201
H	-0.666138	-2.104289	-1.77341
H	0.862691	-1.400128	-2.354227
C	-0.059564	1.208917	-2.166028
N	0.301566	2.155813	-2.762564
H	-3.005981	0.0	0.0
