15

C	0.0	0.0	0.0
C	-0.339034	-0.021524	-1.524569
Cl	1.782549	0.0	0.0
H	0.499159	0.466948	-2.029883
H	-0.259533	1.000373	0.367808
N	-0.621712	-1.075865	0.697278
H	-0.491793	-0.938912	1.694705
H	-1.637871	-0.953565	0.518797
C	-1.602103	0.735917	-1.941384
H	-1.439227	1.803509	-1.766887
H	-1.782716	0.585309	-3.010477
H	-2.473027	0.424449	-1.343703
C	-0.32151	-1.400637	-2.025479
N	-0.282848	-2.469239	-2.51155
H	-3.483506	0.0	0.0
