15

C	0.0	0.0	0.0
C	-0.288467	-0.011418	-1.550174
Cl	1.795639	0.0	0.0
H	0.509589	0.564443	-2.030248
H	-0.300137	0.979505	0.375009
N	-0.620569	-0.993052	0.796097
H	-0.509734	-1.907096	0.368548
H	-1.632393	-0.763873	0.788706
C	-1.626144	0.59234	-1.98049
H	-1.761987	0.449982	-3.05691
H	-2.471611	0.189915	-1.395777
H	-1.603432	1.668941	-1.772005
C	-0.12568	-1.383271	-2.037028
N	-0.009573	-2.481962	-2.434803
H	-3.520221	0.0	0.0
