15

C	-0.566319	0.08105	-1.447198
C	-0.026313	0.171334	-0.022668
F	-0.469484	1.350049	-2.047684
H	1.031787	0.478718	-0.081022
H	-1.632462	-0.166768	-1.411408
C	0.204177	-0.913485	-2.278229
H	-0.168376	-0.906233	-3.306437
H	0.087824	-1.906888	-1.846777
H	1.267651	-0.669737	-2.263047
N	-0.103975	-1.150836	0.593681
H	0.926298	-1.440381	0.598627
H	-0.36206	-1.045331	1.56978
C	-0.775771	1.190666	0.716677
N	-1.402372	1.97727	1.325086
H	2.460973	-1.305843	0.434656
