15

C	-0.335677	0.029782	-1.533978
C	0.126883	0.02632	-0.088954
F	-1.736458	-0.048828	-1.593249
H	1.226114	0.115879	-0.070443
H	0.046732	-0.892718	-1.9787
C	0.093276	1.253692	-2.312161
H	1.182708	1.337277	-2.305711
H	-0.251438	1.18644	-3.346904
H	-0.332533	2.153831	-1.862745
N	-0.129399	-1.252922	0.557279
H	0.816102	-1.499158	0.930686
H	-0.782039	-1.146561	1.323475
C	-0.435312	1.179729	0.621528
N	-0.891641	2.105416	1.185305
H	2.504646	-1.070395	0.834425
