15

C	-0.456814	-0.017921	-1.472976
C	-0.003444	0.175546	-0.022627
F	-0.356829	1.218973	-2.134161
H	1.040586	0.503987	-0.058114
H	-1.523847	-0.278561	-1.488003
C	0.36594	-1.034159	-2.227603
H	0.082524	-1.010249	-3.283892
H	1.429658	-0.83209	-2.103969
H	0.198883	-2.035444	-1.831082
N	-0.020514	-1.018931	0.79363
H	0.947421	-1.435257	0.656728
H	-0.728707	-1.664753	0.459044
C	-0.818305	1.249166	0.582077
N	-1.491643	2.089804	1.051487
H	2.458749	-1.564537	0.217014
