15

C	-0.456027	-0.014686	-1.473659
C	-0.0021	0.175687	-0.023085
F	-0.354199	1.223018	-2.13306
H	1.044025	0.501649	-0.058121
H	-1.523505	-0.273536	-1.488743
C	0.364709	-1.031089	-2.230193
H	1.428739	-0.829638	-2.108416
H	0.07956	-1.006468	-3.286003
H	0.197859	-2.032418	-1.833742
N	-0.022335	-1.019781	0.791533
H	0.944495	-1.438601	0.654054
H	-0.732324	-1.663212	0.456135
C	-0.81375	1.25088	0.583041
N	-1.483623	2.093878	1.053182
H	2.454998	-1.571685	0.214536
