15

C	-0.20155	0.059584	-1.440935
C	0.020624	0.148156	0.063175
F	-1.540236	-0.317133	-1.685526
H	1.098095	0.31893	0.173114
H	0.438487	-0.761737	-1.771996
C	0.074689	1.334449	-2.200088
H	-0.096069	1.181119	-3.268416
H	-0.576583	2.13986	-1.852652
H	1.117291	1.626005	-2.052303
N	-0.236126	-1.095974	0.768669
H	-1.006519	-1.566364	0.305657
H	0.638419	-1.623721	0.574753
C	-0.738251	1.266612	0.642037
N	-1.338079	2.181646	1.071336
H	2.275855	-1.493377	-0.223799
