13

C	0.0	0.0	0.0
C	-0.560256	-0.118569	-1.410939
Br	1.941064	0.0	0.0
H	-1.67874	-0.101602	-1.255723
H	-0.351929	0.937842	0.428529
C	-0.414686	-1.131925	0.824681
N	-0.611792	-2.053632	1.526712
C	-0.134567	-1.315169	-2.112919
N	0.16729	-2.301833	-2.674799
N	-0.228805	1.109176	-2.206572
O	-0.046103	0.976454	-3.413526
O	-0.233977	2.171688	-1.591556
Br	-3.462034	0.0	0.0
