13

C	0.0	0.0	0.0
C	-0.564834	-0.212011	-1.397272
Br	1.941478	0.0	0.0
H	-1.682314	-0.188025	-1.240639
H	-0.344072	0.968287	0.362255
C	-0.422852	-1.067835	0.900693
N	-0.617151	-1.94	1.664365
C	-0.142171	-1.452209	-2.021584
N	0.155554	-2.481916	-2.502346
N	-0.240729	0.960029	-2.27693
O	-0.098643	0.747207	-3.478709
O	-0.209546	2.058937	-1.731847
Br	-3.477688	0.0	0.0
