13

C	0.0	0.0	0.0
C	-0.357048	0.103547	-1.501874
F	1.394329	0.0	0.0
H	0.395687	-0.534369	-1.981189
H	-0.323874	0.889183	0.54495
N	-0.469883	-1.248773	0.495677
H	-0.152395	-1.337095	1.455467
H	-1.502154	-1.056254	0.486555
C	-0.116056	1.470751	-1.979881
N	0.12623	2.559607	-2.347767
C	-1.661224	-0.390021	-1.98353
N	-2.405828	-0.83945	-2.777594
F	-2.602366	0.0	0.0
