13

C	0.0	0.0	0.0
C	-0.353917	-0.235685	-1.486955
F	1.375895	0.0	0.0
H	0.293504	0.461372	-2.034552
H	-0.320517	1.011988	0.273993
N	-0.500125	-1.045562	0.817946
H	-0.262393	-0.82742	1.781093
H	-1.531103	-0.882363	0.689429
C	-1.717938	0.00468	-2.002419
N	-2.504038	0.182562	-2.863547
C	0.089693	-1.580612	-1.886407
N	0.470326	-2.619363	-2.27799
F	-2.649718	0.0	0.0
