13

C	0.0	0.0	0.0
C	-0.494729	0.217905	-1.45688
F	1.374172	0.0	0.0
H	0.417903	0.298222	-2.064858
H	-0.299212	0.87045	0.592463
N	-0.464764	-1.250923	0.496565
H	-1.498557	-1.071923	0.450502
H	-0.192289	-1.309673	1.47292
C	-1.214528	1.48596	-1.606328
N	-1.619533	2.567054	-1.820248
C	-1.270086	-0.891285	-2.022306
N	-1.754999	-1.76415	-2.639468
F	-2.595462	0.0	0.0
