13

C	0.0	0.0	0.0
C	-0.482101	-0.041206	-1.474006
F	1.402774	0.0	0.0
H	0.434194	-0.063165	-2.080785
H	-0.287256	0.962505	0.432004
N	-0.455247	-1.145503	0.705583
H	-0.188309	-1.032991	1.678375
H	-1.490427	-0.986145	0.624691
C	-1.210246	1.174658	-1.848125
N	-1.634118	2.195044	-2.242816
C	-1.25025	-1.23398	-1.841101
N	-1.761732	-2.187011	-2.294353
F	-2.584107	0.0	0.0
