18

C	-0.380183	0.146296	-1.467312
C	0.0	0.0	0.0
F	-0.065859	-1.107581	-2.084941
H	1.100933	0.0	0.0
N	-1.782428	0.390231	-1.6081
H	-2.243092	-0.340059	-1.070707
H	-2.051466	0.305077	-2.581543
C	0.512995	1.162496	-2.141574
H	0.235718	2.172631	-1.834349
H	1.534295	0.945863	-1.808358
H	0.432098	1.084356	-3.230355
N	-0.677849	-1.196917	0.528305
H	-0.121667	-1.99574	0.24094
H	-0.592741	-1.120512	1.535572
N	-0.412252	1.156068	0.78983
H	0.388547	1.771874	0.850949
H	-1.177772	1.641723	0.336907
F	2.760746	0.0	0.0
