18

C	-0.133716	0.063855	-1.516805
C	0.0	0.0	0.0
F	-1.456876	0.426622	-1.91205
H	1.097991	0.0	0.0
N	0.759993	1.122412	-1.934395
H	0.943331	1.021996	-2.927114
H	1.643385	0.943099	-1.429713
C	0.179094	-1.266129	-2.169364
H	0.132664	-1.163332	-3.260249
H	-0.50622	-2.043842	-1.837485
H	1.19506	-1.527971	-1.864362
N	-0.564894	-1.214062	0.569252
H	-0.092615	-1.352078	1.455628
H	-1.535007	-1.018514	0.797641
N	-0.479946	1.225458	0.651036
H	0.306688	1.861661	0.69781
H	-1.166521	1.662704	0.045581
F	2.742546	0.0	0.0
