18

C	-0.435157	0.034696	-1.461094
C	0.0	0.0	0.0
F	-0.240487	-1.222896	-2.033977
H	1.09912	0.0	0.0
N	-1.853549	0.318486	-1.554619
H	-1.994421	1.131104	-0.961551
H	-2.080471	0.573566	-2.510332
C	0.492778	0.981067	-2.211545
H	0.373039	0.844134	-3.291839
H	0.255452	2.017566	-1.956596
H	1.517838	0.759788	-1.893942
N	-0.565198	-1.128787	0.689034
H	-1.562128	-1.008141	0.822657
H	-0.100457	-1.242746	1.579831
N	-0.408036	1.331171	0.586214
H	-0.649767	1.149045	1.554908
H	0.454065	1.871733	0.621965
F	2.739315	0.0	0.0
