18

C	-0.401223	-0.048066	-1.464634
C	0.0	0.0	0.0
F	-0.013684	-1.355463	-1.931171
H	1.095089	0.0	0.0
N	-1.812444	0.087294	-1.637549
H	-2.054179	-0.117599	-2.600502
H	-2.248807	-0.606172	-1.037524
C	0.431396	0.929658	-2.254984
H	0.113228	1.944459	-2.018582
H	1.46587	0.787498	-1.928323
H	0.329792	0.741946	-3.329135
N	-0.612036	-1.164857	0.685754
H	-0.202978	-1.982851	0.240426
H	-0.226708	-1.157456	1.626469
N	-0.437288	1.257042	0.57448
H	0.144	1.454103	1.380525
H	-1.406035	1.181132	0.86492
F	2.753594	0.0	0.0
