18

C	-0.33842	0.083931	-1.481823
C	0.0	0.0	0.0
F	0.054416	-1.166918	-2.050791
H	1.098509	0.0	0.0
N	-1.747385	0.250078	-1.679767
H	-1.969717	0.110819	-2.660254
H	-2.178503	-0.497177	-1.139799
C	0.535985	1.126908	-2.141571
H	0.215583	2.127934	-1.848225
H	0.497197	1.044264	-3.230557
H	1.551674	0.945414	-1.772851
N	-0.660325	-1.188944	0.569495
H	-0.763633	-0.972384	1.554904
H	0.006921	-1.953294	0.506793
N	-0.451291	1.177853	0.731196
H	0.323362	1.825933	0.793245
H	-1.221281	1.625007	0.246143
F	2.763465	0.0	0.0
