18

C	-0.197376	0.032548	-1.504535
C	0.0	0.0	0.0
F	-1.579002	0.136247	-1.810045
H	1.098602	0.0	0.0
N	0.464844	1.191345	-2.06034
H	0.156426	1.966273	-1.477789
H	1.438851	1.04974	-1.780134
C	0.367277	-1.214997	-2.140599
H	1.380903	-1.326804	-1.744967
H	-0.222254	-2.082484	-1.861292
H	0.39221	-1.093344	-3.227785
N	-0.510019	-1.229542	0.593268
H	-1.515573	-1.162418	0.717605
H	-0.086798	-1.342765	1.50606
N	-0.467883	1.258357	0.593148
H	0.080871	1.433611	1.428513
H	-1.444451	1.173154	0.861378
F	2.72474	0.0	0.0
