15

C	-0.260548	-0.11627	-1.489127
C	0.0	0.0	0.0
Br	-2.176386	0.07949	-1.957698
H	1.106783	0.0	0.0
H	-0.049654	-1.160652	-1.725535
C	0.619003	0.774565	-2.34828
H	1.623053	0.686875	-1.919729
H	0.295389	1.811638	-2.307797
H	0.604834	0.427656	-3.384423
C	-0.510055	-1.133443	0.741647
N	-0.870143	-2.11518	1.279268
N	-0.437141	1.262633	0.625991
O	-0.398625	2.282301	-0.060996
O	-0.75149	1.235516	1.815981
F	2.485899	0.0	0.0
