15

C	-0.266228	-0.013119	-1.493042
C	0.0	0.0	0.0
Br	-2.178678	0.256952	-1.943271
H	1.10779	0.0	0.0
H	-0.081714	-1.044846	-1.798503
C	0.634394	0.910357	-2.293857
H	1.635493	0.778659	-1.868705
H	0.617514	0.625585	-3.348576
H	0.330112	1.949423	-2.193543
C	-0.532672	-1.165731	0.671422
N	-0.926729	-2.164448	1.151243
N	-0.407966	1.229685	0.709092
O	-0.394384	2.285368	0.078285
O	-0.664641	1.137555	1.909657
F	2.489713	0.0	0.0
