15

C	-0.397721	0.001541	-1.472281
C	0.0	0.0	0.0
Br	0.24084	-1.6671	-2.274664
H	1.092232	0.0	0.0
H	0.187194	0.78111	-1.956486
C	-1.8836	0.141421	-1.741458
H	-2.235425	1.092701	-1.334246
H	-2.08747	0.128449	-2.814531
H	-2.435541	-0.677348	-1.274563
C	-0.579142	-1.084669	0.759875
N	-1.033942	-1.992956	1.352811
N	-0.357896	1.295879	0.62085
O	-0.325171	2.294482	-0.104457
O	-0.584158	1.325166	1.829982
F	2.447156	0.0	0.0
