15

C	-0.382668	-0.086454	-1.470741
C	0.0	0.0	0.0
Br	0.448738	1.377783	-2.484306
H	1.10598	0.0	0.0
H	-1.453831	0.039839	-1.640033
C	0.172598	-1.390862	-2.025653
H	0.061879	-1.430828	-3.110988
H	1.230167	-1.436122	-1.753815
H	-0.349707	-2.244511	-1.584758
C	-0.445614	-1.173642	0.726767
N	-0.784101	-2.158835	1.274538
N	-0.521525	1.18769	0.715593
O	-0.264277	1.259157	1.91707
O	-1.162607	2.030907	0.084726
F	2.470036	0.0	0.0
