15

C	-0.377922	0.058322	-1.473857
C	0.0	0.0	0.0
Br	0.343743	1.693005	-2.291296
H	1.106023	0.0	0.0
H	-1.454888	0.123209	-1.637957
C	0.284783	-1.125901	-2.163117
H	-0.17432	-2.061589	-1.830894
H	1.337303	-1.117649	-1.871142
H	0.190995	-1.052055	-3.247268
C	-0.464617	-1.237142	0.599069
N	-0.835795	-2.257954	1.05231
N	-0.541822	1.109309	0.828718
O	-0.159969	1.153114	1.996134
O	-1.337268	1.900014	0.319185
F	2.484765	0.0	0.0
