19

C	-0.162884	0.106576	-1.477504
C	0.054143	0.177629	0.046969
F	-1.546623	-0.148304	-1.686236
H	1.094308	0.505488	0.168221
C	0.156315	1.405983	-2.191114
H	-0.073364	1.27403	-3.249439
H	-0.415012	2.247244	-1.793565
H	1.225059	1.611196	-2.092244
N	0.549501	-0.968698	-2.12467
H	0.043011	-1.82044	-1.902485
H	1.457127	-1.096477	-1.625811
N	-0.013255	-1.120604	0.709292
H	-0.76125	-1.664889	0.290333
H	0.883189	-1.579922	0.494369
C	-0.888191	1.158262	0.740767
H	-1.926365	0.843304	0.606704
H	-0.789612	2.181513	0.366701
H	-0.665781	1.152648	1.809588
H	2.650635	-1.506243	-0.356652
