11

C	-0.565465	0.004342	-1.389491
C	0.0	0.0	0.0
F	-0.164224	1.08757	-2.104985
H	1.091261	0.0	0.0
H	-1.658086	-0.037198	-1.417082
H	-0.363327	-0.877852	0.53467
H	-0.349585	0.898809	0.513161
N	-0.142201	-1.241257	-2.144318
O	-0.591913	-2.288131	-1.683727
O	0.5586	-1.124287	-3.13654
Br	3.686906	0.0	0.0
