19

C	0.0	0.0	0.0
C	-0.283112	-0.015223	-1.557207
Cl	1.771649	0.0	0.0
H	0.478019	0.700561	-1.881052
N	-0.616594	1.086736	0.606621
H	-1.657837	0.84634	0.481213
H	-0.408658	1.079389	1.600633
N	-0.323037	-1.328751	0.786907
O	-0.425255	-2.394982	0.19639
O	-0.385692	-1.19268	2.004657
C	-1.582131	0.568267	-2.109703
H	-2.43274	-0.088903	-1.967088
H	-1.835357	1.510769	-1.62822
H	-1.401727	0.754209	-3.179855
C	0.025723	-1.326559	-2.284861
H	-0.792933	-2.034534	-2.166396
H	0.135079	-1.100564	-3.351587
H	0.943366	-1.80547	-1.943037
H	-3.018924	0.0	0.0
