19

C	0.0	0.0	0.0
C	-0.303047	-0.06027	-1.536116
Cl	1.780622	0.0	0.0
H	0.490777	-0.694748	-1.936487
N	-0.673492	0.993021	0.67627
H	-1.718913	0.748607	0.468519
H	-0.524329	0.891737	1.675402
N	-0.258854	-1.428701	0.634798
O	-0.119776	-2.418835	-0.075923
O	-0.513735	-1.447728	1.83375
C	-0.125221	1.348818	-2.106773
H	-0.215363	1.307676	-3.19771
H	0.847731	1.77924	-1.857821
H	-0.902369	2.006831	-1.715004
C	-1.60535	-0.660291	-2.075855
H	-1.413342	-0.888888	-3.135218
H	-2.447294	0.015529	-1.972583
H	-1.888799	-1.577862	-1.567647
H	-3.048648	0.0	0.0
