19

C	0.0	0.0	0.0
C	-0.505793	-0.09814	-1.433634
Cl	1.832183	0.0	0.0
H	-1.543401	-0.444932	-1.283577
N	-0.611594	1.028115	0.689982
H	-0.409357	0.937297	1.680968
H	-1.659913	0.814884	0.52911
N	-0.251445	-1.376574	0.761121
O	-0.185696	-1.314254	1.985277
O	-0.482479	-2.396827	0.124814
C	0.272591	-1.022031	-2.366108
H	-0.340299	-1.213993	-3.252597
H	1.201262	-0.549334	-2.698265
H	0.511548	-1.979368	-1.909319
C	-0.590259	1.298445	-2.047504
H	-0.872304	1.206903	-3.102195
H	0.373113	1.815808	-1.991129
H	-1.342509	1.898258	-1.538067
H	-2.982543	0.0	0.0
