9
Coordinates from ORCA-job run
  C   0.28373040385091     -0.21528561561120     -0.39058112711728
  C   -0.71320477882551      0.31632390961244      0.32780815197116
  H   0.22667655640746     -0.55709460821362     -1.41596932506121
  H   -0.53866382239280      0.62493487732628      1.35409005030946
  N   1.60802378553845     -0.38113635140642      0.20764386515776
  O   2.45680429482352     -0.88124225789517     -0.53069667295755
  O   1.77599426839600     -0.02356951227918      1.36900005738724
  C   -2.01197655309894      0.48573287943635     -0.23469231597889
  N   -3.08838415469910      0.63233667903053     -0.68660268371069
