9
Coordinates from ORCA-job run
  C   0.28619285696216     -0.57044091254350      0.52329038961731
  C   -0.97203916782822     -0.36478000099187      0.10763697361905
  H   0.56124155921452     -1.35357093927313      1.21739548869798
  H   -1.73497154113600     -1.03099301206025      0.50097813245281
  N   1.43191015991708      0.22747433497345      0.09709134912744
  O   2.51221433279907     -0.11808671517877      0.57775733548472
  O   1.24609122447336      1.15533991592738     -0.68376600664001
  C   -1.42222063430517      0.63737908626678     -0.80201574501767
  N   -1.90841879009679      1.41567824287990     -1.53836791734162
