9
Coordinates from ORCA-job run
  C   0.29623902485140     -0.58014530821182      0.50609980063482
  C   -0.96527801409629     -0.38673683250689      0.09456054831836
  H   0.58577425563021     -1.37796122249448      1.17718684588012
  H   -1.71597150580577     -1.07815321380101      0.46737912704156
  N   1.42707775481910      0.25154634225808      0.10548162696256
  O   1.22659296670511      1.19118359372816     -0.65750549892369
  O   2.51117472309439     -0.07991595729599      0.58746518473818
  C   -1.43304038253362      0.63460486743928     -0.78451156516487
  N   -1.93356882266452      1.42657773088466     -1.49615606948704
