9
Coordinates from ORCA-job run
  C   0.34256554372884      0.19153203826181      0.35380300955098
  C   -0.77497235262477     -0.08626087168233     -0.32915905569119
  H   0.42177778464536      0.82205221921279      1.22987012451645
  H   -0.73274337070618     -0.73581421325362     -1.19817926546613
  N   1.62002711046685     -0.38037816004586     -0.07081793748635
  O   2.58949779236230     -0.06565353021915      0.61979118062096
  O   1.63755517474632     -1.11110187015200     -1.05596961780189
  C   -2.03038436683604      0.46037435017389      0.06692437530048
  N   -3.07332331578269      0.90425003770447      0.38273718645670
