9
Coordinates from ORCA-job run
  C   0.31046448015564      0.11359349796153      0.41316613077310
  C   -0.74162228424798     -0.00152654353301     -0.40693883834473
  H   0.31533540655024      0.56999598862015      1.39458586055644
  H   -0.62575655534556     -0.48100274450216     -1.37410020728190
  N   1.61513153706227     -0.40744598891782      0.00557822718764
  O   1.71560021711395     -0.94383351216397     -1.09304459142699
  O   2.51927335228860     -0.25483398366372      0.82713787133252
  C   -2.02235906107836      0.49865922339996     -0.03104401184117
  N   -3.08506709249881      0.90739406279905      0.26565955904510
