9
Coordinates from ORCA-job run
  C   0.28952355751477     -0.74469250578052      0.20439824102290
  C   -0.98274980409708     -0.34856480346901      0.05402639898248
  H   0.56794523693315     -1.75329079738435      0.47998684906686
  H   -1.75326623616895     -1.09603044303517      0.22169369135726
  N   1.44733066324760      0.12521906909549      0.02151316554493
  O   1.26151838714216      1.29115522742278     -0.31216880635535
  O   2.53692524909207     -0.41139324958940      0.22720133388982
  C   -1.43799265853420      0.95489893470935     -0.30401394781653
  N   -1.92923439512952      1.98369856803083     -0.59463692569236
