9
Coordinates from ORCA-job run
  C   0.30110498004148     -0.56245741386517      0.52283256600052
  C   -0.96571088948825     -0.37709419022224      0.12400097487308
  H   0.59683666207865     -1.33660841722036      1.21855639725645
  H   -1.71405239981872     -1.04999649534920      0.53377660279565
  N   1.42988074105470      0.24707891046542      0.07412603813816
  O   1.22172623737752      1.16140673177902     -0.71699858319767
  O   2.52018759107751     -0.07509946235490      0.54825518035070
  C   -1.44181277293910      0.61315649597275     -0.78558519098845
  N   -1.94916014938378      1.38061384079467     -1.51896398522845
