9
Coordinates from ORCA-job run
  C   0.29918699170095     -0.75803928452878      0.12832417787903
  C   -0.97517774830811     -0.34109222993951      0.15109180004216
  H   0.59137024296545     -1.78310920298924      0.31432280437073
  H   -1.73360512055684     -1.08845219966341      0.36721814485784
  N   1.44186371835253      0.10882393448239     -0.14334004667131
  O   1.23849565154188      1.29570009112834     -0.37834431118025
  O   2.53803849081243     -0.45220680902686     -0.11041964338548
  C   -1.44734592884473      0.98483107564741     -0.08045507572215
  N   -1.95282629766359      2.03354462488967     -0.25039785019057
