9
Coordinates from ORCA-job run
  C   0.29535100673085     -0.73192595167338      0.24015160709871
  C   -0.98089593754900     -0.34013041039552      0.11325338398419
  H   0.58206165133685     -1.72332790267520      0.56521831279452
  H   -1.74620148258503     -1.07236894838261      0.35553248331805
  N   1.44734371200477      0.11919923155479     -0.04126330922889
  O   1.25166371784277      1.27053334911411     -0.41724344547351
  O   2.54290296674808     -0.41694162299203      0.13144627345134
  C   -1.44631144539181      0.94071822747123     -0.30782184055021
  N   -1.94691418913747      1.95224402797862     -0.64027346539421
