9
Coordinates from ORCA-job run
  C   0.29927016119978     -0.56697869363249      0.51914325183755
  C   -0.96030871162663     -0.39887799206242      0.09073381097138
  H   0.59243748657373     -1.34895800796110      1.20707404587294
  H   -1.70515729740511     -1.09453773691799      0.46721615038857
  N   1.42238834828250      0.27402532989804      0.11649500310295
  O   2.50548873339277     -0.03267103387944      0.61674606616814
  O   1.21707367312075      1.19686877478243     -0.66540102938445
  C   -1.43292811511959      0.60042272182703     -0.81083399249313
  N   -1.93726427841819      1.37270663794594     -1.54117330646396
