9
Coordinates from ORCA-job run
  C   0.35181560371953      0.05779543405344     -0.39000079328390
  C   -0.77105338730900      0.08512572721269      0.33879222166138
  H   0.47671877802732      0.44021520473956     -1.39487531610326
  H   -0.77740168089605     -0.33049094416410      1.34189964562571
  N   1.57022460102767     -0.52982143967852      0.16631477264828
  O   1.53305873952328     -0.99272994677084      1.30183508861585
  O   2.55057458638092     -0.50323976193283     -0.57785840380439
  C   -1.96933475838157      0.65322208305006     -0.18330498262745
  N   -2.96460248209210      1.11992364349053     -0.60280223273223
