9
Coordinates from ORCA-job run
  C   0.28443900106495     -0.41507970537310     -0.16408078439209
  C   -0.72136065490994      0.43374328045931      0.08145214642056
  H   0.21639553037979     -1.35927447658410     -0.68887645369198
  H   -0.53306596754832      1.35670711962414      0.62141450525989
  N   1.63622138040320     -0.09884818940556      0.29628064437069
  O   2.49263144447073     -0.93936985454297      0.02075213028996
  O   1.81799458462997      0.95032604952216      0.90542334597134
  C   -2.04682324167094      0.14666626267790     -0.35708841117519
  N   -3.14543259207395     -0.07486988386005     -0.71527703073911
