9
Coordinates from ORCA-job run
  C   0.28758694919313     -0.52424499413145      0.56823758442239
  C   -0.97307981710953     -0.34930465970711      0.14584699777234
  H   0.56445080239743     -1.24468502035698      1.32652512407144
  H   -1.73603565713037     -0.97375789757039      0.60245653253254
  N   1.43362290930809      0.22711257651871      0.06534070797160
  O   2.51375605263463     -0.06969795031754      0.57782271505446
  O   1.24825998935993      1.07360389932456     -0.80315018819153
  C   -1.42532701968598      0.57301564594778     -0.84385641447227
  N   -1.91423420896734      1.28895840029243     -1.63922305916096
