9
Coordinates from ORCA-job run
  C   0.27616281503722     -0.39478911025182      0.66957557879417
  C   -0.98795689956649     -0.21699698066672      0.25889326867432
  H   0.53704851275327     -0.93305542309342      1.57118977482464
  H   -1.77159316536081     -0.64376207667719      0.87881769733048
  N   1.44826995230912      0.10966797667306     -0.03937094173108
  O   1.28252581315937      0.73759207355524     -1.08024490242293
  O   2.52828734504899     -0.15164321869451      0.49234934422268
  C   -1.41983156985738      0.47588826130266     -0.91075141263101
  N   -1.89391280352329      1.01909849785269     -1.84045840706125
