9
Coordinates from ORCA-job run
  C   0.26894269257441     -0.65010047731522      0.43093803030695
  C   -0.97719466683823     -0.16533813395595      0.32880310805483
  H   0.52152675932581     -1.51675202398098      1.02745031757611
  H   -1.75444494414343     -0.68567546461364      0.88163936121639
  N   1.43054749069937     -0.07712969106338     -0.24240372137843
  O   2.49376523491016     -0.66196336687119     -0.03031763326823
  O   1.27309161922452      0.91334928492298     -0.94905874260152
  C   -1.39717558337458      0.96626323712794     -0.43125661542356
  N   -1.86005860237803      1.87634663574943     -1.01579410448254
