9
Coordinates from ORCA-job run
  C   0.37428102743984     -0.08515290518391      0.73001926913236
  C   -0.91215366454312      0.19125638105551      0.47117873752957
  H   0.77088726609470     -0.17746815854087      1.73247064740235
  H   -1.56778062867100      0.32559333153482      1.32710278197691
  N   1.39148816434575     -0.29519569887623     -0.29566735145409
  O   2.51953161909848     -0.53910317695994      0.13504631225183
  O   1.06393568680405     -0.21647903972398     -1.47536603576376
  C   -1.51741829715475      0.32974523140105     -0.81293635501212
  N   -2.12377117341393      0.46680403529356     -1.81184800606304
