13
Coordinates from ORCA-job run
  C   0.01307311143631      0.20671531620934     -0.18676353856967
  C   -0.67748912197103     -1.08778004352264     -0.56935537332383
  Cl  0.74663749737593      0.88258253015614     -1.76411918195313
  H   -1.48161388062625     -0.89907420055878     -1.28389154681208
  H   0.02770410609025     -1.78149196843575     -1.02699646115957
  H   -1.10308283346022     -1.53881473519963      0.33001684124078
  C   1.17987659433844     -0.00649032296310      0.75774206653181
  H   1.67864030004213      0.94071685229021      0.97413144603112
  H   1.91281744323859     -0.68403735079128      0.31991025733809
  H   0.80356075650402     -0.42883340426809      1.69232410149237
  N   -0.92159622277607      1.11125954687398      0.38437832779138
  H   -0.48419643757317      1.99407432449110      0.61777650741666
  H   -1.69333131261893      1.29017345571850     -0.24615344602393
