13
Coordinates from ORCA-job run
  C   0.09189379360513      0.25896943127727     -0.27044080891755
  C   -0.68427867745761     -1.02382981833731     -0.54299109473173
  Cl  0.80828311341956      0.78037369193113     -1.84868939218571
  H   -1.47650633065703     -0.84143088709580     -1.27220594866129
  H   -0.03467842771725     -1.81090802792919     -0.93069458305694
  H   -1.14137461603514     -1.37163748910275      0.38872368479815
  C   1.22886728932526      0.03815416357125      0.70984592743738
  H   1.91207612803823     -0.72932415088712      0.34485183063339
  H   0.82497383969722     -0.28741259187664      1.67420073270638
  H   1.77578697856110      0.96988823579245      0.85262438998359
  N   -0.71944483932713      1.36478652354685      0.19638273211019
  H   -1.50990355973314      1.50467719646538     -0.42299234654902
  H   -1.07469469171920      1.14769372264447      1.12138487643315
