18

C	0.0	0.0	0.0
C	-0.352873	-0.00982	-1.516819
F	1.3417	0.0	0.0
H	-1.385497	-0.344601	-1.590871
N	-0.267998	1.349392	0.732936
O	-1.247657	2.025452	0.432286
O	0.56476	1.668337	1.575277
N	-0.755873	-1.018772	0.754685
O	-0.743406	-2.155643	0.18163
O	-0.726372	-0.889761	2.010702
C	0.555138	-0.981515	-2.264353
H	0.556061	-1.949884	-1.766971
H	0.169486	-1.083549	-3.281491
H	1.579904	-0.603694	-2.324339
N	-0.254425	1.295952	-2.167442
H	-0.913074	1.925692	-1.725339
H	0.677027	1.669728	-2.011137
H	-2.144332	0.0	0.0
