16
Coordinates from ORCA-job run
  C   -0.29561625979109     -0.65470352455288      0.18504601451616
  C   0.91464436167056     -0.00755297426512     -0.49837276852836
  Cl  -0.30820648630034     -2.35140110812049     -0.35167696863073
  H   1.81318248448147     -0.57875557325906     -0.25560640451624
  C   -1.63029890313499     -0.01362896812131     -0.09404471554890
  H   -1.80472817684456     -0.00418429414814     -1.17100645784469
  H   -1.65065979882646      1.00259091926614      0.29646185883579
  H   -2.41815856557684     -0.59125312798520      0.38525027406364
  N   0.00089269287717     -0.70216931539361      1.68791503579869
  O   1.17301025277682     -0.87280387311497      2.00092961886505
  O   -0.95404273955043     -0.61285932959725      2.44373701645372
  N   1.20802816294168      1.39930665107628      0.01448970425282
  O   2.14086598814366      1.96354284574674     -0.53640752967828
  O   0.52398930458979      1.82612626285636      0.93612653169708
  C   0.73045391628389      0.06928465811974     -1.94090144185733
  N   0.55564376625966      0.12646075149278     -3.10093976787842
