16
Coordinates from ORCA-job run
  C   -0.20029985969735     -0.60199667006389      0.28655709805251
  C   0.63153313060897      0.19536999226651     -0.72898347277113
  Cl  0.64562133706861     -2.11516314565762      0.59095582439603
  H   0.76203339342133     -0.43656873051378     -1.61049458716126
  C   -1.59987221469066     -0.86224136572090     -0.23558440395124
  H   -2.15476018831756     -1.44709128206597      0.49998409969344
  H   -1.54656461529952     -1.43361943621118     -1.16366628637489
  H   -2.11793780402656      0.08087232229878     -0.41005550927144
  N   -0.33908202628751      0.19544409121812      1.59752701666785
  O   -0.93626272742945      1.25554919961666      1.45626071809718
  O   0.09745101300377     -0.27541651642229      2.63245772046641
  N   2.03458688617276      0.43820272063576     -0.20967323459630
  O   2.94909392440695      0.00411014577186     -0.89803303821041
  O   2.11848651979013      1.04922681392825      0.84809656719616
  C   0.05009725130803      1.47182593697416     -1.12450509518352
  N   -0.39212402003194      2.48149592394553     -1.53084341704938
