16
Coordinates from ORCA-job run
  C   -0.20699136646983     -0.38440095143208      0.43767854198623
  C   0.55017529483859      0.70995228633219     -0.33951960186865
  Cl  0.92111574225544     -1.39312637888035      1.32020606893071
  H   -0.18001557872328      1.32239066869706     -0.87042224757659
  C   -1.14155459977511     -1.22168446996373     -0.41305142418260
  H   -1.80885246351574     -0.57595605220139     -0.98463646244933
  H   -0.57313286091752     -1.84821411608652     -1.09787991773939
  H   -1.72817350183498     -1.86522379030568      0.24521677496081
  N   -1.10023173511164      0.39898948787778      1.42729545174925
  O   -1.77932483993555      1.27028313031082      0.89145706485611
  O   -1.10602320853419      0.08233228305767      2.60334385469488
  N   1.40718938976312      0.07131364377400     -1.41015113543562
  O   0.80503416389859     -0.22980834431711     -2.43674887628990
  O   2.59427935011969     -0.10241000824207     -1.17061834099148
  C   1.36477043214788      1.53683297269932      0.53834656761689
  N   1.98173578179451      2.22972963868007      1.25848368173865
