17

C	-0.459401	-0.000587	-1.44974
C	0.0	0.0	0.0
Br	0.463436	-1.311888	-2.486278
H	1.093951	0.0	0.0
N	-1.975241	-0.224176	-1.498996
O	-2.406318	-1.333975	-1.773039
O	-2.630418	0.754834	-1.155152
N	-0.251431	1.339345	-2.157993
O	0.487861	2.146285	-1.615294
O	-0.833093	1.461557	-3.229619
C	-0.438468	-1.278747	0.729167
H	-1.522754	-1.335823	0.852553
H	0.029759	-1.272441	1.714292
H	-0.084318	-2.159459	0.194134
C	-0.49415	1.161408	0.733995
N	-0.872076	2.046341	1.408486
Cl	3.220418	0.0	0.0
