17

C	-0.467569	-0.010169	-1.447097
C	0.0	0.0	0.0
Br	0.483526	-1.293326	-2.494039
H	1.093971	0.0	0.0
N	-1.976582	-0.276074	-1.483527
O	-2.381037	-1.390629	-1.776755
O	-2.652952	0.677316	-1.110201
N	-0.306569	1.334044	-2.155344
O	0.434338	2.15252	-1.631806
O	-0.918165	1.448626	-3.210982
C	-0.430277	-1.279685	0.732955
H	0.051468	-1.274966	1.711134
H	-0.08336	-2.159782	0.191765
H	-1.512648	-1.336441	0.87063
C	-0.496723	1.161312	0.731789
N	-0.876011	2.047022	1.404229
Cl	3.219283	0.0	0.0
