13

C	0.0	0.0	0.0
C	-0.26723	-0.152983	-1.531985
Br	1.947173	0.0	0.0
H	-0.050082	0.837791	-1.943375
H	0.491635	-0.835445	-1.91857
N	-0.528433	1.226357	0.4982
H	-1.549755	1.158052	0.347617
H	-0.381954	1.273733	1.501824
C	-0.361431	-1.219713	0.747721
N	-0.551268	-2.182255	1.396773
C	-1.513895	-0.647043	-2.127736
N	-2.216636	-1.117885	-2.946536
Br	-3.572116	0.0	0.0
