13

C	0.0	0.0	0.0
C	-0.513158	0.332708	-1.402991
Br	1.960752	0.0	0.0
H	-0.226153	1.364098	-1.621293
H	-1.612192	0.272399	-1.33973
N	-0.502694	0.992984	0.90171
H	-1.52902	0.954934	0.816936
H	-0.263316	0.738774	1.854792
C	-0.330272	-1.395734	0.360248
N	-0.531108	-2.505794	0.692817
C	-0.028922	-0.559502	-2.446576
N	0.321922	-1.252184	-3.327443
Br	-3.66707	0.0	0.0
