13
Coordinates from ORCA-job run
  C   -0.61590462578070     -0.13969271506879     -0.72933047198515
  C   0.70015689096517     -0.02448115965385      0.02801045573000
  H   -0.99439038288131      0.84638755593654     -0.99448405985288
  H   1.03709067952206     -1.03248386333255      0.30433039740713
  H   -0.53195979536783     -0.76210835640297     -1.62288283345507
  N   -1.67073207013390     -0.77994032343448      0.12083892186312
  O   -1.31088832800038     -1.40381963815369      1.11854266821147
  O   -2.82481191590435     -0.65912793597498     -0.27000150455614
  N   0.52466004038752      0.87159379278679      1.16846620710158
  H   0.09588043641809      0.34872321782199      1.92248838543547
  H   1.42184873970043      1.20979872012854      1.49312256055322
  C   1.68947460666490      0.53855441169448     -0.89819081751101
  N   2.48057572441031      0.98559629365295     -1.64090990894172
