13
Coordinates from ORCA-job run
  C   -0.71631446365973     -0.38394248528228      0.30392447328273
  C   0.71768764227366     -0.01053449503495     -0.09934538487967
  H   -0.75139891931301     -1.43487904867404      0.59702092812393
  H   0.99440969344733     -0.63001539435995     -0.95665354008295
  H   -1.09382530020516      0.25462267830948      1.10146872580739
  N   -1.63908182300172     -0.23334849309695     -0.85906890611710
  O   -1.33652411693832     -0.86593256586444     -1.86937883740450
  O   -2.61290547773608      0.50200986400952     -0.72848301211573
  N   1.70433860195944     -0.21185022453317      0.94765521891536
  H   1.45638906954326      0.29476782946660      1.78876188020447
  H   1.79263214071870     -1.19588572920554      1.16781199430092
  C   0.74768748130445      1.39312178014367     -0.53562244796247
  N   0.73690547160719      2.52186628412205     -0.85709109207239
