13
Coordinates from ORCA-job run
  C   -0.62740792956713     -0.12932200510391     -0.74238685469756
  C   0.66200531100674     -0.11857155260717      0.06949658417140
  H   -0.95599184428282      0.87584308841201     -1.00358388764925
  H   0.87264537221407     -1.14994134411873      0.36356761862819
  H   -0.53437919389078     -0.74702426888293     -1.63729519585096
  N   -1.70274884422162     -0.73423394552566      0.09845027318924
  O   -2.73341343427755     -0.08783960855840      0.24988773335428
  O   -1.46899499936241     -1.84618563474653      0.56185728070602
  N   0.45552454652771      0.66123993261621      1.27682963392373
  H   0.43595429688872      1.65237796678628      1.06760218922710
  H   1.19635609737258      0.49377177670204      1.94514809245199
  C   1.76366732368155      0.35407456031762     -0.79339272245941
  N   2.63678329791094      0.77681103470916     -1.45618074499477
