13
Coordinates from ORCA-job run
  C   -0.74291852159894      0.20666567632098     -0.60471952244419
  C   0.65417992088011     -0.13755520049321     -0.10347088246930
  H   -0.83648808046693      0.04232841678352     -1.67960690632470
  H   0.83081813016614     -1.19367765001814     -0.32251579484953
  H   -1.03148555172681      1.22487109387856     -0.34673043338110
  N   -1.71712531802505     -0.70535265326291      0.06484433971045
  O   -2.66072103573756     -0.19065510307437      0.65463196320624
  O   -1.49950700443171     -1.90802333684083     -0.04567202832437
  N   0.69690988932040      0.03700384052974      1.33772400359342
  H   1.52248496728596     -0.39928889187661      1.72776979761288
  H   0.71556008764890      1.02049160558536      1.58085556345660
  C   1.64023493336271      0.66564982911773     -0.85450553770174
  N   2.42805758332278      1.33754237335020     -1.40960456208465
