13
Coordinates from ORCA-job run
  C   -0.67521397252947     -0.66020545577453      0.08706795537489
  C   0.64334049878806      0.05773118961571     -0.17245610442747
  H   -0.95694665472939     -0.64364053646362      1.13927592110834
  H   0.83958771895837      0.02155137180794     -1.24561398022386
  H   -0.59412436117124     -1.68972552102350     -0.26422259684680
  N   -1.79498360585514     -0.02200645166103     -0.66768550511578
  O   -1.54574878875986      0.35549559947372     -1.81040992728359
  O   -2.88388200610408      0.04368257250585     -0.10661548745479
  N   1.69613432428373     -0.67395730218814      0.51836225018035
  H   1.64358557671229     -0.50650196828150      1.51657915113057
  H   2.60422853067207     -0.35509827095359      0.20383512355886
  C   0.53628697638386      1.47878659518405      0.21872893225353
  N   0.48773576335080      2.59388817775862      0.58515426774574
