13
Coordinates from ORCA-job run
  C   -0.86887137686359     -0.12067900672447      0.29968037818512
  C   0.64131463850472     -0.08538170385378      0.08042382743104
  H   -1.23357389327040      0.83024097949751      0.68098723523842
  H   0.94729121156668     -1.01580230061014     -0.41142652569101
  H   -1.12774808252518     -0.92390546155948      0.99385076074931
  N   -1.60338181089707     -0.41009447671962     -0.96770662135280
  O   -1.09954794072941     -1.23443907159381     -1.72803081944807
  O   -2.67150240443737      0.16881529827048     -1.13754544664333
  N   1.26211375327054      0.14350372875630      1.38724057105440
  H   2.21705506041448      0.45961443501763      1.27092464263134
  H   1.28988178520252     -0.73113129518243      1.89892494822295
  C   0.98334002213619      1.01757341892433     -0.82506193526806
  N   1.26362903762788      1.90268545577747     -1.54326101510931
