15

C	-0.510499	-0.037953	-1.428271
C	0.0	0.0	0.0
Br	0.246829	1.352786	-2.547413
H	1.098871	0.0	0.0
H	-0.263107	-0.999095	-1.868637
N	-2.011974	0.065889	-1.452611
O	-2.615065	-1.007593	-1.407964
O	-2.539507	1.174074	-1.430283
N	-0.393666	-1.23643	0.650643
H	-1.21079	-1.059445	1.222236
H	0.375926	-1.521123	1.249452
N	-0.524323	1.16761	0.722835
H	0.131686	1.316469	1.483496
H	-0.437763	1.986671	0.131957
H	2.816057	0.0	0.0
