15

C	-0.465656	-0.000507	-1.436099
C	0.0	0.0	0.0
Br	-0.316838	1.699156	-2.349436
H	1.095206	0.0	0.0
H	0.107026	-0.725483	-2.010216
N	-1.902284	-0.437923	-1.561835
O	-2.689112	-0.075187	-0.687734
O	-2.201482	-1.131611	-2.530254
N	-0.345534	-1.34375	0.489411
H	0.439109	-1.6666	1.047654
H	-1.17435	-1.306564	1.070741
N	-0.428809	1.142752	0.765929
H	-1.358775	1.016979	1.143268
H	0.240027	1.286354	1.512715
H	2.810955	0.0	0.0
