16

C	0.0	0.0	0.0
C	-0.53535	0.255027	-1.405932
F	1.392587	0.0	0.0
H	-1.63244	0.196138	-1.294152
C	-0.479089	1.022242	1.007909
H	-0.070848	0.773709	1.989471
H	-0.122898	2.012298	0.714734
H	-1.570679	1.002242	1.037996
C	-0.373926	-1.369356	0.414002
N	-0.550842	-2.458624	0.813231
N	-0.072331	-0.776437	-2.32063
H	0.87709	-0.587405	-2.615634
H	-0.670524	-0.804801	-3.135535
C	-0.166227	1.615276	-1.841767
N	0.169073	2.662644	-2.256859
Cl	-3.654998	0.0	0.0
