16

C	0.0	0.0	0.0
C	-0.518893	0.239678	-1.427805
F	1.39061	0.0	0.0
H	-1.612387	0.333894	-1.324559
C	-0.472676	1.041656	0.990036
H	-1.563111	1.013235	1.036185
H	-0.04374	0.826013	1.970463
H	-0.130144	2.024509	0.658895
C	-0.381238	-1.363548	0.423225
N	-0.580097	-2.454558	0.807907
N	-0.222304	-0.821634	-2.37818
H	-0.877455	-1.578841	-2.223503
H	0.717404	-1.169874	-2.224322
C	0.034359	1.510033	-1.919515
N	0.472802	2.529103	-2.30379
Cl	-3.609236	0.0	0.0
