16

C	0.0	0.0	0.0
C	-0.57055	-0.073697	-1.42709
F	1.379196	0.0	0.0
H	-1.616253	0.26245	-1.341627
C	-0.468099	1.257094	0.705314
H	-0.139157	2.125744	0.129066
H	-1.556367	1.24507	0.780307
H	-0.017237	1.300617	1.698812
C	-0.393037	-1.207835	0.753209
N	-0.589875	-2.180813	1.379213
N	-0.466234	-1.436072	-1.964029
H	-0.602764	-1.3981	-2.968549
H	-1.25949	-1.948308	-1.585746
C	0.17516	0.857897	-2.275155
N	0.750924	1.608314	-2.970685
Cl	-3.621511	0.0	0.0
