16

C	0.0	0.0	0.0
C	-0.541322	0.276038	-1.398395
F	1.392971	0.0	0.0
H	-1.637799	0.22826	-1.274919
C	-0.473245	1.010453	1.023275
H	-1.564877	0.995821	1.057567
H	-0.061187	0.747475	1.99882
H	-0.114151	2.002652	0.739641
C	-0.377172	-1.373924	0.396172
N	-0.585366	-2.471183	0.75604
N	-0.099338	-0.749447	-2.330057
H	0.841202	-0.557378	-2.649545
H	-0.719281	-0.776622	-3.127988
C	-0.16284	1.636651	-1.823049
N	0.16644	2.688102	-2.23229
Cl	-3.645297	0.0	0.0
