16

C	0.0	0.0	0.0
C	-0.486296	0.236419	-1.440305
F	1.390904	0.0	0.0
H	-1.582479	0.304503	-1.370439
C	-0.456628	1.065441	0.973293
H	-0.103744	0.81653	1.976496
H	-1.544984	1.116414	0.961688
H	-0.018185	2.01893	0.671567
C	-0.390442	-1.359105	0.424837
N	-0.551629	-2.465572	0.783013
N	-0.119576	-0.808885	-2.383716
H	-0.753768	-1.588686	-2.263072
H	0.824226	-1.125102	-2.191416
C	0.055737	1.523695	-1.904676
N	0.485214	2.558497	-2.256204
Cl	-3.594454	0.0	0.0
