16

C	0.0	0.0	0.0
C	-0.243085	0.120581	-1.529878
F	1.395646	0.0	0.0
H	0.263064	-0.771536	-1.932092
C	-0.496466	1.136775	0.850316
H	-1.588087	1.105982	0.865821
H	-0.1006	1.017557	1.862243
H	-0.143055	2.070857	0.415674
C	-0.399501	-1.326377	0.49778
N	-0.560967	-2.414462	0.908864
N	0.409323	1.363494	-1.973181
H	1.411559	1.237624	-1.910291
H	0.164023	1.524954	-2.94193
C	-1.577347	0.104822	-2.147432
N	-2.293375	0.136359	-3.082619
Cl	-3.529303	0.0	0.0
