17

C	-0.528815	-0.089226	-1.43135
C	0.0	0.0	0.0
F	-1.948203	-0.252183	-1.328169
H	1.089621	0.0	0.0
N	-0.254782	1.145026	-2.085456
H	-0.801185	1.201513	-2.937307
H	-0.504813	1.903529	-1.460753
N	-0.035093	-1.243477	-2.109618
H	0.937701	-1.375865	-1.852278
H	-0.074707	-1.082185	-3.110001
N	-0.424939	-1.268498	0.731055
O	0.205158	-2.291727	0.495877
O	-1.369001	-1.186396	1.518827
N	-0.497612	1.174642	0.643014
H	-1.425238	0.992368	1.004375
H	0.118578	1.415335	1.407663
Cl	3.336588	0.0	0.0
