17

C	-0.4849	0.018236	-1.455364
C	0.0	0.0	0.0
F	0.061127	1.184219	-2.020682
H	1.090419	0.0	0.0
N	-0.01118	-1.147514	-2.112789
H	-0.188674	-1.088201	-3.108278
H	0.987517	-1.252959	-1.94899
N	-1.907716	0.231268	-1.552379
H	-2.142207	0.472105	-2.507298
H	-2.392417	-0.611897	-1.275582
N	-0.477309	-1.310066	0.583502
O	0.343563	-2.198218	0.78402
O	-1.688305	-1.410115	0.799707
N	-0.502684	1.074534	0.791229
H	0.206368	1.793362	0.837766
H	-1.351486	1.43696	0.373618
Cl	3.351334	0.0	0.0
