17

C	-0.356324	0.073241	-1.492616
C	0.0	0.0	0.0
F	-1.640499	0.674349	-1.649913
H	1.089298	0.0	0.0
N	0.576019	0.989626	-2.065148
H	0.503183	0.993765	-3.075029
H	1.525497	0.744123	-1.786656
N	-0.373008	-1.217013	-2.098267
H	-1.18696	-1.731244	-1.785182
H	-0.396392	-1.122706	-3.105755
N	-0.520863	-1.265115	0.618007
O	0.205359	-1.878437	1.388946
O	-1.693194	-1.567007	0.364053
N	-0.495525	1.091242	0.786725
H	0.251642	1.757406	0.922772
H	-1.267288	1.534967	0.308036
Cl	3.376459	0.0	0.0
