17

C	-0.44513	0.037277	-1.469901
C	0.0	0.0	0.0
F	-0.138792	-1.15829	-2.115997
H	1.09715	0.0	0.0
N	-1.864367	0.191852	-1.541512
H	-2.135982	0.497871	-2.468229
H	-2.108734	0.904922	-0.862184
N	0.320396	1.105445	-2.050563
H	0.131268	1.148215	-3.046981
H	1.312236	0.903543	-1.919629
N	-0.489003	-1.22666	0.695266
O	-1.250235	-1.083664	1.655465
O	-0.076188	-2.304142	0.283844
N	-0.548517	1.181093	0.655966
H	-0.473591	1.05059	1.657532
H	0.063769	1.945439	0.391562
Cl	3.337031	0.0	0.0
