17

C	-0.473995	0.03965	-1.453279
C	0.0	0.0	0.0
F	-0.154661	-1.242622	-2.002005
H	1.089528	0.0	0.0
N	-1.881129	0.253033	-1.576874
H	-2.34859	-0.459374	-1.02673
H	-2.146512	0.125903	-2.547498
N	0.256745	1.063468	-2.102011
H	1.244533	0.830888	-2.118928
H	-0.082013	1.231436	-3.038471
N	-0.463924	-1.285172	0.642209
O	-1.687377	-1.432406	0.756623
O	0.371625	-2.077589	1.052422
N	-0.491976	1.075884	0.809931
H	0.196732	1.813274	0.798704
H	-1.35703	1.423587	0.420662
Cl	3.40459	0.0	0.0
