17

C	-0.558615	0.084328	-1.4293
C	0.0	0.0	0.0
F	-1.983413	0.069046	-1.226883
H	1.095648	0.0	0.0
N	-0.270697	1.339345	-2.051039
H	-0.413061	2.061472	-1.354631
H	0.717147	1.323398	-2.283149
N	-0.138809	-0.938504	-2.291995
H	-0.656292	-0.879478	-3.156806
H	-0.189069	-1.851911	-1.869408
N	-0.440624	-1.307371	0.66015
O	-0.123952	-2.363301	0.114892
O	-1.079605	-1.242309	1.709155
N	-0.445556	1.13249	0.74489
H	0.164428	1.272335	1.538402
H	-1.392387	0.995174	1.07127
Cl	3.316092	0.0	0.0
