17

C	-0.513638	-0.115013	-1.436217
C	0.0	0.0	0.0
F	-1.928487	-0.32282	-1.346622
H	1.089662	0.0	0.0
N	-0.272522	1.123097	-2.095514
H	-0.555126	1.875717	-1.479301
H	-0.807775	1.154368	-2.955029
N	0.026687	-1.256144	-2.099425
H	0.996424	-1.365561	-1.820564
H	0.0073	-1.096491	-3.098587
N	-0.424618	-1.25942	0.745275
O	-1.365484	-1.166832	1.537148
O	0.197647	-2.287783	0.512481
N	-0.504023	1.181301	0.625642
H	0.118542	1.443762	1.376769
H	-1.423231	0.994717	1.004162
Cl	3.335262	0.0	0.0
