15

C	-0.533036	-0.031445	-1.427159
C	0.0	0.0	0.0
Br	0.290577	-1.452297	-2.452618
H	1.092084	0.0	0.0
H	-0.320743	-0.939859	0.460878
C	-1.980336	-0.223683	-1.470529
N	-3.136215	-0.434511	-1.43903
N	-0.223455	1.317088	-2.097701
O	-1.143047	2.133342	-2.073996
O	0.906036	1.496768	-2.514534
C	-0.517433	1.195347	0.794311
H	-1.608522	1.269376	0.793402
H	-0.174363	1.091659	1.825764
H	-0.102347	2.129494	0.411923
Br	3.571196	0.0	0.0
