15

C	-0.463151	-0.015984	-1.450836
C	0.0	0.0	0.0
Br	0.288406	1.435518	-2.482054
H	1.092922	0.0	0.0
H	-0.334892	-0.947688	0.435485
C	-0.141668	-1.267391	-2.125747
N	0.103652	-2.273846	-2.678528
N	-2.004774	0.084844	-1.429472
O	-2.56394	-0.945134	-1.065653
O	-2.541491	1.158128	-1.654321
C	-0.524843	1.180441	0.804146
H	-0.043939	1.164032	1.784
H	-1.608196	1.14319	0.952909
H	-0.268175	2.128554	0.328619
Br	3.535834	0.0	0.0
