15

C	-0.530928	0.001614	-1.418763
C	0.0	0.0	0.0
Br	0.305826	-1.379799	-2.510333
H	1.091119	0.0	0.0
H	-0.335182	0.938828	0.456924
C	-1.97942	-0.188221	-1.475592
N	-3.140062	-0.374583	-1.430233
N	-0.229457	1.335779	-2.128663
O	0.731804	1.969472	-1.72615
O	-0.971593	1.632788	-3.059312
C	-0.491913	-1.193185	0.812374
H	-1.580442	-1.218453	0.91474
H	-0.156134	-2.130708	0.365358
H	-0.049486	-1.13357	1.80875
Br	3.560816	0.0	0.0
