12
Coordinates from ORCA-job run
  C   -0.41501998559259      0.11922821871388     -0.01794699498708
  C   0.61885344124297     -0.50838186792918      0.60000491823615
  H   0.54560747798285     -0.92038275477119      1.59247251904564
  N   -1.67682518517592      0.23506414518353      0.76833957060301
  O   -2.55221722494794      0.94885286896217      0.28118446220656
  O   -1.75322096955210     -0.37014597070204      1.83043699157440
  N   -0.52066515076613      0.62278538990356     -1.25585547509645
  H   0.33734690725997      0.70952485426033     -1.77882170806095
  H   -1.29982433042530      1.23516739706446     -1.43615894832681
  N   1.89328953012301     -0.65092996123982     -0.02970779744442
  O   2.76864136472522     -1.22382230001073      0.61954051320930
  O   2.05203412512595     -0.19696001943497     -1.17348805095935
