12
Coordinates from ORCA-job run
  C   -0.38915518810909      0.20210952726332      0.02167463887520
  C   0.46880649250719     -0.77528689348905      0.40325348703943
  H   0.17551586445594     -1.55736676107576      1.08617426141950
  N   -1.79258481975232      0.02642787095018      0.44900894858899
  O   -2.64147783332978      0.35965313702349     -0.37783238762109
  O   -2.00489575008977     -0.45730180759563      1.55432804658172
  N   -0.18534935181794      1.34709666539228     -0.66425850206676
  H   -0.99208357536448      1.69264217438563     -1.16526418170516
  H   0.68758015129841      1.39573823036243     -1.17010200690227
  N   1.85742352743625     -0.73382309243261      0.06083600937913
  O   2.22890104142263      0.04837876446289     -0.82423793296259
  O   2.58631944134296     -1.54926781524717      0.62541961937390
