12
Coordinates from ORCA-job run
  C   -0.19919752990769      0.45134426454228     -0.11614618278533
  C   0.95664720501028     -0.19555156191554     -0.35271209516573
  H   1.75341332824228      0.23562303218388     -0.94350150738253
  N   -1.24376012687943     -0.09088978742269      0.77687041545141
  O   -2.34428834776631     -0.24950248825530      0.25340017386227
  O   -0.94930837108355     -0.26056215600054      1.95113678651632
  N   -0.54655877696417      1.69979309934819     -0.55249638475713
  H   -1.53832342293170      1.82724797341647     -0.69407756924443
  H   0.01931384401976      2.07564569159798     -1.29780083946174
  N   1.27169065345564     -1.49277179888610      0.19488453449774
  O   0.34918335482717     -2.23486111206479      0.52738341313986
  O   2.47118818997773     -1.76551515654386      0.25305925532929
