12
Coordinates from ORCA-job run
  C   -0.35412695951604      0.21948463194045      0.11550448713530
  C   0.40769310919079     -0.90487240327528      0.12682241705234
  H   0.06813366033710     -1.83833762752853      0.54327088686813
  N   -1.72117907383664      0.09171022365102      0.69709160276460
  O   -2.00524381588385     -0.94598582545065      1.28252648191086
  O   -2.46971279027853      1.05373992893158      0.53180463923382
  N   -0.07151103371800      1.46566138203540     -0.29058768439059
  H   -0.84999641211103      2.09285298694077     -0.41459232698496
  H   0.77313532523705      1.57928667515381     -0.82996977259441
  N   1.72095338770691     -0.92620339344867     -0.43556732632037
  O   2.32442731137135     -1.99833791592000     -0.38687268310546
  O   2.17642729150088      0.11300133697009     -0.93743072156927
