12
Coordinates from ORCA-job run
  C   -0.20522759132899      0.45368890886136     -0.09584639524730
  C   0.97013547980762     -0.15575213671762     -0.33554982221343
  H   1.77404900308981      0.32584483721717     -0.87560207123636
  N   -1.26311724424587     -0.16127917231799      0.73201935514865
  O   -1.00054436113919     -0.39109384433036      1.90361436651485
  O   -2.34271269610841     -0.31551885139747      0.16539654560259
  N   -0.56752648100683      1.71861375703980     -0.46887022268113
  H   0.01164493788786      2.14745284900436     -1.17443953317590
  H   -1.55717965323868      1.83154771020765     -0.63605943588470
  N   1.29816471396444     -1.47517274653941      0.14785641994881
  O   0.38300581510950     -2.25354811982830      0.41003800547321
  O   2.50130807720875     -1.72578319119920      0.22644278775070
