12
Coordinates from ORCA-job run
  C   -0.38561509723365      0.19481676046405      0.00208911978987
  C   0.43522047654533     -0.81988030512693     -0.37381709203132
  H   0.08112711474111     -1.70285231813135     -0.87889957685877
  N   -1.83454045458659      0.01263458313819     -0.30020995099650
  O   -2.59686380629891      0.84116219851730      0.19525229126578
  O   -2.16349733902079     -0.93626954487191     -1.00124216545685
  N   -0.11289075606048      1.37997497056810      0.56675185699251
  H   -0.88832067759128      1.88565033497611      0.96396191269231
  H   0.82000795403913      1.49624578471443      0.93213943945237
  N   1.83834342529476     -0.78750405526873     -0.10626645384232
  O   2.31617449172608      0.19931665774100      0.47444996532099
  O   2.49285466844529     -1.76329506672024     -0.47420934632809
