12
Coordinates from ORCA-job run
  C   -0.37005720451063      0.21277832698494      0.06914905070930
  C   0.47350960666989     -0.82261489658420      0.31494089468845
  H   0.20326586396169     -1.66625614559962      0.92766846190935
  N   -1.72730007397194      0.11220090049399      0.67869074912618
  O   -2.54512816220298      0.95656298486295      0.31630548961759
  O   -1.93648686431521     -0.79283187862057      1.47706142713286
  N   -0.17830743662059      1.36045966110248     -0.59766563721626
  H   0.65741037585358      1.41344874562647     -1.16014767479935
  H   -1.00193898300264      1.88219555639744     -0.85156272095053
  N   1.78819370942434     -0.86753897058230     -0.24253491890932
  O   2.16764151236193      0.06885639360089     -0.96267169694464
  O   2.47019765635256     -1.85526067768247      0.03176657563637
