12
Coordinates from ORCA-job run
  C   -0.35268318294610      0.22126060435473      0.11499064676294
  C   0.37445061911577     -0.92523840748797      0.07566786976789
  H   -0.01257512711378     -1.87516851845743      0.40420038022045
  N   -1.74895931401866      0.09596360176108      0.62304785005753
  O   -2.46028755322325      1.09146805947133      0.49672733220789
  O   -2.09046447726340     -0.97215436675299      1.11574051211503
  N   -0.01467052022083      1.48399770068674     -0.18275574719290
  H   -0.76660402125916      2.14545310590246     -0.29084279082367
  H   0.85949672580415      1.61026529203105     -0.66966108491220
  N   1.71178246856505     -0.94783617810454     -0.42643410282165
  O   2.22129450316263      0.11093981510751     -0.82495420631837
  O   2.28021987939756     -2.03995070851198     -0.43372665906295
