12
Coordinates from ORCA-job run
  C   -0.40625561950964      0.18064567132529      0.02466464419979
  C   0.38912887612347     -0.90402709929346      0.04717189162548
  H   0.02267378959973     -1.91338951727176      0.16157187702407
  N   -1.84441214665289     -0.07157708413877      0.23599499221039
  O   -2.22347117518068     -0.08713634955460      1.40596383487449
  O   -2.53303223445234     -0.20339405035959     -0.76954280521732
  N   -0.13905438416207      1.49214485008705     -0.23941734125665
  H   0.85332625566408      1.68325744005664     -0.28075042107954
  H   -0.63194927069593      2.14970104529854      0.35024423453333
  N   1.80167286512806     -0.79844895176525     -0.23745828223864
  O   2.37434223415031      0.26748753531419      0.01089118960672
  O   2.33803080998790     -1.79826348969826     -0.70933381428212
