12
Coordinates from ORCA-job run
  C   -0.39846957850004      0.16744677489229     -0.00494400983342
  C   0.45114616182423     -0.88265784608769      0.13703229475699
  H   0.11342400309924     -1.90177340269114      0.22362938185488
  N   -1.85084606388883     -0.16645015326693     -0.06029649217627
  O   -2.60466378314028      0.75542575574092     -0.36851545003884
  O   -2.18919011973904     -1.31626361835547      0.19191474952980
  N   -0.16144654937802      1.48598325771623     -0.05674339346444
  H   0.80099205497784      1.76285176911738     -0.17662188334665
  H   -0.91139222992810      2.07271270872978     -0.38548634164860
  N   1.86814700142166     -0.70281566259615      0.16105432459397
  O   2.32942272119442      0.44491877153003      0.06350161385730
  O   2.55187638205694     -1.72037835472926      0.27547520591527
