12
Coordinates from ORCA-job run
  C   -0.39435640125534      0.17433372317278     -0.02460416483011
  C   0.42898140542576     -0.88540779561516      0.18508590152775
  H   0.07728002325822     -1.83925500082953      0.54084452604779
  N   -1.83583120770899     -0.04259687068158      0.28940451380715
  O   -2.20427170403336     -1.17994890836049      0.55574100942288
  O   -2.55035508525569      0.95833490139186      0.26259122285120
  N   -0.14340157309352      1.39464349636588     -0.51892980736480
  H   0.82756779481891      1.65205801018108     -0.60856181093144
  H   -0.85434116472639      2.09667779873957     -0.39156905430294
  N   1.83693629235399     -0.79634358129541     -0.03945402089875
  O   2.49820359762495     -1.80846070100577      0.19369497736454
  O   2.31358802259146      0.27496492793676     -0.44524329269326
