12
Coordinates from ORCA-job run
  C   -0.21679709680244      0.44547576282376     -0.10766815979859
  C   0.96016305727401     -0.15462058684491     -0.36268975784153
  H   1.73659195162743      0.31486697853691     -0.95139636949886
  N   -1.23440542515026     -0.14970295889184      0.78295103997113
  O   -0.92695420226788     -0.32456797951903      1.95307644005353
  O   -2.33094090732360     -0.34302064546905      0.26278057774515
  N   -0.61342908427600      1.68748241716881     -0.52035087800818
  H   -0.06621390000459      2.09558213772546     -1.26273057811851
  H   -1.61007178734657      1.77864272781645     -0.65609071844354
  N   1.32795485721564     -1.44699634478894      0.16313939429051
  O   0.43676061158822     -2.22783637587832      0.49196237928524
  O   2.53734192546604     -1.67530513267929      0.20701663036365
