12
Coordinates from ORCA-job run
  C   -0.22367007388955      0.42684325621457     -0.15760246368706
  C   0.86417010705135     -0.28867279195013     -0.49736384412871
  H   1.53645189158167      0.01727069186686     -1.28747878934035
  N   -1.20002495079090     -0.04273515986231      0.84666546507398
  O   -1.36693439879710      0.71259188912740      1.80175513797942
  O   -1.79851035413840     -1.08190706646756      0.60954738399303
  N   -0.64748974689822      1.59747861794822     -0.72315984771827
  H   -1.14894994994899      2.20418763280832     -0.09040346744726
  H   0.03267546416084      2.07925385117643     -1.29085273948277
  N   1.21161739445583     -1.55050548711019      0.10990263157768
  O   0.78975099133081     -1.80078175058010      1.23748212030616
  O   1.94991362588267     -2.27402368317151     -0.55949158712585
