12
Coordinates from ORCA-job run
  C   -0.38273294562609      0.18846495758536     -0.06740443173292
  C   0.37946815501565     -0.91054647309384      0.16910409609718
  H   -0.03990885652658     -1.87888275366549      0.38479048311152
  N   -1.85898843431128     -0.00797069430365      0.01056420104042
  O   -2.28471791134154     -1.15135979666146      0.11805981440200
  O   -2.54197921199136      1.01418727759920     -0.03178223499213
  N   -0.03771665321655      1.43679705084235     -0.41360900170885
  H   -0.74541747370922      2.14833565096207     -0.32696831292774
  H   0.94080099854403      1.66849787190913     -0.33545037231894
  N   1.80678175210790     -0.84778340214378      0.16321865001292
  O   2.35920555108093      0.23752596988552     -0.07411218828073
  O   2.40620502997413     -1.89626565891541      0.40258929729726
