12
Coordinates from ORCA-job run
  C   -0.21852253415315      0.42862872856497     -0.16059415205474
  C   0.85133152764236     -0.30966196665292     -0.50805193324868
  H   1.51047568572241     -0.03032064057055     -1.31884397899773
  N   -1.18372848491719     -0.00922636374963      0.86912674327117
  O   -1.32972173890329      0.76891335291763      1.80914929820292
  O   -1.79360567748944     -1.04889184327513      0.66539827712498
  N   -0.63610211344614      1.59591346643193     -0.73772194515914
  H   -1.11665014954020      2.21972542580170     -0.10537657573728
  H   0.04004834327695      2.05831456165691     -1.32593476674944
  N   1.18882740350645     -1.56720793591138      0.11381068068715
  O   0.79521721828022     -1.78488660048218      1.25831408321584
  O   1.89243052002101     -2.31930018473135     -0.56127573055505
