12
Coordinates from ORCA-job run
  C   -0.39272914622494      0.17580780223930      0.04014628947830
  C   0.42371992088755     -0.85076587925178     -0.31139495533447
  H   0.05419779911231     -1.81889180981431     -0.60542136520122
  N   -1.85519372396115     -0.11690986928517      0.03106824268284
  O   -2.22881705440903     -1.17928514956550     -0.45034818709942
  O   -2.58050830415143      0.74510905345285      0.52500250364113
  N   -0.11533096148740      1.44999769850012      0.35357410596820
  H   -0.84667590962724      1.97624766145972      0.80447824029305
  H   0.85478037897696      1.66315239113124      0.52991385692530
  N   1.84567331776284     -0.71328872756027     -0.30662276977111
  O   2.49716618454245     -1.70568690881807     -0.63299738556506
  O   2.34271749857907      0.37451373751187      0.02360142398245
