12
Coordinates from ORCA-job run
  C   -0.35378506011759      0.21382813153244      0.00987276103520
  C   0.48471198407895     -0.77022144359262      0.40647081453850
  H   0.23135305032441     -1.55903991925617      1.09601947168657
  N   -1.70181012279341      0.16826929144022      0.66265079780124
  O   -2.63291099565444      0.62491265397249      0.00170566856282
  O   -1.79537464252096     -0.41573607907168      1.73428247200861
  N   -0.24448314229264      1.15323698524594     -0.96284886766745
  H   -1.08189952179567      1.70988603539692     -1.07066789448220
  H   0.62489605458791      1.66164924088221     -1.00809153736452
  N   1.80652638917824     -0.89230189669875     -0.15022896804178
  O   2.47105411555082     -1.85599985539262      0.23483503362349
  O   2.19172189145437     -0.03748314445836     -0.95499975170048
