12
Coordinates from ORCA-job run
  C   -0.19413479152441      0.46709233849784      0.03531743407213
  C   1.01098982332030     -0.07192107688896     -0.22482531703154
  H   1.88118753901941      0.53119350825530     -0.44588112820463
  N   -1.35669716704050     -0.34850129987328      0.44302260624855
  O   -1.26788319816970     -0.97401105114931      1.48952870707296
  O   -2.33957620500525     -0.25479498380403     -0.28881602507200
  N   -0.51117322732833      1.79688719970980      0.06701865635893
  H   -1.46659980400997      1.99967721112294     -0.18997708152551
  H   0.16123320489714      2.41651385737561     -0.35840562524044
  N   1.27873762155693     -1.48889512643531     -0.17798137438875
  O   0.34454827168657     -2.27331619381251     -0.33320533525825
  O   2.45936793259783     -1.79892438299811     -0.01479551703147
