12
Coordinates from ORCA-job run
  C   -0.17880095719076      0.47303624859448      0.03748297842416
  C   1.01661526878139     -0.10372906771510     -0.18329298342873
  H   1.91680447844074      0.47134169672429     -0.35301264649812
  N   -1.38573273672133     -0.30818368437006      0.37700432637399
  O   -2.33228209529220     -0.16318516816372     -0.39337645339370
  O   -1.36425430973805     -0.95867456779622      1.41172940204906
  N   -0.44942883614312      1.81248198327343      0.08565467725369
  H   0.26259679950012      2.41617981265945     -0.29586804077517
  H   -1.38514316400554      2.05602967875245     -0.20595909773311
  N   1.23137311454599     -1.53019964371632     -0.15764856038543
  O   2.39197345074006     -1.88692005236795      0.04807357206641
  O   0.27727898708270     -2.27617723587472     -0.37078717395303
