14

C	0.0	0.0	0.0
C	-0.50909	0.017869	-1.441981
Br	1.961832	0.0	0.0
H	-1.621184	0.044885	-1.256893
H	-0.145647	0.931117	-1.925159
C	-0.427272	1.268049	0.73406
H	0.004735	2.132617	0.220945
H	-1.522144	1.252449	0.692967
H	-0.050633	1.252505	1.759262
C	-0.424532	-1.216264	0.691623
N	-0.623403	-2.241317	1.230736
C	-0.089472	-1.130307	-2.23048
N	0.248538	-2.039292	-2.894594
F	-2.725606	0.0	0.0
