14

C	0.0	0.0	0.0
C	-0.515537	0.020614	-1.439537
Br	1.962086	0.0	0.0
H	-1.627893	0.04319	-1.248429
H	-0.16108	0.937439	-1.922094
C	-0.432532	1.263124	0.740337
H	-0.005392	2.132677	0.231665
H	-0.058474	1.243741	1.76625
H	-1.527649	1.242988	0.698165
C	-0.419274	-1.22152	0.687221
N	-0.604685	-2.254283	1.215756
C	-0.096417	-1.12388	-2.232843
N	0.247017	-2.029325	-2.899207
F	-2.731291	0.0	0.0
