14

C	0.0	0.0	0.0
C	-0.395012	-0.343493	-1.452487
Br	1.965093	0.0	0.0
H	-0.064724	-1.36746	-1.657257
H	0.200881	0.304417	-2.105075
C	-0.388577	1.417836	0.418965
H	0.027901	1.645749	1.402771
H	0.024109	2.123305	-0.307395
H	-1.4789	1.426785	0.42562
C	-0.440202	-1.022708	0.938876
N	-0.59157	-1.882378	1.725834
C	-1.809029	-0.22595	-1.888013
N	-2.590126	-0.271793	-2.775422
F	-2.551112	0.0	0.0
