14

C	0.0	0.0	0.0
C	-0.616799	0.216731	-1.379293
Br	1.963093	0.0	0.0
H	-0.363177	-0.604625	-2.05551
H	-1.733452	0.17561	-1.074357
C	-0.471465	1.065961	0.984449
H	-0.126889	2.047139	0.651248
H	-1.566043	0.985838	0.951666
H	-0.076855	0.867241	1.98337
C	-0.383655	-1.335566	0.470513
N	-0.574365	-2.423417	0.871285
C	-0.245009	1.48692	-1.972397
N	0.032779	2.518286	-2.465282
F	-2.834894	0.0	0.0
