15

C	-0.266337	0.162903	-1.477695
C	0.0	0.0	0.0
Cl	-2.042578	0.301375	-1.867183
H	1.103748	0.0	0.0
H	0.043164	-0.779824	-1.931016
C	0.513286	1.327554	-2.044613
H	0.469508	1.350071	-3.135762
H	1.54208	1.179445	-1.696278
H	0.135179	2.277396	-1.658147
N	-0.453963	-1.289053	0.508524
H	0.232578	-1.620258	1.178768
H	-1.352543	-1.215139	0.965209
C	-0.472338	1.143991	0.776429
N	-0.840566	2.056733	1.422149
F	2.601483	0.0	0.0
