15

C	-0.328952	-0.136071	-1.494305
C	0.0	0.0	0.0
Cl	-0.139885	1.450103	-2.330278
H	1.096111	0.0	0.0
H	-1.380596	-0.413324	-1.64827
C	0.641483	-1.134581	-2.114095
H	0.591433	-1.116734	-3.204567
H	1.644156	-0.874064	-1.751038
H	0.394706	-2.147384	-1.776033
N	-0.356217	-1.216223	0.742949
H	-1.125936	-1.719439	0.312401
H	0.468234	-1.804672	0.743524
C	-0.62908	1.159482	0.61953
N	-1.15398	2.084158	1.121867
F	2.620498	0.0	0.0
