15

C	-0.237231	-0.006672	-1.49624
C	0.0	0.0	0.0
Cl	-1.98498	0.085104	-1.972558
H	1.103728	0.0	0.0
H	0.100544	-0.981002	-1.858704
C	0.578049	1.089395	-2.149184
H	1.592374	0.973717	-1.747951
H	0.189034	2.071786	-1.871766
H	0.569191	1.000922	-3.238029
N	-0.550982	-1.203164	0.656938
H	-0.358007	-1.102315	1.650735
H	0.05665	-1.961189	0.352273
C	-0.522103	1.204424	0.620274
N	-0.927948	2.188464	1.119054
F	2.629275	0.0	0.0
