15

C	-0.167108	0.006618	-1.512965
C	0.0	0.0	0.0
Cl	-1.916796	-0.035472	-2.040904
H	1.097939	0.0	0.0
H	0.246628	-0.941591	-1.863423
C	0.583955	1.159142	-2.137921
H	0.129375	2.114353	-1.869714
H	0.620355	1.073069	-3.224662
H	1.590049	1.09779	-1.707527
N	-0.484082	-1.182445	0.693292
H	-1.365068	-1.494563	0.295251
H	0.210226	-1.909027	0.571063
C	-0.533701	1.215945	0.598666
N	-0.96233	2.202481	1.07358
F	2.601731	0.0	0.0
