11

C	0.0	0.0	0.0
C	-0.2652	-0.036128	-1.529446
Cl	1.796748	0.0	0.0
H	0.211861	-0.935759	-1.925581
H	0.215964	0.838028	-1.980389
H	-1.330775	-0.049485	-1.716723
C	-0.476019	1.204914	0.686326
N	-0.645913	2.102826	1.435757
C	-0.526826	-1.190312	0.716755
N	-0.748411	-2.085517	1.45717
H	-2.187402	0.0	0.0
