18

C	0.0	0.0	0.0
C	-0.503872	-0.082295	-1.451374
Br	2.034263	0.0	0.0
H	-1.593754	-0.219718	-1.319513
N	-0.483476	1.181672	0.584821
H	-0.053061	2.022155	0.229361
H	-0.459901	1.162763	1.59344
C	-0.450753	-1.20627	0.796175
H	-1.54646	-1.186249	0.797201
H	-0.075446	-1.146602	1.821528
H	-0.086363	-2.130527	0.347918
C	0.034001	-1.252248	-2.142499
N	0.438415	-2.187807	-2.72709
C	-0.281757	1.186039	-2.274673
H	0.774752	1.465001	-2.296224
H	-0.620885	1.025533	-3.299779
H	-0.880467	1.993464	-1.851264
Br	-3.931822	0.0	0.0
