18

C	0.0	0.0	0.0
C	-0.50118	0.117487	-1.449013
Br	2.036205	0.0	0.0
H	-1.588966	-0.047148	-1.335371
N	-0.483265	1.089077	0.743791
H	-0.485723	0.917995	1.738348
H	-0.039696	1.968544	0.525999
C	-0.445556	-1.307923	0.618692
H	-0.078015	-2.156806	0.04123
H	-0.065594	-1.394246	1.639953
H	-1.541575	-1.2951	0.6252
C	0.048911	-0.934852	-2.300753
N	0.476191	-1.754339	-3.025844
C	-0.291971	1.491975	-2.082768
H	-0.902492	2.222519	-1.550819
H	-0.623556	1.475389	-3.122766
H	0.761291	1.783083	-2.057527
Br	-3.923171	0.0	0.0
