10
Coordinates from ORCA-job run
  C   1.06380706789779      0.21200350451477      0.17410459599263
  C   -0.27070341444906     -0.25400377570652     -0.37984216785978
  Br  2.48231241763946     -0.02410169783732     -1.13704846456693
  H   -0.20465299682640     -1.32056044277498     -0.60553421925516
  H   1.33264186745008     -0.36427871993021      1.05681612732841
  H   1.04452682739764      1.27273037596472      0.42465886032235
  H   -0.47801204225078      0.26705962207420     -1.32385996457324
  N   -1.28275504290009     -0.05640036101326      0.65675423691778
  H   -1.59719127469738      0.90559921801520      0.65883291788109
  H   -2.08997340926125     -0.63804772330659      0.47511807781285
