10
Coordinates from ORCA-job run
  C   1.11561319590193      0.11033389088529     -0.17744314901523
  C   -0.26302197015431     -0.50970644726658     -0.05053203634791
  Br  1.77448976848621      0.80179263572247      1.51363812069218
  H   -0.24232039137035     -1.26218526124873      0.74111190346863
  H   1.10820028934130      0.94924924206728     -0.87482392617679
  H   1.84262917558900     -0.62783579685299     -0.51628171498344
  H   -0.45875050339710     -1.03996678245247     -0.99798274837205
  N   -1.26649121860258      0.48858712165195      0.28669919803219
  H   -2.11820399289298      0.04328667848121      0.60003606339883
  H   -1.49314435290112      1.04844471901258     -0.52542171069640
