10
Coordinates from ORCA-job run
  C   0.94950291666179      0.27779746850239      0.17360484562033
  C   -0.26543881350224     -0.46832677172912     -0.36477663175937
  Br  2.60863866707530     -0.47111295727787     -0.52166586140762
  H   -0.26791733751217     -0.42020994993046     -1.45615583453878
  H   0.93199937934374      1.32762305283803     -0.12135274652419
  H   1.00636331841256      0.20936644373187      1.26058432754883
  H   -0.19451734801732     -1.52385788560909     -0.09228017655807
  N   -1.53486513585713      0.05205801635097      0.12462610860898
  H   -1.65061014574704      1.02286429247270     -0.13768382434318
  H   -1.58215550085748     -0.00620170934943      1.13409979335308
