10
Coordinates from ORCA-job run
  C   1.13057866607839      0.06348691951407     -0.06715853645948
  C   -0.27005493503266     -0.47535832629873     -0.26069918898049
  Br  1.42918245427034      0.61315041624669      1.78294205702241
  H   -0.32648778392859     -0.84709616184715     -1.29011215825694
  H   1.28475890220009      0.94956352700163     -0.68055536481283
  H   1.88672886788085     -0.69044253111141     -0.28292750464353
  H   -0.42026472862656     -1.33439948927499      0.40935349993339
  N   -1.25406348848181      0.58974145807896     -0.11333365290418
  H   -1.28608200012476      0.88764744667153      0.85408793031911
  H   -2.17429595423529      0.24370674101941     -0.35359708121748
