10
Coordinates from ORCA-job run
  C   1.03984769471117     -0.04290416999835      0.22146119443150
  C   -0.29963309159860     -0.55740880025101     -0.29404142482439
  Br  1.49651525171308      1.67859765709355     -0.57246612238029
  H   -0.24214824081486     -0.68075025206093     -1.37841218220090
  H   1.85516196715105     -0.72292754788454     -0.02894314559181
  H   1.01737243541607      0.11546807427617      1.30054579789122
  H   -0.44468462174241     -1.55634797785225      0.13411931478742
  N   -1.47292322084522      0.24090331991151      0.01098619478443
  H   -1.38254073972448      1.15971220244286     -0.40398832216646
  H   -1.56596743426580      0.36465749432300      1.01173869526928
