10
Coordinates from ORCA-job run
  C   -0.39494808838341      0.19451934011852     -0.06810268100635
  C   0.89950410634557      0.61768590306161     -0.15107873165602
  H   1.12489321976937      1.65497663024276     -0.36131838550322
  C   -1.44728846130689      1.15909089130587     -0.23722157396370
  N   -2.31964899064372      1.93925816001429     -0.35616514696601
  N   -0.80215802116720     -1.10585264850566      0.08640445028362
  H   -0.09364310257522     -1.76317845157347      0.37961574734022
  H   -1.71091654245778     -1.25239120171905      0.49465809639057
  C   1.95601881413225     -0.31242486184142      0.02571496846934
  N   2.78818706628701     -1.13068376110344      0.18849325661156
