10
Coordinates from ORCA-job run
  C   -0.39922728598290      0.19931207817016     -0.00192178573904
  C   0.88061273375055      0.63307095964304     -0.19082121526483
  H   1.07665199777052      1.65858439484849     -0.47525113539186
  C   -1.47885159191633      1.12373977447393     -0.21545524442988
  N   -2.37095200266086      1.86666518236408     -0.40482777413833
  N   -0.76150026875686     -1.04025273951074      0.45956954078728
  H   -1.68217021497810     -1.36629364588818      0.21464018325564
  H   -0.04194068108302     -1.74876988902133      0.44535457297188
  C   1.96199736934509     -0.26543753467092      0.00042293424966
  N   2.81637994451190     -1.05961858040853      0.16728992369948
