10
Coordinates from ORCA-job run
  C   -0.38474094837966      0.18683371935309     -0.12480871159070
  C   0.90374675637935      0.63011556671590     -0.05291191540933
  H   1.14036800070516      1.66613666013947     -0.25687359389433
  C   -1.42164838075659      1.12861384287221     -0.44680940428772
  N   -2.28451696383124      1.88990475306279     -0.69118683424799
  N   -0.78894310963136     -1.11668141265972      0.00925723083637
  H   -1.74067240963534     -1.27103902941823      0.29970724172663
  H   -0.11423402207685     -1.75454679905560      0.40669748625940
  C   1.94006971028055     -0.27871232930276      0.28344072750253
  N   2.75157136694599     -1.08162497170716      0.57548777310514
