10
Coordinates from ORCA-job run
  C   -0.37301373883469      0.20593585185082     -0.13059773753740
  C   0.90297002509603      0.62000341910135      0.11867085397240
  H   1.15663911452976      1.67115970127732      0.07777664706569
  C   -1.37474827923034      1.19521059965393     -0.42073641702860
  N   -2.20902970878568      1.99334491750003     -0.64560949564326
  N   -0.78771272512772     -1.09870040430110     -0.21287071509485
  H   -0.15229171239015     -1.79289337050037      0.15325253471809
  H   -1.76186080934737     -1.27885425945433     -0.03246214326489
  C   1.90593425790794     -0.33696138330255      0.42037118757588
  N   2.69311357618222     -1.17724507182508      0.67120528523696
