10
Coordinates from ORCA-job run
  C   -0.39000288823525      0.20644052327638     -0.06233660060135
  C   0.91068024725688      0.61800038884647     -0.03936760576171
  H   1.16621493545649      1.64302209012742     -0.27396997666878
  C   -1.40585675665680      1.15404445673673     -0.43133497891459
  N   -2.24536523901737      1.91493447729831     -0.74752579542642
  N   -0.84276941028984     -1.03090782432602      0.31759707246510
  H   -1.71822326614555     -1.33611692421654     -0.07529815636619
  H   -0.14296137058222     -1.75337228199616      0.40884928098121
  C   1.93318812865988     -0.30250757959768      0.30721921225686
  N   2.73709561955379     -1.11453732614892      0.59516754803588
