10
Coordinates from ORCA-job run
  C   -0.38610705892217      0.19946410019043     -0.09903132786067
  C   0.92626475527786      0.52480514686703     -0.28246912145760
  H   1.20081458095759      1.48767143572126     -0.69300778882684
  C   -1.38993185814116      1.17118517813307     -0.43676095102551
  N   -2.22109087930522      1.96308864456738     -0.69339599952156
  N   -0.85599522944793     -1.02148645887108      0.31220702321046
  H   -1.76213013920950     -1.03683705035070      0.75116805468937
  H   -0.17571534224863     -1.64699101910218      0.71924049494990
  C   1.93614142811904     -0.41176475410103      0.05781885662334
  N   2.72774974292011     -1.22913522305418      0.36423075921910
