10
Coordinates from ORCA-job run
  C   -0.33444196563360     -0.16387088864104      0.01234714744408
  C   0.99619024080838     -0.17804394245278     -0.27712994046643
  H   1.41748326566954     -1.00231380401016     -0.84578611874890
  C   -0.89531557332325      0.92435210670100      0.76631621731270
  N   -1.38597364099550      1.80951551193191      1.36630578871960
  N   -1.21636753851831     -1.17763210523549     -0.29041852145996
  H   -0.90604944988706     -1.83773954257958     -0.98672023005802
  H   -2.18362677849295     -0.91108024119783     -0.38292948101902
  C   1.87771142307885      0.84765462115260      0.15092905560908
  N   2.62939001729390      1.68915828433137      0.48808608266688
