10
Coordinates from ORCA-job run
  C   -0.33889897432982     -0.15410074321790     -0.00084501911220
  C   0.99211839057251     -0.18696032327760     -0.28687890521882
  H   1.39275839514168     -0.98024347394018     -0.91164202375141
  C   -0.87150965520643      0.89428485008040      0.82635907430780
  N   -1.34031238272226      1.74830462932672      1.48597307590312
  N   -1.24851197565112     -1.11778284733024     -0.37608413705984
  H   -2.20754125584537     -0.81810948305098     -0.44913835253620
  H   -0.95517498630054     -1.73619416439136     -1.11653838793607
  C   1.90101286265797      0.77970331625479      0.21546292726143
  N   2.67705958168338      1.57109823954634      0.61333174814220
