10
Coordinates from ORCA-job run
  C   -0.38910624715882      0.21398023268150     -0.04027113352071
  C   0.90949325421538      0.54813378267264     -0.29250767489093
  H   1.15293552524963      1.49684227338227     -0.75264686628289
  C   -1.42445673091536      1.13426826707917     -0.42389555818279
  N   -2.28324670394346      1.87047331660799     -0.74678520248091
  N   -0.80941668421087     -0.90569601895569      0.63079233669774
  H   -1.74433690612879     -1.22708427339908      0.43954666075485
  H   -0.12411695056006     -1.63825579313830      0.74827839832996
  C   1.94796224160024     -0.35086326760382      0.06287468297016
  N   2.76428920185212     -1.14179851932667      0.37361435660551
