10
Coordinates from ORCA-job run
  C   -0.38637116578228      0.20277053239917     -0.08941973951108
  C   0.91358877299735      0.61476682042796     -0.04120560920846
  H   1.16346353468319      1.65941849233232     -0.17257723583054
  C   -1.41415364942965      1.18751901839773     -0.28978225529890
  N   -2.26658952611449      1.98454042957698     -0.43772767253231
  N   -0.81336514150197     -1.09934330412465     -0.04246542029685
  H   -0.13687189262740     -1.78008671368112      0.27188436429678
  H   -1.75550431883353     -1.25958645606595      0.27469613498924
  C   1.94421733429628     -0.33697169922728      0.17057048249211
  N   2.75258605231250     -1.17402712003515      0.35602695090001
