10
Coordinates from ORCA-job run
  C   -0.34827674429822     -0.10065365260158     -0.08493681934151
  C   1.00020231910483     -0.20394218852930     -0.24465388671586
  H   1.41529844649357     -1.01923200385997     -0.83040635250607
  C   -0.90076882936408      0.97584660235144      0.69179915205573
  N   -1.38234798714390      1.83492201083848      1.33547405679855
  N   -1.27750495221110     -0.91676387027107     -0.69100046966564
  H   -0.92561348075205     -1.78580628442649     -1.06214459213092
  H   -2.16545259176493     -1.00216216951813     -0.22252369612956
  C   1.90551752297119      0.72997712640901      0.32194245786803
  N   2.67794629696471      1.48781442960762      0.78645014976726
