10
Coordinates from ORCA-job run
  C   -0.34913108113000     -0.10354716015102     -0.07680426981620
  C   0.99750591838483     -0.21299615541921     -0.24832379955059
  H   1.40559563228072     -1.04671794623817     -0.81295977348646
  C   -0.89210704395906      0.99831418535425      0.67044635989549
  N   -1.36509905470897      1.87920927125924      1.29043658705761
  N   -1.28545853032995     -0.93794216820624     -0.64576982118204
  H   -0.93889014907244     -1.81928937794077     -0.99192213128954
  H   -2.16930725732536     -1.00530311079700     -0.16702503014209
  C   1.90944916991620      0.73855900556718      0.27676984433935
  N   2.68744239594404      1.51071345657174      0.70715203417446
