10
Coordinates from ORCA-job run
  C   -0.39367509220104      0.20508425892268     -0.03788245847872
  C   0.88099553634790      0.63359496823193      0.19284041647997
  H   1.07889330569208      1.67533888150289      0.40816574160740
  C   -1.46617597127119      1.15918527268656      0.03912969308870
  N   -2.35655593556715      1.92423936243454      0.11527645564311
  N   -0.75242078276042     -1.06150430297376     -0.42192689336768
  H   -1.69304675693699     -1.35260253802712     -0.21105888800716
  H   -0.04977652034282     -1.77779611009176     -0.30726481631822
  C   1.95372536429380     -0.29321683298405      0.13780687175222
  N   2.79803685274583     -1.11332295970192      0.08391387760039
