10
Coordinates from ORCA-job run
  C   -0.34920351574309     -0.07775367463755     -0.10230406568642
  C   0.99652951845598     -0.25947466991347     -0.20529054574137
  H   1.38849474767627     -1.08382901758472     -0.79435877968085
  C   -0.87069145348003      1.01226084251907      0.67704774846015
  N   -1.32862263281795      1.88437760431141      1.32046308295143
  N   -1.29729275970890     -0.82093891696369     -0.76975751476357
  H   -2.21010556898229     -0.86020454776149     -0.34526316273826
  H   -0.98263286983346     -1.70177159053420     -1.14620000488902
  C   1.92938873939461      0.60413276554063      0.42457352517779
  N   2.72413579503887      1.30220120502401      0.94208971691012
