10
Coordinates from ORCA-job run
  C   -0.38053121509801      0.21494591094285     -0.08745666327723
  C   0.94076436638034      0.53309957792801     -0.20917884915303
  H   1.23993802513429      1.52597007208904     -0.51852979952357
  C   -1.36110304021813      1.23231020814486     -0.35131051336328
  N   -2.17338467361113      2.05985460004755     -0.54894367951409
  N   -0.87934691842919     -1.03131314093339      0.19221990938067
  H   -0.21885193709547     -1.70716767320996      0.54845456948764
  H   -1.79513659545258     -1.07278191626824      0.60864263895237
  C   1.92791493831044     -0.44944786654334      0.06094177808850
  N   2.69973705007945     -1.30546977219739      0.30616060892201
