10
Coordinates from ORCA-job run
  C   -0.38467032654887      0.22176995753304     -0.03718279528672
  C   0.91780540152765      0.60017328110356      0.11149335238131
  H   1.17485009078560      1.64295128888465      0.24349309140032
  C   -1.40609173145066      1.23187995496959      0.01251202181945
  N   -2.25461916400968      2.04490242688268      0.06556529309266
  N   -0.82047845337309     -1.04855669228391     -0.31448770123632
  H   -0.14870734953655     -1.79037315122458     -0.17876341776776
  H   -1.76331467871937     -1.27574622018855     -0.04357542970825
  C   1.94181597515980     -0.38130627748838      0.08212732279919
  N   2.74441023616516     -1.24369456818810      0.05781826250611
