10
Coordinates from ORCA-job run
  C   -0.34071158435932     -0.14778766695922     -0.01836345753021
  C   0.99956435433704     -0.20022866210351     -0.25408638381412
  H   1.40846952599067     -0.98410500922407     -0.88532945946640
  C   -0.88445595485480      0.88895969250919      0.81645855699480
  N   -1.36102995541585      1.73440598748410      1.48154327730123
  N   -1.25432002223662     -1.08118399512057     -0.45534077362185
  H   -2.20350341885954     -0.75899189608789     -0.55689396606209
  H   -0.94531157815990     -1.68567649964853     -1.20090958206386
  C   1.90580129916412      0.73395229443614      0.31066171656382
  N   2.67649733439420      1.50065575471436      0.76326007169868
