10
Coordinates from ORCA-job run
  C   -0.38097607361116      0.21187524637252     -0.09165551117731
  C   0.93569287763077      0.56808858926919     -0.12611441866137
  H   1.23236081398549      1.53767931069828     -0.50414849846043
  C   -1.35953064463683      1.13892370520244     -0.59063532500670
  N   -2.17042622218808      1.88108064180294     -1.00951319303675
  N   -0.88236599137903     -0.93950285498768      0.45907340651385
  H   -1.77235683534299     -1.25978078166585      0.11397441336219
  H   -0.21271723108694     -1.67014231738455      0.65286773845866
  C   1.92060877964619     -0.33630365312928      0.34801546299292
  N   2.69071052698257     -1.13291788617800      0.74913592501493
