10
Coordinates from ORCA-job run
  C   -0.37674493547801      0.20118149717954     -0.12795791017668
  C   0.94617393427572      0.52816670595787     -0.19638090282952
  H   1.25338772613847      1.49663837722414     -0.56900394542771
  C   -1.34993438382337      1.17895021633127     -0.53176509389011
  N   -2.15701336364206      1.97557954587239     -0.84442391854640
  N   -0.87922923456455     -1.02565113594153      0.22266938873607
  H   -1.81601786228740     -1.04528295929347      0.59176012660100
  H   -0.23327868722485     -1.66242912398006      0.66705210208725
  C   1.92474720360469     -0.41365180195275      0.21376315612596
  N   2.68890960300137     -1.23450132139741      0.57528699732014
