10
Coordinates from ORCA-job run
  C   -0.39631617100017      0.19274296351018     -0.06501775833878
  C   0.89408872476015      0.63431809654435     -0.10112513362991
  H   1.11049198353833      1.68396838105880     -0.25004874003369
  C   -1.45635429663837      1.15328442117544     -0.20518564959711
  N   -2.33397606991548      1.93008041298144     -0.30508800212973
  N   -0.79024901540756     -1.11853953015375      0.01301864753041
  H   -0.07991302933042     -1.78200755032785      0.28732632238408
  H   -1.70558718742008     -1.29703552288597      0.39278742912811
  C   1.95888947013825     -0.29146930231518      0.04802600324039
  N   2.79892559127535     -1.10634236958747      0.18530688144623
