10
Coordinates from ORCA-job run
  C   -0.35497408389469     -0.11059132005954      0.00365802930968
  C   0.95563398312277     -0.28144242012601      0.33201287289787
  H   1.29003475123149     -1.22551946719446      0.75279811687121
  C   -0.80109715290467      1.13749188145884     -0.55352315105447
  N   -1.19505792330810      2.14064152901211     -1.02554303107250
  N   -1.35235051188670     -1.02974800195200      0.24301964183283
  H   -1.04752219345928     -1.97215318424454      0.43169605627376
  H   -2.16030281341306     -0.97368613992331     -0.35608618785176
  C   1.92202708816173      0.74212756383815      0.15565507773050
  N   2.74460885635051      1.57287955919076      0.01431257506288
