10
Coordinates from ORCA-job run
  C   -0.35074518076149     -0.08478369755681     -0.09027601823325
  C   0.99356900957434     -0.26522453903817     -0.21253330529503
  H   1.37762704109337     -1.11902371243369     -0.76362375781507
  C   -0.86259803944479      1.04405732768581      0.63835881732246
  N   -1.31324630091931      1.94858915203660      1.24090022012860
  N   -1.30805037429451     -0.86834777492510     -0.69565425320551
  H   -2.21143171232262     -0.88844145429795     -0.25027047181808
  H   -0.99598731430603     -1.76743887700183     -1.02867024115497
  C   1.93460379369081      0.63536140367825      0.34971422897221
  N   2.73625907769024      1.36425217185291      0.81105478109863
