10
Coordinates from ORCA-job run
  C   -0.34842528770359     -0.10610344297371     -0.07364967008256
  C   0.99375985138009     -0.17142514675894     -0.29477234712579
  H   1.40092605637017     -0.95381740973493     -0.92893915501341
  C   -0.89112860233818      0.92887394610646      0.76388255294655
  N   -1.36614119865929      1.75195895433709      1.45753621971553
  N   -1.28476663713571     -0.92310632180564     -0.66815828985716
  H   -0.92970111901802     -1.77402172292822     -1.07686630470742
  H   -2.15080787415236     -1.04176321255770     -0.16704961568822
  C   1.90105481859457      0.76447710920020      0.26535404225229
  N   2.67522999266233      1.52492724711539      0.72266256756020
