10
Coordinates from ORCA-job run
  C   -0.39305200908872      0.20858252423304     -0.02512899716465
  C   0.90662460235698      0.62264247627964     -0.05861858190645
  H   1.14749098765613      1.66034717065945     -0.24864366508270
  C   -1.42990142686740      1.17247868023671     -0.27397806406423
  N   -2.28778581490473      1.94728666297462     -0.49186040126877
  N   -0.82147436146504     -1.05082177282670      0.30751602969564
  H   -0.11804232478754     -1.77538858745849      0.31172128286101
  H   -1.72074901127251     -1.33439952487868     -0.04581643055366
  C   1.94842165282760     -0.31340532940037      0.16805829927443
  N   2.76846770554521     -1.13832229981922      0.35675052820938
