10
Coordinates from ORCA-job run
  C   -0.38206007990651      0.20032358538920     -0.11187795898147
  C   0.90344956462234      0.62716921027786      0.05215468328132
  H   1.17385502116611      1.65132952806260     -0.16944422554456
  C   -1.35797283433803      1.12960895128557     -0.61214041572372
  N   -2.16401509425975      1.87540982786017     -1.03369168836381
  N   -0.86342792205674     -1.03542172429802      0.23608500936286
  H   -1.68570181227771     -1.35791764512099     -0.24717516585144
  H   -0.17212429927065     -1.74787146523289      0.42194527223485
  C   1.88762633908115     -0.27389909348370      0.53424168494085
  N   2.66137111723981     -1.06973117473979      0.92990280464510
