10
Coordinates from ORCA-job run
  C   -0.34175355637422     -0.14203736299304      0.04039533580760
  C   1.00858138211315     -0.28312700840721     -0.06561977122457
  H   1.44116030914316     -1.27083097846207     -0.19750254433437
  C   -0.91780537666661      1.16409843331323      0.21225588391139
  N   -1.42130518743647      2.22017773336611      0.33612722701485
  N   -1.24135228397477     -1.18464507020440      0.08330318748909
  H   -2.17793580247421     -0.97324563899772     -0.22206295287232
  H   -0.89780797593705     -2.07548226005560     -0.24114151660691
  C   1.89565076301015      0.82200010460243      0.00240940224436
  N   2.65356772859686      1.72209204783826      0.04983574857089
