10
Coordinates from ORCA-job run
  C   -0.33267542229113     -0.14659190237688      0.08146970456775
  C   1.01265283294347     -0.25809100106326     -0.09783176498486
  H   1.47527614301786     -1.24058822734313     -0.13052406018293
  C   -0.94757689465632      1.15213789153438      0.12797040429702
  N   -1.47999839398268      2.20104925106717      0.15277594019022
  N   -1.18513458855989     -1.20281385392352      0.31700948908734
  H   -2.14749092314656     -1.06220704514617      0.05371478015403
  H   -0.82821720581817     -2.11661895168567      0.08397484772974
  C   1.85650051523140      0.87436742396577     -0.23380217534083
  N   2.57766393726203      1.79735641497132     -0.35575716551749
