10
Coordinates from ORCA-job run
  C   -0.36235988463833      0.23205684281306     -0.11649503026400
  C   0.95389542659070      0.54915990109953      0.05280193669227
  H   1.31472356426633      1.54122348708762     -0.18511610194363
  C   -1.25009949220700      1.23222233883791     -0.64354300863566
  N   -1.98453094452440      2.03582370938982     -1.08902583203777
  N   -0.95175648383665     -0.95143795391997      0.24733429250737
  H   -0.32629645668857     -1.71805838755247      0.45004032424469
  H   -1.79483895096679     -1.20916211131902     -0.23938151168779
  C   1.85230448548452     -0.42728105853833      0.55498917282482
  N   2.54895873652018     -1.28354676789817      0.96739575829971
