10
Coordinates from ORCA-job run
  C   -0.36679431475461      0.21407888443268     -0.13605201891020
  C   0.94190448862100      0.57024171277990      0.01310987245509
  H   1.25309859901623      1.59467525531425     -0.14397444064487
  C   -1.32255170640129      1.23158827732495     -0.47845978530579
  N   -2.11713178485589      2.05815930907693     -0.74147756435799
  N   -0.85963826909545     -1.06381248371665     -0.06649891182484
  H   -0.24821702430112     -1.75559793216022      0.34302830750478
  H   -1.83257952139000     -1.16369709953796      0.17310459842083
  C   1.90145533901147     -0.41284829155593      0.36769587931236
  N   2.64845419414966     -1.27278763195794      0.66952406335063
