10
Coordinates from ORCA-job run
  C   -0.34547400614741     -0.13497248836861      0.03218855403964
  C   1.00397324871444     -0.25420818236556      0.17082875303082
  H   1.44077168908476     -1.21867608562294      0.41396415898150
  C   -0.92562898115498      1.14027270424720     -0.29114669631334
  N   -1.42883859631727      2.16600559264092     -0.57198852069102
  N   -1.25307905624084     -1.14441933667533      0.26453061395122
  H   -0.87611713790382     -2.07940905977831      0.28543603741766
  H   -2.13366984971240     -1.06973134397386     -0.21922181663974
  C   1.88310566306158      0.84911724776202      0.02015857462082
  N   2.63595702661592      1.74602095213446     -0.10474965839755
