10
Coordinates from ORCA-job run
  C   -0.38807801844364      0.19433934836949      0.10084411132576
  C   0.91898384295372      0.56826894186252      0.21557733517547
  H   1.17747560319518      1.56310238634957      0.55394289551114
  C   -1.40988839839564      1.15704591476409      0.40987412885299
  N   -2.25902834661666      1.93768229649405      0.64031973953631
  N   -0.83457385553091     -1.06380835857754     -0.21278698406691
  H   -1.75250100106442     -1.13213486993557     -0.62112320640549
  H   -0.14932280704373     -1.69618349291258     -0.60080159010706
  C   1.94559585420958     -0.35836396375601     -0.10177582055419
  N   2.75233712673653     -1.16894820265803     -0.38607060926802
