10
Coordinates from ORCA-job run
  C   -0.37556240667201      0.21300309106833     -0.10968100988683
  C   0.94888218061990      0.53802744503807     -0.15407333139955
  H   1.26078780410817      1.53055907798364     -0.45170509906882
  C   -1.34435115042784      1.22227031114615     -0.43972713721176
  N   -2.14923600966070      2.04163219912376     -0.69407604863719
  N   -0.88327527610463     -1.03475482402746      0.14736082040729
  H   -0.24214090879541     -1.70401473445656      0.54833833551676
  H   -1.82291434850226     -1.07946675009273      0.50653683411366
  C   1.92362071492801     -0.43795000018937      0.17801866259793
  N   2.68418940050678     -1.28930581559382      0.47000797356852
