10
Coordinates from ORCA-job run
  C   -0.37309281352358      0.23343639528143     -0.07097080534545
  C   0.95822866656888      0.51450851515404     -0.17174064646876
  H   1.28971868274023      1.46788914146468     -0.56186451931456
  C   -1.32053407387940      1.21717728695387     -0.51893534345337
  N   -2.10652800443644      2.00661778965714     -0.89672359792508
  N   -0.91098811560815     -0.89019014254005      0.50235464493702
  H   -1.83369316926063     -1.15782333505554      0.20060463819007
  H   -0.27527724303202     -1.65931300264341      0.65799523604824
  C   1.91346081941328     -0.44619238605946      0.24946177259931
  N   2.65770525101784     -1.28611026221270      0.60881862073260
