10
Coordinates from ORCA-job run
  C   -0.37131088891392      0.23962971707723     -0.05630445652452
  C   0.91781852628724      0.54827404127806      0.26713617929007
  H   1.19105913014294      1.56305206848152      0.52509406106130
  C   -1.35966580991367      1.28270285166769     -0.02004506007398
  N   -2.18276059322863      2.12204374852206      0.02069792989385
  N   -0.81301790958298     -0.98053484661811     -0.49938423247004
  H   -1.78693082277680     -1.19237291111825     -0.35582838602960
  H   -0.18376534405311     -1.75886534622780     -0.36457733612836
  C   1.90774036078305     -0.46794603101616      0.25276753052102
  N   2.68083335125588     -1.35698329204623      0.22944377046025
