10
Coordinates from ORCA-job run
  C   -0.38470645998370      0.21012024064293     -0.07869080167479
  C   0.92922162473990      0.54969413002799     -0.21891433520834
  H   1.20692666131921      1.49224823715821     -0.67207151616988
  C   -1.38671657864550      1.11626997766553     -0.57004645474122
  N   -2.21711859281569      1.84002498409001     -0.98279408421197
  N   -0.85772900853965     -0.90103112221028      0.57096797291149
  H   -1.77033286281323     -1.23097892094123      0.30223229485663
  H   -0.18285049952807     -1.62732911604800      0.76347350480570
  C   1.93686387628523     -0.33494605504304      0.24465864873606
  N   2.72644183998149     -1.11407235534210      0.64218477069632
