13
Coordinates from ORCA-job run
  C   0.80266009869719      0.00931848164321      0.16056107624004
  C   -0.47316040065401     -0.04453573263271     -0.28777160066282
  N   1.95431633066456      0.27483995752152     -0.73768671375105
  O   2.91334672121223      0.83213349256351     -0.21358922175925
  O   1.84999527674726     -0.07937883187380     -1.90375058603554
  C   1.14887660128019     -0.09908270307869      1.53665501138746
  N   1.38381744546187     -0.22248302065445      2.68260001114144
  C   -0.80857983879707      0.12099152480067     -1.66945264619611
  N   -1.25755257246244      0.24662354810439     -2.75054308443579
  C   -1.64523928026272     -0.23116900232406      0.63161544321009
  H   -1.33196448962295     -0.30044494553573      1.67168403577160
  H   -2.20991493212675     -1.12538371976276      0.35219929299834
  H   -2.32660096013737      0.61857095122889      0.52547898209160
