13
Coordinates from ORCA-job run
  C   0.80273496083874     -0.06167444604735     -0.03839455804422
  C   -0.51471095070101      0.20695357220459      0.09396167393649
  N   1.81742790667682      1.00423157268870     -0.14975327492850
  O   1.69338997853895      1.96432991095838      0.60390751204907
  O   2.70531081480024      0.81329244756622     -0.97403790839310
  C   1.33031083833284     -1.38025054904459     -0.12802334342063
  N   1.75264284097328     -2.47848692233284     -0.16443412463802
  C   -0.99208807046945      1.55633063996148      0.12029338560979
  N   -1.52132772025792      2.60902790913551      0.13885152201791
  C   -1.56329487101981     -0.86397523898980      0.12475601868692
  H   -1.12300430955933     -1.85405939333023      0.25312702259277
  H   -2.26698290467234     -0.67924409748786      0.93669592294418
  H   -2.12140851348102     -0.83747540528221     -0.81594984841266
