13
Coordinates from ORCA-job run
  C   0.80423287268812     -0.04019546435202      0.02257363507942
  C   -0.52992883333266      0.18342545119849      0.04438764353795
  N   1.78341026123741      1.06591967080131     -0.03186022065983
  O   2.71064597556480      0.90158318920415     -0.81822238252021
  O   1.59241992951097      2.02311115088186      0.70792158434998
  C   1.38261850508036     -1.34028048679474     -0.00598005004298
  N   1.82722896489423     -2.43069590411211     -0.01063611999916
  C   -1.03623693371156      1.52272214500729      0.02549980829116
  N   -1.53526195164102      2.58879498244527      0.00435596110446
  C   -1.54857647460442     -0.91678304677664      0.02376015987189
  H   -2.03736583295169     -0.93793450385738     -0.95364624667764
  H   -2.32064000911576     -0.72981237861815      0.77293423793091
  H   -1.09354647361881     -1.88985480502732      0.21791198973404
