13
Coordinates from ORCA-job run
  C   0.74972291051162      0.37578313399741      0.10917743199066
  C   -0.56346174630109      0.15682018085453     -0.16219021259380
  N   1.67021619249955     -0.70197099367075      0.52967775692603
  O   1.29197991432060     -1.85948656283488      0.38964501934267
  O   2.74706649457035     -0.33674176613153      0.99078642799077
  C   1.35281820348222      1.66639274752185      0.05522211526352
  N   1.82297413057037      2.74470710533377      0.00672067510625
  C   -1.31296747265452      1.31101286606146     -0.56182468689968
  N   -1.96685921015268      2.23120477659943     -0.89934811968185
  C   -1.30944201433228     -1.14859092390170     -0.11719479448944
  H   -0.99542495695215     -1.78907190573734     -0.94372143565182
  H   -1.10631019694932     -1.69253840170299      0.80461179647736
  H   -2.37831224861266     -0.95652025638925     -0.20156197378065
