13
Coordinates from ORCA-job run
  C   0.77575301847030      0.01921957093307      0.22587746272956
  C   -0.47383106481081      0.07441042770433     -0.28971805787354
  N   1.98366967946303      0.24714084135188     -0.60133357660929
  O   1.91723019091354      1.10101276213749     -1.47463240223032
  O   2.94355251990049     -0.46611698671262     -0.32597800123576
  C   1.04923340715250     -0.32279781938071      1.57981146528514
  N   1.24910721615311     -0.60209866479521      2.70606242092869
  C   -0.68783190038060      0.38042395594730     -1.67236389028326
  N   -0.97177437649407      0.60966106308471     -2.79091236269055
  C   -1.70605406272878     -0.20756322522768      0.52096999573183
  H   -1.46818397674182     -0.40670600127175      1.56592081130359
  H   -2.38466858002957      0.64619571227848      0.45617395008469
  H   -2.22720207086734     -1.07278163604927      0.10112218485922
