13
Coordinates from ORCA-job run
  C   0.73463231289965      0.40133445623822      0.15039562349627
  C   -0.57903445908898      0.17954248812505     -0.09717059602657
  N   1.68410416336061     -0.72011912023187      0.28340408786902
  O   1.56816017267824     -1.64869588461214     -0.51011513022033
  O   2.50877863971127     -0.61739558113761      1.18557466400455
  C   1.30961777155311      1.68580944590491      0.36230615917645
  N   1.77909684960015      2.75405749627017      0.52009267492945
  C   -1.41830398238971      1.33496285225418     -0.19844342324442
  N   -2.14475215016684      2.25785684975295     -0.29290536978175
  C   -1.23361311940912     -1.15706575651346     -0.30060043902995
  H   -0.72173736224603     -1.95021856532974      0.24118090016995
  H   -1.21307580613764     -1.41420764027464     -1.36330791093726
  H   -2.27387303036472     -1.10486104044603      0.02158875959461
