13
Coordinates from ORCA-job run
  C   0.74891212317325      0.39689353204861      0.07150422548024
  C   -0.57086054610131      0.17575339279598     -0.14182212348538
  N   1.65607362550660     -0.70722012062885      0.43867193638440
  O   2.75181774905431     -0.70375718900744     -0.11257813998620
  O   1.24106333908350     -1.52496845831041      1.25379963450093
  C   1.39173451046294      1.65643150908943     -0.08886787474150
  N   1.91160296377004      2.70616183834018     -0.20829735936854
  C   -1.36312393818075      1.31213504614593     -0.50320941315292
  N   -2.05320316529817      2.22012195729396     -0.79939715017596
  C   -1.28608495760252     -1.13868880223600     -0.01097927181214
  H   -1.65431717421210     -1.25216711470648      1.01246389368672
  H   -2.13991880346756     -1.15664287539528     -0.68871881684530
  H   -0.63269572618824     -1.98305271542961     -0.22256954048435
