13
Coordinates from ORCA-job run
  C   0.81654763483260     -0.08677780777682     -0.21767494741529
  C   -0.53268712736240      0.01859370955288     -0.30909037722190
  N   1.50338477893774     -0.02687829216848      1.08877793462816
  O   2.48665771911754     -0.75115994123471      1.20987848841651
  O   1.03719529605487      0.73027921332033      1.93457523431359
  C   1.68127433519154     -0.31742318045426     -1.32546255105588
  N   2.38338500357384     -0.49174508158313     -2.25412662760923
  C   -1.09275247580407     -0.06820805891784     -1.62359778884590
  N   -1.60372191343874     -0.12725499558928     -2.68391659064054
  C   -1.48928034221053      0.23271674111708      0.83123374671122
  H   -1.19014722896917     -0.33226151622089      1.71392046943539
  H   -2.49201526067654     -0.06851769492956      0.52784124719557
  H   -1.50684041924666      1.28963690488469      1.10864176208829
