13
Coordinates from ORCA-job run
  C   0.80350349707220     -0.05422768791808      0.05012605229068
  C   -0.51954533977458      0.20029443181199     -0.07025466580423
  N   1.83654790018294      0.89412250032105     -0.42210621911373
  O   2.80566822537427      0.37903712203799     -0.97049666038010
  O   1.63577859114363      2.08649149113886     -0.22920367692733
  C   1.32416156529392     -1.26561129483992      0.58626430288906
  N   1.73947890567601     -2.25206047351398      1.07565417322723
  C   -0.98682481805459      1.42861423966148     -0.63469146725018
  N   -1.48298456037241      2.39875419969018     -1.08295406583487
  C   -1.57892647256465     -0.77718385773739      0.35090328911661
  H   -2.30348198319200     -0.26992986759451      0.99305096934499
  H   -1.15542243923527     -1.62806704794684      0.88443166460383
  H   -2.11795307154948     -1.13923375511085     -0.52972369616196
