13
Coordinates from ORCA-job run
  C   0.75410910942427      0.32202001563605     -0.20167312381879
  C   -0.57934301399406      0.18302151041167      0.02245933023745
  N   1.72404930233840     -0.77621633001406      0.00245833203085
  O   1.31008881108610     -1.81726471794094      0.49998932582548
  O   2.87644500124272     -0.54469767689563     -0.34943459278002
  C   1.34317548522105      1.53583686955978     -0.66185896170792
  N   1.79402751865954      2.55724613132216     -1.03598860530254
  C   -1.37192587768203      1.35004332458879     -0.22855943826034
  N   -2.06641144060825      2.28140499800598     -0.42588439712059
  C   -1.31218873029272     -1.04062631530164      0.50127938061399
  H   -2.38368612176028     -0.84539552768752      0.50155294465346
  H   -0.99353058741343     -1.30665795595835      1.51066747857056
  H   -1.09680945622130     -1.89871432572628     -0.13600767294159
