13
Coordinates from ORCA-job run
  C   0.76103630610159      0.37115002813195      0.07338856357245
  C   -0.56758615727201      0.19662274155882     -0.12798945955419
  N   1.63520810841995     -0.76692535109054      0.41686413080835
  O   2.47580918086714     -0.55232572841907      1.28409866793285
  O   1.44903840670671     -1.81791129864697     -0.18840255455661
  C   1.42448859805754      1.62952320266773      0.03506023393717
  N   1.96873729099426      2.67227830334380     -0.01942056223422
  C   -1.32776553520039      1.36677833793891     -0.44794386403133
  N   -1.98920241897109      2.30520286893615     -0.71287472542947
  C   -1.31296591163394     -1.10634025912664     -0.07609217670696
  H   -1.32639067645536     -1.55746521392491     -1.07229359875632
  H   -0.84781939747414     -1.81830479194062      0.60313265445546
  H   -2.34258779414025     -0.92328283942861      0.23247269056279
