13
Coordinates from ORCA-job run
  C   0.74555568051980      0.40183614655214      0.06698073067331
  C   -0.58537311756816      0.17872728527451     -0.05304369872410
  N   1.69922267241367     -0.71840841138334      0.17010902560356
  O   1.51814822125134     -1.67756972576934     -0.57379720815639
  O   2.59518144428572     -0.58328384465373      0.99705065791279
  C   1.34169860831870      1.69036328310589      0.16451692274429
  N   1.83277859867060      2.75899439310949      0.21829577375247
  C   -1.42612544276241      1.33485558762554     -0.13290562763803
  N   -2.15491631676738      2.25827939575892     -0.20106007749122
  C   -1.25993817884693     -1.16075921619280     -0.13635393672759
  H   -2.26473576271103     -1.08943614681092      0.28090268834843
  H   -1.34327700620482     -1.45916485298885     -1.18520577321450
  H   -0.69921940059910     -1.93443389362749      0.38451052291697
