13
Coordinates from ORCA-job run
  C   0.74853707095305      0.39234577254214      0.08662369967103
  C   -0.58086867139096      0.18751388991250     -0.07748815175296
  N   1.67896052488410     -0.74162115130500      0.24709353550618
  O   2.55260461459436     -0.60036959492782      1.09652616133486
  O   1.50188303771141     -1.71666020145639     -0.47662137088209
  C   1.36379346762455      1.67247048696090      0.17501239274877
  N   1.87212210109798      2.73327076173622      0.22463166787895
  C   -1.39811367986842      1.35436218156297     -0.21894139151015
  N   -2.10460359805715      2.28910502815289     -0.34507854761934
  C   -1.27340928668117     -1.14335638337024     -0.15245842695975
  H   -2.29465187607999     -1.04232570723019      0.21593463783481
  H   -1.31206547160334     -1.47569289753680     -1.19353189301278
  H   -0.75218823318443     -1.90904218504119      0.41929768676248
