13
Coordinates from ORCA-job run
  C   0.79549065833073      0.06081109687183      0.08577402168848
  C   -0.54585993645625      0.14643677236572     -0.07367103976043
  N   1.70106067169734      1.19507133988141     -0.18482930763077
  O   2.73601940682957      0.91645027073656     -0.78109051123715
  O   1.34798540580040      2.29806736738655      0.21867627761922
  C   1.45609182167708     -1.13504952473264      0.48616500773516
  N   1.95485331539209     -2.13708583670945      0.85077889221100
  C   -1.16220457630039      1.36081846607493     -0.50493172086133
  N   -1.76928705423837      2.30565235408299     -0.86261497874721
  C   -1.45007790421154     -1.03209273645404      0.15232832957909
  H   -0.96520848734268     -1.79438129737378      0.76338502206082
  H   -1.73519105691890     -1.48109525467668     -0.80452448969529
  H   -2.36167226425909     -0.70260301745341      0.65355449703841
