13
Coordinates from ORCA-job run
  C   0.77583148121979      0.34905355380707     -0.01742412982190
  C   -0.56744321406794      0.20207366153188     -0.11927877298487
  N   1.63469761947297     -0.77704212947639      0.39662367171686
  O   1.37865060140366     -1.87956207434615     -0.07691829420886
  O   2.53261436275293     -0.50162147012864      1.18551217607276
  C   1.47152947795427      1.57279760207567     -0.22602305892515
  N   2.03939545132304      2.58688482744072     -0.41418030494228
  C   -1.31313068577505      1.35877667536603     -0.51378527596791
  N   -1.96735116165262      2.28515951340287     -0.83384274036550
  C   -1.34547773105602     -1.06035737391069      0.12059454007006
  H   -0.86231207188635     -1.70647045407474      0.85120597513947
  H   -1.42824687657690     -1.62128042208667     -0.81436021937801
  H   -2.34975725311177     -0.80841190960097      0.46187643359533
