13
Coordinates from ORCA-job run
  C   0.75016051616047      0.37952608377889      0.13602720057748
  C   -0.55890511929798      0.19459562680175     -0.16152301908380
  N   1.62056219246855     -0.76205108613881      0.47608825800019
  O   2.74348442278951     -0.74339536561813     -0.01797170504287
  O   1.15238586399292     -1.62302293874042      1.21437494911628
  C   1.41666192662205      1.63584657013356      0.09733654870938
  N   1.95508924765143      2.68261018649661      0.07511175504720
  C   -1.31759234340654      1.36472837946722     -0.48491276969416
  N   -1.98187549077097      2.30090777263616     -0.75140177312867
  C   -1.29678693587266     -1.11413095204462     -0.15522110799910
  H   -0.64464139949786     -1.95500971575103     -0.38288917309956
  H   -2.10961916193355     -1.07578656867469     -0.88091306364984
  H   -1.72692371890537     -1.28381799234650      0.83589390024746
