13
Coordinates from ORCA-job run
  C   0.77587620932387      0.34867175257181     -0.00909143308701
  C   -0.56717681906980      0.20449496938616     -0.11554076383542
  N   1.63187427993486     -0.78114829668846      0.40003343573149
  O   1.37760145393699     -1.87973329828910     -0.08346760510124
  O   2.52461493958749     -0.51283076616002      1.19712134376509
  C   1.47503481262108      1.57144488411723     -0.21171626621332
  N   2.04857787824392      2.58161759356567     -0.40483915703761
  C   -1.30952415261787      1.36561896887127     -0.50409355130853
  N   -1.96138435670758      2.29458229660766     -0.82113107332807
  C   -1.34733660671927     -1.05963525608075      0.10716286514805
  H   -0.86804000012547     -1.71371375149538      0.83332525739280
  H   -1.42709489200059     -1.61006037560802     -0.83433229224798
  H   -2.35302274640762     -0.81030872079806      0.44656924012175
