13
Coordinates from ORCA-job run
  C   0.74876973633429      0.38934435825991      0.10751955915696
  C   -0.55803595576089      0.17883697210303     -0.18246874691803
  N   1.61516052497252     -0.71536839938539      0.56145106449392
  O   1.13759157760820     -1.50516704343594      1.36978208712350
  O   2.74400665004169     -0.74007759022972      0.08225200834038
  C   1.41794954093908      1.63595066614333     -0.04585182213317
  N   1.95967205876354      2.67523386579340     -0.15969650062304
  C   -1.31061162371801      1.31447983259046     -0.62221423961274
  N   -1.96925502479615      2.22189288200229     -0.98451212203659
  C   -1.29871526545789     -1.12264010423039     -0.06266015945481
  H   -2.10802325279809     -1.14764810479810     -0.79284654466476
  H   -0.64532135444729     -1.98065605958612     -0.20936578099076
  H   -1.73318761168099     -1.20418127522675      0.93761119731914
