13
Coordinates from ORCA-job run
  C   0.84243915202699     -0.08860052213725     -0.04472972382441
  C   -0.46462620295605     -0.06378158905543     -0.40343266134951
  N   1.26038007832480      0.25612816911135      1.32782177488387
  O   2.15460383176138     -0.43455209954557      1.80523327924502
  O   0.68558555391494      1.19660375701788      1.86691463394501
  C   1.90620746916014     -0.49901464107808     -0.89615957419656
  N   2.78366826754256     -0.83021387974378     -1.60847444041461
  C   -0.76619250290608     -0.43625009314026     -1.75227797937615
  N   -1.05668512892028     -0.74496015277971     -2.85180620731521
  C   -1.61759020592347      0.32853173717914      0.47710843718893
  H   -1.74618447796767      1.41423670901654      0.45387424990970
  H   -2.53165872323508     -0.13951036530238      0.11136774771102
  H   -1.44994711082216      0.04138297045755      1.51456046359292
