13
Coordinates from ORCA-job run
  C   0.76766937575839      0.36893501129744      0.02981334215152
  C   -0.56018534183134      0.18402355843759     -0.16773599395805
  N   1.61952077439728     -0.72555549633323      0.53137883156026
  O   2.71537122045554     -0.83941557033789     -0.00841655153487
  O   1.16531140427329     -1.42043881631062      1.43493568644562
  C   1.46774306271181      1.57116105795757     -0.26828391571739
  N   2.03290369489615      2.57780085799816     -0.49985892501670
  C   -1.30222692022971      1.30534625093199     -0.65898694399632
  N   -1.95641056077994      2.20287774650199     -1.05308040254126
  C   -1.33408753481794     -1.07401530709648      0.10603313170552
  H   -2.17946063425159     -1.13671633641209     -0.58046846122056
  H   -1.71908283097288     -1.04893366649724      1.12959170475086
  H   -0.71806570960906     -1.96606929013719      0.00607849737137
