13
Coordinates from ORCA-job run
  C   0.76371112746453      0.37498767676034      0.03910121520880
  C   -0.56335275577396      0.18454151586358     -0.15974836382772
  N   1.62260358653315     -0.71956373445738      0.53091403040892
  O   2.72052583870687     -0.81980115163520     -0.00700120837282
  O   1.17042346226334     -1.42606979909799      1.42635649068632
  C   1.45865326390209      1.58081863288788     -0.25750198900595
  N   2.02610812496879      2.58357928160890     -0.50207750133487
  C   -1.30886512500504      1.30561484231234     -0.64586369436528
  N   -1.96633568526941      2.20143460989504     -1.03739514106177
  C   -1.32901720036137     -1.08185997632547      0.09744268864973
  H   -0.70727324847790     -1.96733709224193     -0.02160543498332
  H   -2.17809384505907     -1.13677701563323     -0.58436544228089
  H   -1.70908754389202     -1.07856778993687      1.12274435027885
