13
Coordinates from ORCA-job run
  C   0.80372055968319     -0.04689414932897      0.03317087819079
  C   -0.52606884086899      0.20259627722013     -0.00946064324539
  N   1.81218713531514      1.01377390835165     -0.18567211791303
  O   1.60915872414723      2.10238426278817      0.33480381875108
  O   2.76446243420324      0.68631900888309     -0.88598341445020
  C   1.34767987428399     -1.34957398000010      0.21888203360638
  N   1.75375853427007     -2.43762588668890      0.41191696606527
  C   -1.01558281859519      1.52627458670144     -0.24370766652838
  N   -1.49997794527169      2.58300083680072     -0.42746039312479
  C   -1.55855558522779     -0.87564690619972      0.16084459037099
  H   -2.04808177213720     -1.07247660215424     -0.79755743795518
  H   -1.11889254257772     -1.80339747196793      0.52878909102006
  H   -2.32380775722428     -0.52773388440535      0.85943429521241
