14

C	-0.407247	-0.122552	-1.438141
C	0.0	0.0	0.0
Br	-2.344928	-0.180558	-1.737823
H	1.094514	0.0	0.0
H	-0.00847	-1.050281	-1.837541
N	0.136894	0.97752	-2.300924
O	0.606707	0.635473	-3.384221
O	0.061856	2.125773	-1.877194
N	-0.315575	-1.259294	0.674067
H	0.499968	-1.491736	1.236705
H	-1.120202	-1.161297	1.279183
C	-0.513725	1.166666	0.69931
N	-0.903632	2.046107	1.377383
H	2.593393	0.0	0.0
