14

C	-0.456217	-0.079688	-1.426597
C	0.0	0.0	0.0
Br	-2.399523	-0.251488	-1.647396
H	1.094497	0.0	0.0
H	-0.015431	-0.958426	-1.888333
N	-0.017122	1.095711	-2.247597
O	0.662995	0.836458	-3.239271
O	-0.352919	2.214849	-1.874157
N	-0.292589	-1.282931	0.639886
H	0.528112	-1.517379	1.194671
H	-1.099935	-1.217263	1.246188
C	-0.503692	1.141457	0.748783
N	-0.871998	1.999972	1.464772
H	2.58531	0.0	0.0
