14

C	-0.455739	0.040126	-1.441555
C	0.0	0.0	0.0
Br	0.336301	-1.383942	-2.488477
H	1.100754	0.0	0.0
H	-0.168971	0.980593	-1.908176
N	-1.96011	-0.033892	-1.543252
O	-2.525074	1.062034	-1.478388
O	-2.514729	-1.122729	-1.616468
N	-0.501802	-1.203586	0.688144
H	0.055829	-1.969495	0.314994
H	-0.194387	-1.112947	1.653178
C	-0.453299	1.196918	0.691745
N	-0.745467	2.164983	1.292393
H	2.631674	0.0	0.0
