14

C	-0.315081	-0.113765	-1.467611
C	0.0	0.0	0.0
Br	-2.212305	-0.433268	-1.893075
H	1.095669	0.0	0.0
H	0.233973	-0.954883	-1.88484
N	0.128375	1.083647	-2.258936
O	-0.371903	2.168591	-1.987673
O	0.983463	0.873193	-3.11642
N	-0.291099	-1.220482	0.736205
H	-1.079399	-1.723254	0.347595
H	0.54976	-1.792268	0.699335
C	-0.576542	1.158252	0.659707
N	-1.010812	2.074243	1.256202
H	2.563173	0.0	0.0
