14

C	-0.404696	-0.08906	-1.452127
C	0.0	0.0	0.0
Br	-0.016901	-1.812588	-2.226779
H	1.095223	0.0	0.0
H	0.127406	0.655471	-2.044867
N	-1.872949	0.176359	-1.685932
O	-2.667744	-0.230559	-0.842002
O	-2.172215	0.787364	-2.71127
N	-0.40327	-1.114944	0.82408
H	-1.293722	-0.959185	1.273803
H	0.325305	-1.262297	1.513829
C	-0.419365	1.311242	0.498854
N	-0.737751	2.362858	0.920465
H	2.638517	0.0	0.0
