14

C	-0.364051	0.036782	-1.476009
C	0.0	0.0	0.0
Br	0.274133	-1.527945	-2.420819
H	1.107933	0.0	0.0
H	0.06619	0.912252	-1.961141
N	-1.848616	0.139035	-1.670172
O	-2.542632	-0.832774	-1.369602
O	-2.27716	1.230682	-2.045338
N	-0.393124	-1.162041	0.765904
H	-1.233503	-1.589302	0.395539
H	0.373938	-1.823746	0.705532
C	-0.472787	1.237228	0.608746
N	-0.813829	2.253771	1.094297
H	2.572302	0.0	0.0
