14

C	-0.398629	-0.01591	-1.45671
C	0.0	0.0	0.0
Br	-0.006935	-1.697299	-2.316144
H	1.095861	0.0	0.0
H	0.138723	0.755966	-2.008774
N	-1.864461	0.260163	-1.688317
O	-2.155084	0.917457	-2.686695
O	-2.66634	-0.185973	-0.871272
N	-0.406428	-1.154764	0.765862
H	0.320005	-1.338172	1.448518
H	-1.297432	-1.021752	1.221107
C	-0.42172	1.28423	0.563431
N	-0.761245	2.304325	1.042824
H	2.636957	0.0	0.0
