14

C	-0.526016	0.129852	-1.433448
C	0.0	0.0	0.0
Br	0.320273	1.572752	-2.408496
H	1.096766	0.0	0.0
H	-1.598161	0.312001	-1.484111
N	-0.34233	-1.179132	-2.155617
O	0.734878	-1.457828	-2.657268
O	-1.335637	-1.91392	-2.123603
N	-0.313876	-1.256603	0.65541
H	0.501163	-1.855123	0.551665
H	-1.137796	-1.714695	0.289686
C	-0.520825	1.13289	0.756748
N	-0.934329	2.053251	1.362065
H	2.605692	0.0	0.0
