14

C	-0.45097	-0.291284	-1.396307
C	0.0	0.0	0.0
Br	-2.401292	-0.436971	-1.602254
H	1.104657	0.0	0.0
H	-0.046325	-1.25081	-1.70788
N	0.011947	0.713305	-2.411189
O	0.217864	0.28148	-3.543646
O	0.140694	1.877858	-2.051244
N	-0.290243	-1.179021	0.819556
H	-1.090028	-1.024016	1.419497
H	0.535611	-1.333195	1.394391
C	-0.516188	1.231056	0.575512
N	-0.934673	2.170787	1.147287
H	2.581254	0.0	0.0
