14

C	-0.346926	-0.121563	-1.478759
C	0.0	0.0	0.0
Br	0.202147	-1.820872	-2.218643
H	1.096664	0.0	0.0
H	0.146165	0.660941	-2.054601
N	-1.818689	0.043842	-1.720059
O	-2.580001	-0.799807	-1.247727
O	-2.166674	1.059873	-2.321757
N	-0.416674	-1.058832	0.888551
H	0.3339	-1.740246	0.916318
H	-1.272503	-1.498803	0.576784
C	-0.473086	1.303819	0.454592
N	-0.833057	2.368496	0.802604
H	2.604482	0.0	0.0
