16
Coordinates from ORCA-job run
  C   -0.71756508990657     -0.26993583145265     -0.14540228500835
  C   0.59277826610441      0.51368257508561      0.06536013019432
  Cl  -0.73233267334005     -0.99032276580027     -1.78493442940514
  H   0.53634242994120      0.91381999169175      1.08934819170881
  N   -0.73007152632421     -1.38347069216388      0.78814057847932
  H   -1.49701620482599     -2.00925552269390      0.56894672589653
  H   -0.87495126057907     -1.02278341564036      1.72638053836546
  N   -1.81505498121371      0.66996518273749     -0.10777694349290
  H   -2.69188786884066      0.20495850385624     -0.31331635094043
  H   -1.87495515857147      1.09270734762321      0.81283890979888
  C   0.65769842815610      1.66456213530324     -0.83719774283777
  N   0.79609155044304      2.58641873348707     -1.55048799654167
  C   1.85686810444355     -0.33846596171534     -0.05417179363274
  H   1.98040636191563     -0.69066299477920     -1.07805803014365
  H   2.73085814557655      0.25815483858814      0.21327903354999
  H   1.78379147702125     -1.19937212412715      0.60805146400934
