16
Coordinates from ORCA-job run
  C   -0.73571006794127     -0.09733123335340      0.29864887361792
  C   0.59595003906280      0.60917352620401     -0.03701856638455
  Cl  -0.85565084015032     -0.16590216998283      2.13226815876392
  H   0.52487614554877      1.64238993805691      0.32436733373744
  N   -1.81064014312652      0.64201256786325     -0.27178981295069
  H   -1.83641920257264      1.59800007049795      0.06326869006820
  H   -2.69982477766461      0.19988769524152     -0.07138356482836
  N   -0.69639917234940     -1.46459130281768     -0.14881053469475
  H   -0.88816376131789     -1.48048330298707     -1.14540742584410
  H   -1.38763225606458     -2.02470408483467      0.33350471719863
  C   0.71468959858985      0.64829898399839     -1.49809755821143
  N   0.84857810084865      0.64058156253802     -2.66454185512036
  C   1.83083504756040     -0.06416223784504      0.56346249043514
  H   2.73477934298381      0.41272726846243      0.18090816336050
  H   1.83794967524299     -1.11893329955869      0.29176635948567
  H   1.82278227134995      0.02303601851689      1.64885453136683
