16
Coordinates from ORCA-job run
  C   -0.75130903070694     -0.02656193833513      0.38528828143217
  C   0.67005922730145      0.56432310932984      0.29059815908958
  Cl  -1.70431427048461      1.12866429088326      1.46155083426229
  H   0.98529429252352      0.76603732876073      1.31759690966521
  N   -1.31877289548631     -0.16420143276288     -0.90916319264074
  H   -2.26217989388197     -0.52801428857386     -0.85112989898822
  H   -1.33280169553127      0.71276547240526     -1.41770834208468
  N   -0.69863400432907     -1.28362586101317      1.09612970562582
  H   -1.52373935105374     -1.41401052076205      1.66506149072503
  H   -0.63764595904710     -2.03398222329548      0.41796572309004
  C   0.64226354029392      1.82973214821623     -0.44482368991573
  N   0.61212666018810      2.81420811417156     -1.08459408569390
  C   1.64761627513213     -0.41332374223801     -0.36656990163204
  H   1.32458135071775     -0.65991283584126     -1.37823370503608
  H   1.70298191047499     -1.32276447255267      0.23169391067420
  H   2.64347384388913      0.03066685160762     -0.41366219857295
