16
Coordinates from ORCA-job run
  C   -0.76681643454340     -0.10637595925802      0.43306967106492
  C   0.54696161096801      0.58908159712123     -0.01795326320822
  Cl  -0.87697588085297      0.11099314971519      2.22092504644273
  H   0.47325359763335      1.63332654204749      0.30532491431677
  N   -1.97484904181712      0.48466467672047     -0.09869552808533
  H   -2.07024823148214      1.45539549142811      0.17627072104289
  H   -1.96960558060024      0.42288258030939     -1.11136877382765
  N   -0.67970517359423     -1.50724954154132      0.15091970241930
  H   -1.57604168008747     -1.93426570733345      0.35661756100740
  H   -0.46788877835945     -1.65313039858621     -0.83130314529893
  C   0.56166417639647      0.57890532640424     -1.48393790686480
  N   0.54019189548951      0.51677125297452     -2.65717153066547
  C   1.82980901169929     -0.03472986603274      0.53521159896938
  H   1.91554848411680     -1.07427138975840      0.22213319808533
  H   2.69953144102122      0.52037337322003      0.17813407608702
  H   1.81517058401237     -0.00237112743052      1.62382365851466
