16
Coordinates from ORCA-job run
  C   -0.84802947581367     -0.01857659744953      0.32739328582739
  C   0.60644969083722      0.52260182764246      0.31322657120954
  Cl  -1.78083208406628      1.17459383953446      1.39383185222423
  H   0.89260136599435      0.69953139737370      1.35483353155813
  N   -1.34823776534795     -0.11164665049812     -0.98999930528963
  H   -1.33506702474595      0.77889509414898     -1.47106286972025
  H   -2.29111165541306     -0.47987225780233     -0.97066037809603
  N   -1.03076762895166     -1.29851316371495      0.94514603708128
  H   -0.56207254460320     -2.01292524078564      0.40269505895385
  H   -0.71138801732678     -1.30607861677698      1.90468450819575
  C   0.65153702415245      1.80747201385511     -0.38615785786500
  N   0.68475054615988      2.80641556097133     -1.00289315428632
  C   1.58393330863423     -0.45974965555356     -0.33849229793961
  H   1.26609986812501     -0.69440138163870     -1.35428853649125
  H   2.58468778810325     -0.02602653212730     -0.37251298434494
  H   1.63844660426216     -1.38171963717893      0.24225653898285
