16
Coordinates from ORCA-job run
  C   -0.76301030964529     -0.12634908798398      0.26372897617227
  C   0.63097295070949      0.52539950180048      0.31781887927154
  Cl  -1.86490072900553      1.04842497861961      1.31084329658982
  H   0.87526793824711      0.68905583148598      1.37262480436404
  N   -1.23982749844264     -0.20277707349162     -1.05969116791506
  H   -1.31354979367045      0.71751580596144     -1.47574019781830
  H   -2.14524294570039     -0.65326375933293     -1.10861075969828
  N   -0.73077041400456     -1.40520121042297      0.86886077361352
  H   -0.53113957061767     -1.32301178580143      1.85778338395611
  H   -1.61714210011575     -1.88428524040718      0.76523366544176
  C   0.58664813934323      1.83505297032605     -0.33358938723342
  N   0.56912755487521      2.85450652440805     -0.91599236564050
  C   1.69396222580263     -0.35735712243560     -0.34491993463462
  H   1.75183895509102     -1.31452599810485      0.17049162915658
  H   2.66630413071065      0.13717244452144     -0.30227898474285
  H   1.43146146642294     -0.53935677914249     -1.38656261088262
