16
Coordinates from ORCA-job run
  C   -0.82093947095186     -0.11074876247053      0.28502247401170
  C   0.52205298146192      0.60958685463688     -0.00341390478169
  Cl  -1.09496592370450      0.12740100910621      2.10720961175931
  H   0.43564433882405      1.61471832291014      0.42263570413461
  N   -1.97788137910538      0.45706425918392     -0.34425484477778
  H   -1.87153939915657      0.40422285693839     -1.35159024342229
  H   -2.12137255366420      1.41707897603046     -0.05995998110352
  N   -0.75265063331439     -1.46318546140883     -0.10487746919931
  H   -1.65819197785941     -1.89883396534171      0.01908486719003
  H   -0.04597698899647     -1.98355524705519      0.39546242615398
  C   0.65282294689263      0.75609218857789     -1.45552794548737
  N   0.75072283472201      0.87572075001819     -2.61958220090548
  C   1.76132982291838     -0.07898380835102      0.57309996014767
  H   2.63948376709500      0.55261735328872      0.42890229521337
  H   1.63405414252654     -0.25256669905564      1.64197449180059
  H   1.95040749231225     -1.02662862700789      0.06581475926617
