16
Coordinates from ORCA-job run
  C   -0.82026517422873     -0.20172216010499     -0.01683119802506
  C   0.57966448301663      0.45649874281362      0.10455452752660
  Cl  -0.95682443062902     -0.83302657889223     -1.74600249631749
  H   0.62223554082145      0.80230320549894      1.14526016373837
  N   -1.03995008566710     -1.34217646901012      0.82598905735626
  H   -0.43238604939085     -2.11451470021646      0.59257600595158
  H   -0.92720694413546     -1.07509823196699      1.79678098616252
  N   -1.81065924895617      0.75228469188044      0.31306130360489
  H   -1.77956630407915      1.56601482255454     -0.28811532007758
  H   -2.72477835660363      0.31975783907129      0.26186946286353
  C   0.65421165598075      1.64826331317410     -0.74133344680709
  N   0.70020795096745      2.60741675099431     -1.41760419844098
  C   1.76001733853815     -0.47533086041990     -0.16402082549576
  H   1.71679746279333     -1.34129076779023      0.49884685991428
  H   2.69636268620820      0.04977203344252      0.03224416698461
  H   1.76313947536417     -0.81715163102885     -1.19827504893869
