16
Coordinates from ORCA-job run
  C   -0.84168172122645      0.00428262414752      0.34853594682708
  C   0.55134980604250      0.63016428224122      0.05584673608479
  Cl  -1.07525904968313      0.08410020761473      2.13547349057038
  H   0.51793566588353      1.65621300589532      0.43519151146612
  N   -1.84309054104689      0.83565330160791     -0.25259132424986
  H   -1.67784308738592      0.92673324546079     -1.24939060429275
  H   -2.74788562939602      0.39990512688307     -0.11263874292483
  N   -0.99503793147781     -1.38585286867354     -0.01122846175656
  H   -0.85017914600819     -1.50242243767855     -1.00867633165371
  H   -0.36147572638616     -1.98861463367869      0.49876147609258
  C   0.70868368077310      0.68459901801962     -1.39979400192237
  N   0.78585846717452      0.68283937537165     -2.57211274469816
  C   1.73239077290188     -0.12099461974370      0.67133934232367
  H   1.80772776174101     -1.13185081327335      0.26674838359452
  H   1.62542371973333     -0.17481745577292      1.75412935766082
  H   2.66308295836068      0.40006264157892      0.44140596687829
