16
Coordinates from ORCA-job run
  C   -0.84400923721075     -0.06375520854635      0.25379836522663
  C   0.53636515218470      0.60146839646567      0.00185101676734
  Cl  -1.07390845770774     -0.02273516427904      2.09179171236031
  H   0.48241199522515      1.62937642863681      0.37986185045589
  N   -1.83998877481488      0.65868324027486     -0.43769559740087
  H   -2.74381208220677      0.22664236788184     -0.29107835678563
  H   -1.86991393881449      1.63392348432763     -0.17128800662826
  N   -0.97633752269617     -1.43775386912920     -0.12712069444672
  H   -0.82694068536017     -1.52741170125187     -1.12605481859393
  H   -0.34676485909339     -2.03908472193501      0.38525160061263
  C   0.74850880940370      0.65501443418296     -1.44784235883349
  N   0.96569107014316      0.64621802623627     -2.60185737533002
  C   1.72187809982042     -0.11020772427789      0.65680977491273
  H   2.64621753852612      0.41643964482081      0.41454139707512
  H   1.60799113692012     -0.13516274178319      1.73931538820709
  H   1.81461175568099     -1.13065489162430      0.28071610240117
