16
Coordinates from ORCA-job run
  C   -0.64335183371616     -0.40560139828763      0.24135715399923
  C   0.71015577965872      0.33193922247576      0.34161092968536
  Cl  -0.34414461860828     -2.14067616020407      0.77285608266093
  H   0.99594193683088      0.36024721949210      1.40017562793324
  N   -1.59136850568295      0.24579303846072      1.08033951808829
  H   -2.49269753277930     -0.21416278989303      1.03203927053355
  H   -1.28895622712081      0.27536851755670      2.04704415133550
  N   -1.06686283152756     -0.47782472980315     -1.13219065698513
  H   -1.74658336402555     -1.21580740731055     -1.26395602272420
  H   -1.48426125995095      0.41210068188837     -1.38518777637666
  C   0.48939033661197      1.71060926337134     -0.10632794969678
  N   0.31313283894481      2.79891127227842     -0.51024788039327
  C   1.83259851507986     -0.30523628543169     -0.47903250289879
  H   1.49974392646150     -0.43835490689463     -1.50760696076667
  H   2.10448953897901     -1.27506820602511     -0.06527192596299
  H   2.71277330084482      0.33976266832646     -0.46560105843159
