16
Coordinates from ORCA-job run
  C   -0.75877115281009     -0.04213833884033      0.36891164846891
  C   0.65247996484579      0.57658715467073      0.30631211286657
  Cl  -1.75711182921334      1.09233128631718      1.42673291952382
  H   0.94121028552900      0.78203396288963      1.34031368490950
  N   -1.29537710394081     -0.18752484998585     -0.93776820968645
  H   -2.23256999446109     -0.56966845556920     -0.90114454667424
  H   -1.31526128521897      0.69014412546308     -1.44493099018936
  N   -0.69714103430662     -1.29951828364322      1.07845740236040
  H   -1.53233036038245     -1.44733299446745      1.62823914630878
  H   -0.60678115233601     -2.04674317498202      0.39996791754911
  C   0.61577907583494      1.84272920818311     -0.42755200766480
  N   0.58137038384181      2.82739625449257     -1.06674137442388
  C   1.66310464600464     -0.38023127150147     -0.33122795038844
  H   1.36734720934304     -0.63015602291911     -1.35033958742867
  H   2.65092571129217      0.08308823482428     -0.35530462772861
  H   1.72312663597798     -1.28999683493195      0.26607446219737
