16
Coordinates from ORCA-job run
  C   -0.83713725192438     -0.07301269954172      0.35144096904149
  C   0.59422530121211      0.52780644830288      0.33078270499224
  Cl  -1.83115486594217      1.10727633475038      1.36578049491739
  H   0.90892629100864      0.67944376074522      1.36970862758266
  N   -1.51158604999949     -0.16952310486328     -0.90750327021722
  H   -1.02233006767999     -0.82117531869248     -1.50868269868767
  H   -1.60078759556385      0.73298909052867     -1.35678918761354
  N   -0.79243019678073     -1.37512091930744      0.90946063783391
  H   -0.42820182583015     -1.36449587981074      1.85420764942577
  H   -1.72764166089836     -1.76473472002634      0.91382338018910
  C   0.55956109416413      1.83691717418545     -0.32081752869929
  N   0.54562472170352      2.85502427587690     -0.90555363083348
  C   1.59824149482949     -0.37892918433741     -0.38824349991377
  H   1.31887508932564     -0.51061152892492     -1.43510948149061
  H   1.63414718403466     -1.35636218989735      0.08947734582119
  H   2.59166833834093      0.07250846101217     -0.36298251234814
