16
Coordinates from ORCA-job run
  C   -0.77720131033647      0.00278076361816      0.28099584220799
  C   0.61164811440871      0.62388542089116      0.03433200998688
  Cl  -1.05844405283059      0.09457546927267      2.10216156841944
  H   0.59427126560016      1.59849278266861      0.53004076917437
  N   -1.78256466340634      0.85335018372928     -0.29921250929248
  H   -1.80451243271927      0.69487190394826     -1.30158934244923
  H   -2.69430772158893      0.65118003053039      0.09213180596713
  N   -0.82148094458821     -1.33363909555345     -0.20312823672007
  H   -0.17375713100028     -1.94295376186495      0.28084970402606
  H   -1.75554692572879     -1.71492747516714     -0.11483099113225
  C   0.75181065959342      0.86362415062301     -1.40463933514409
  N   0.86912060164784      1.04717005204954     -2.55818193925120
  C   1.78618961216909     -0.21079388593022      0.54668020090383
  H   1.65122655325103     -0.44658225034207      1.60305364787022
  H   1.89085918622465     -1.13369960995609     -0.02632067213865
  H   2.71468918930399      0.35166532148286      0.43765747757204
