16
Coordinates from ORCA-job run
  C   -0.85600690713485     -0.03967595727393      0.30480788636175
  C   0.58432214313431      0.53746924902165      0.32970078160352
  Cl  -1.84644700798175      1.12737698886331      1.34725052523673
  H   0.83824175693987      0.72124701854766      1.37845213622335
  N   -1.31900504915479     -0.14321571504069     -1.02537593472316
  H   -2.25210486105060     -0.53614597058429     -1.03094646110735
  H   -1.31682397123042      0.74845830903079     -1.50469272573593
  N   -1.02216275016930     -1.32507918544706      0.91608718186868
  H   -0.52105473429319     -2.02605818881296      0.38509653954051
  H   -0.72734742492912     -1.32616643543001      1.88330811728037
  C   0.61679386390248      1.82308276669796     -0.36892267532879
  N   0.64117730457931      2.82334775366975     -0.98385594110095
  C   1.60299778772371     -0.42024609249209     -0.29538699449971
  H   1.66783928603766     -1.33939455017394      0.28884464095171
  H   1.31610267465802     -0.66484999091444     -1.31809084457593
  H   2.59247788896867      0.03985000033831     -0.30627623199479
