16
Coordinates from ORCA-job run
  C   -0.81886572496822     -0.08067833362238      0.30109568744310
  C   0.54371328931955      0.58981831767941     -0.01387327202689
  Cl  -1.04795174356431      0.16679355059503      2.12802382670345
  H   0.50292663716751      1.59741154623962      0.41326979598505
  N   -1.96636517715605      0.52925748721449     -0.30556857647773
  H   -1.88179978448601      0.47284534761354     -1.31473284032531
  H   -2.06889348522156      1.49379592657369     -0.01892245103006
  N   -0.80796810399108     -1.43473053162210     -0.08939947484438
  H   -1.72624343400552     -1.83663565517885      0.05332597868811
  H   -0.11117584949631     -1.98060373113558      0.39758052863276
  C   0.65082394261756      0.73251272296806     -1.46838031594130
  N   0.72934972295697      0.85098647837628     -2.63395882194745
  C   1.76800518050251     -0.14391400669197      0.53811943753629
  H   1.65538351454276     -0.31374052344885      1.60926669989474
  H   2.66567214982161      0.45531384131034      0.37693217481096
  H   1.91238886596059     -1.09743243687074      0.02722162289867
