16
Coordinates from ORCA-job run
  C   -0.76305548056372     -0.11876033090790      0.26433426129551
  C   0.63089212722768      0.53437946585835      0.30587442703573
  Cl  -1.86907672219909      1.08362371241503      1.27481799172699
  H   0.87079274431964      0.72655790342189      1.35680696684985
  N   -1.23503248012453     -0.23200610667413     -1.05815053522133
  H   -2.14047722324967     -0.68329108227939     -1.09760357532070
  H   -1.30664046617843      0.67629693658999     -1.50002645110243
  N   -0.73262233371208     -1.38055213207471      0.90466530725403
  H   -0.53760277631484     -1.27058724909508      1.89181524041368
  H   -1.61850652654708     -1.86258407723174      0.81076818504663
  C   0.58853021667188      1.82469479508922     -0.38308761381934
  N   0.55740546332254      2.82593048593290     -0.99566395718732
  C   1.69641181096474     -0.36674352132701     -0.32774824279238
  H   2.66896876528419      0.12803311027481     -0.29336201860829
  H   1.75101694863086     -1.30992507670082      0.21306876717134
  H   1.43899593246791     -0.57606683329143     -1.36550875274195
