16
Coordinates from ORCA-job run
  C   -0.89264273677793      0.09540719487458      0.33393081314037
  C   0.58912803348784      0.54801812491741      0.30685203036398
  Cl  -1.77934085201893      1.33637339994251      1.29769999759727
  H   0.89457582110668      0.65258837805665      1.35392267181850
  N   -1.42282049452813      0.10377428161887     -0.99431232437703
  H   -2.37662651462174     -0.23803741155830     -0.97301319459664
  H   -0.87334768057468     -0.48562881922411     -1.60786815357870
  N   -1.12998928884625     -1.15907399736505      1.01366293758348
  H   -0.78940976903046     -1.14776815696966      1.96813843174202
  H   -0.70414350058319     -1.92370241086426      0.50437456284074
  C   0.72970463060594      1.86210965901778     -0.32273265379618
  N   0.91580256948724      2.89913484728159     -0.84041569839491
  C   1.52295459532800     -0.45319884918755     -0.38295049021715
  H   1.44588293691197     -1.43984222233149      0.07666471734847
  H   2.55671847974880     -0.11890386764702     -0.28255619142010
  H   1.31255377030482     -0.53225015056195     -1.45139745605412
