16
Coordinates from ORCA-job run
  C   -0.89084693540599      0.10666575322123      0.33832630952311
  C   0.59279010614389      0.55157500296081      0.29242674866904
  Cl  -1.76270692238383      1.36696874785763      1.29177427150277
  H   0.90491280041187      0.67851435630288      1.33494849139243
  N   -1.43256646991380      0.09710892297847     -0.98443285357277
  H   -0.88241729378882     -0.48902905581015     -1.59996791147917
  H   -2.38314740587425     -0.25230042493771     -0.95260809790866
  N   -1.12866470708172     -1.13590745964178      1.03908208661415
  H   -0.70952222193154     -1.90999180736380      0.53868987752951
  H   -0.78206891189075     -1.11192720774198      1.99101049510180
  C   0.73563152238499      1.85038168004516     -0.36825103184936
  N   0.92293038583883      2.87313277890673     -0.91317267496328
  C   1.51891450101998     -0.46952456326371     -0.37872634784758
  H   1.29733972834872     -0.58024305707138     -1.44216623742611
  H   1.44689580544713     -1.44223276063111      0.11035082427000
  H   2.55352601867529     -0.13219090581127     -0.29928394955586
