16
Coordinates from ORCA-job run
  C   -0.80911768970474     -0.22296364188370      0.06265225762051
  C   0.58012484904959      0.45755022296134     -0.02359633754016
  Cl  -1.03346951516727     -1.17432235626179     -1.49918307078009
  H   0.64420009034868      1.05165714060389      0.89686209616137
  N   -0.86440236358788     -1.03158735266808      1.22619346933485
  H   -1.80620882073597     -1.39248672601503      1.32361992774837
  H   -0.21434765996993     -1.80470058322052      1.18436221023714
  N   -1.92342054047533      0.68063372041504      0.12421533216125
  H   -1.82703780985190      1.27217065175618      0.94222207116521
  H   -1.98236814059811      1.25111148778824     -0.70986482255465
  C   0.59639414917706      1.39603937947450     -1.14600462685700
  N   0.61069539870787      2.15894341353260     -2.03843712719236
  C   1.77955776291687     -0.49006853708395     -0.07956788548252
  H   1.71203596915725     -1.15080180880239     -0.94355625880896
  H   1.83443513317368     -1.08682533036466      0.83259569789128
  H   2.70492918756013      0.08365031976833     -0.15351293310424
