16
Coordinates from ORCA-job run
  C   -0.75223721221046     -0.17929592919709      0.10220928715770
  C   0.62201653153869      0.51328710372395      0.07786403775458
  Cl  -0.99309816028905     -0.92170780554158     -1.63638029501718
  H   0.69487475296313      0.97323359908324      1.07037204049832
  N   -0.75609189375121     -1.21425539490097      1.07518810626289
  H   -1.69904241924757     -1.43821341822773      1.36632637725665
  H   -0.31707514167322     -2.05288448710484      0.72086635572462
  N   -1.76863171400074      0.76111851628019      0.38281463007715
  H   -1.71962369834822      1.55322387092986     -0.24600135795448
  H   -2.68726328169405      0.34329963128687      0.29239487511622
  C   0.63168534174183      1.59426329886706     -0.90878389283033
  N   0.63433987010932      2.47779193217734     -1.68224499300811
  C   1.80425513460418     -0.43248192178082     -0.12258251494490
  H   1.74026717865057     -0.94133705366378     -1.08410603170546
  H   1.82840282824676     -1.16727594383484      0.68309388202223
  H   2.73722188336003      0.13223400190315     -0.09003050640990
