16
Coordinates from ORCA-job run
  C   -0.81635236376523     -0.21803514872171     -0.02243484476609
  C   0.56916407246008      0.46755044624091      0.11047559338831
  Cl  -0.92967253493620     -0.84358485431073     -1.75589972758896
  H   0.59844432822934      0.80866688211434      1.15315906330032
  N   -1.01789501705249     -1.36741358861596      0.81309240866181
  H   -0.91450810886058     -1.10354054178077      1.78592849972095
  H   -0.39372685802565     -2.12603012758516      0.57820523442140
  N   -1.82775123644333      0.71388993411426      0.30613615455803
  H   -1.80912588725985      1.53181718211446     -0.29001653103578
  H   -2.73263254348419      0.26318636332324      0.24670487174182
  C   0.62492037016000      1.66448309987140     -0.72945136395086
  N   0.65659506515497      2.62712297207171     -1.40165737787393
  C   1.76987399332464     -0.43866605564340     -0.15535350508005
  H   1.78649143046270     -0.77498036643828     -1.19111626543526
  H   1.74007796432785     -1.30860943568490      0.50277614013201
  H   2.69409732570791      0.10414323893056      0.04945164980628
