16
Coordinates from ORCA-job run
  C   -0.75009781751349     -0.19069740145213      0.09757107425789
  C   0.61533189675453      0.51973095305655      0.08953532423351
  Cl  -0.98142155734635     -0.89617500338744     -1.65783939421579
  H   0.68154014877556      0.95896132971556      1.09175173082733
  N   -0.74078707888175     -1.24757799592094      1.04653104607944
  H   -1.68064338926747     -1.49075476050935      1.33221503973504
  H   -0.29046322277305     -2.07197629600339      0.67341674773110
  N   -1.77830943358313      0.73023546745903      0.39902150677257
  H   -1.73896540360522      1.53718218295373     -0.21144072463044
  H   -2.69164977296615      0.30326883582030      0.29848185703049
  C   0.61217146928302      1.62104784206141     -0.87418946544325
  N   0.60469121022934      2.51964608321218     -1.63012254145925
  C   1.80937089587538     -0.40696933387844     -0.12971822110374
  H   2.73514854300405      0.16889482645027     -0.08764681638833
  H   1.75039676832176     -0.89847416427654     -1.10061094424655
  H   1.84368674369304     -1.15634256530062      0.66204378082047
