16
Coordinates from ORCA-job run
  C   -0.71096639511089     -0.41164393211650      0.32123995752711
  C   0.66959786781847      0.29950272031372      0.33788874316994
  Cl  -0.37270972011412     -2.13945993283318      0.89760084414652
  H   1.03751908474204      0.28761912633687      1.37086949205413
  N   -1.60112875160853      0.28267079929540      1.16785719978444
  H   -1.25941932705224      0.35647536071404      2.11688631218645
  H   -2.50933043955867     -0.16431682370603      1.15473218163254
  N   -1.35284406061723     -0.54210308149801     -0.95223284207283
  H   -0.81289238396056     -1.10142918083979     -1.59719890790804
  H   -1.53151140768757      0.37913012197338     -1.33638652691684
  C   0.45521083124024      1.69509428131526     -0.05682621591396
  N   0.28108736388389      2.79299435441170     -0.43526668453046
  C   1.72606461132366     -0.32455958930466     -0.57589886160631
  H   1.39624527616385     -0.30556785310731     -1.61624053896316
  H   1.93174207914350     -1.35296592179506     -0.28344546995249
  H   2.65233537139418      0.24855955084017     -0.51257868263704
