16
Coordinates from ORCA-job run
  C   -0.82314448111867     -0.18113010692121      0.06221626148095
  C   0.59717574130275      0.44256640240427      0.03665337132193
  Cl  -1.12699155849950     -0.86923184670909     -1.62311564929863
  H   0.74067402707872      0.81827967070584      1.05788189353725
  N   -0.99434703888668     -1.28445762969753      0.96417005488641
  H   -0.42754877104856     -2.08028198142116      0.70801648008947
  H   -0.78845297703838     -0.98533430002623      1.91017069932052
  N   -1.75798860943583      0.81009761556318      0.44122112451031
  H   -1.76184545969671      1.60065125367411     -0.19118498364168
  H   -2.68277554172388      0.40010499900641      0.48748464037122
  C   0.62397011969250      1.60642761665627     -0.85023177048845
  N   0.63301444810635      2.54464624698816     -1.55646046444173
  C   1.72657625471835     -0.52776065314603     -0.30443928788801
  H   2.68887368351970     -0.02295805313610     -0.20424998058981
  H   1.63237936864063     -0.89811287993277     -1.32436358482244
  H   1.71943079438922     -1.37350635400809      0.38523119565268
