16
Coordinates from ORCA-job run
  C   -0.84036010313628     -0.06611811540641      0.34562206952889
  C   0.58989676223307      0.53790984886622      0.32275863772379
  Cl  -1.84520402408200      1.13567387498125      1.32337903289606
  H   0.89354412036449      0.71890182711093      1.36021055566060
  N   -1.50480844164886     -0.19342401976829     -0.91602747148137
  H   -1.59467942001823      0.69868296552284     -1.38517583411967
  H   -1.00752368845378     -0.85505957296687     -1.49934555365075
  N   -0.79714948540881     -1.35466947041226      0.93364917516421
  H   -0.43903910409378     -1.32266824102660      1.88004813705828
  H   -1.73127200047779     -1.74665593056640      0.93970558505221
  C   0.55770313876374      1.82832958032739     -0.36521947833462
  N   0.54634109315081      2.82983994300205     -0.97797105898691
  C   1.60360367732791     -0.38545421835584     -0.36075674364008
  H   2.59316184543166      0.07506205051519     -0.34857413132361
  H   1.32861005670248     -0.55688189360779     -1.40326938202241
  H   1.64617557334538     -1.34546862821542      0.15096646047538
