19

C	0.0	0.0	0.0
C	-0.26457	0.184515	-1.545725
Cl	1.806946	0.0	0.0
H	0.495593	-0.430155	-2.040899
C	-0.588666	1.114624	0.832588
H	-0.345735	0.960347	1.888234
H	-1.678916	1.023235	0.687211
H	-0.221466	2.095246	0.524774
C	-0.555564	-1.334853	0.451318
H	-0.212684	-2.152788	-0.189103
H	-0.246501	-1.542412	1.480036
H	-1.650159	-1.218831	0.401971
C	0.045709	1.563618	-1.937745
N	0.282748	2.664823	-2.273239
C	-1.630463	-0.232475	-2.105223
H	-1.675079	-1.325461	-2.128465
H	-2.460828	0.093494	-1.451584
H	-1.713727	0.131135	-3.135214
F	-3.282283	0.0	0.0
