19

C	0.0	0.0	0.0
C	-0.258325	-0.044612	-1.558155
Cl	1.807034	0.0	0.0
H	0.478162	-0.758172	-1.947566
C	-0.5884	1.229223	0.651289
H	-0.34553	1.241809	1.717743
H	-0.220887	2.150561	0.194718
H	-1.67868	1.116083	0.523736
C	-0.563926	-1.25065	0.640032
H	-0.259378	-1.306125	1.689636
H	-1.658096	-1.13735	0.569437
H	-0.224247	-2.155668	0.12816
C	0.10381	1.246568	-2.153857
N	0.369472	2.276178	-2.654631
C	-1.640214	-0.487362	-2.058134
H	-1.727758	-1.56973	-1.92344
H	-2.459647	-0.04832	-1.460993
H	-1.709373	-0.272811	-3.130073
F	-3.284867	0.0	0.0
