18

C	-0.427463	0.043576	-1.46262
C	0.0	0.0	0.0
Cl	-2.234121	0.085329	-1.624348
H	1.100158	0.0	0.0
N	0.069381	1.345426	-2.09184
O	-0.468986	2.397438	-1.749952
O	1.005503	1.262616	-2.881622
C	0.122275	-1.126577	-2.234754
H	1.203939	-1.152179	-2.080836
H	-0.323508	-2.024699	-1.816894
H	-0.104976	-1.040445	-3.29762
N	-0.40911	-1.293389	0.548952
H	-1.125127	-1.09918	1.241601
H	0.405562	-1.6457	1.051284
N	-0.437756	1.119947	0.815308
H	-1.167268	1.651409	0.357304
H	0.360217	1.733593	0.945398
H	2.790706	0.0	0.0
