18

C	-0.421031	-0.068037	-1.468682
C	0.0	0.0	0.0
Cl	-2.13264	-0.596914	-1.658391
H	1.098166	0.0	0.0
N	-0.310926	1.324407	-2.085924
O	-1.121785	1.680865	-2.935573
O	0.669449	1.966805	-1.727864
C	0.500365	-0.961134	-2.269254
H	0.390953	-1.989007	-1.923468
H	1.529917	-0.641668	-2.062442
H	0.261042	-0.913185	-3.334252
N	-0.330607	-1.214447	0.72829
H	-1.09267	-1.732145	0.314565
H	0.502037	-1.787982	0.775945
N	-0.603786	1.168287	0.637656
H	-0.850421	0.864895	1.570695
H	0.126977	1.867847	0.727557
H	2.873279	0.0	0.0
