18

C	-0.499822	-0.053964	-1.434273
C	0.0	0.0	0.0
Cl	-2.284566	-0.347504	-1.482256
H	1.093226	0.0	0.0
N	-0.247094	1.307754	-2.074485
O	0.906892	1.483436	-2.451684
O	-1.15017	2.130755	-2.144423
C	0.218094	-1.118882	-2.225736
H	-0.047874	-1.070821	-3.284446
H	1.292324	-0.967321	-2.087415
H	-0.060072	-2.085978	-1.810822
N	-0.334251	-1.266709	0.643879
H	0.411892	-1.468907	1.302686
H	-1.212343	-1.195091	1.145389
N	-0.408101	1.23063	0.642315
H	0.264875	1.440033	1.370846
H	-1.335844	1.159017	1.044236
H	2.804333	0.0	0.0
