18

C	-0.597305	-0.019331	-1.417795
C	0.0	0.0	0.0
Cl	0.155895	1.260626	-2.395473
H	1.091701	0.0	0.0
N	-0.260486	-1.358347	-2.068257
O	0.794973	-1.493537	-2.665438
O	-1.089017	-2.258484	-1.888776
C	-2.09974	0.179676	-1.447646
H	-2.293186	1.168985	-1.039249
H	-2.604876	-0.566964	-0.83425
H	-2.478395	0.114595	-2.470033
N	-0.417693	-1.154566	0.792692
H	-1.032906	-1.776992	0.285352
H	0.430213	-1.670158	1.016476
N	-0.433032	1.25836	0.624765
H	-0.854788	0.985263	1.504098
H	0.41599	1.775664	0.842018
H	2.833418	0.0	0.0
