18

C	-0.583934	-0.005901	-1.410651
C	0.0	0.0	0.0
Cl	0.087019	1.350948	-2.36745
H	1.095164	0.0	0.0
N	-0.148043	-1.275567	-2.150342
O	-0.685869	-1.487876	-3.236723
O	0.702459	-1.986641	-1.632757
C	-2.096298	0.037992	-1.468259
H	-2.477948	-0.818981	-0.912708
H	-2.43624	0.007866	-2.501879
H	-2.461925	0.955429	-1.003942
N	-0.539886	-1.182307	0.690871
H	-0.791223	-0.852495	1.615486
H	0.236806	-1.828778	0.797133
N	-0.356635	1.215383	0.729669
H	-1.031769	1.789049	0.241681
H	0.501109	1.752994	0.816517
H	2.866299	0.0	0.0
