18

C	-0.390273	0.059467	-1.489263
C	0.0	0.0	0.0
Cl	0.265259	-1.366788	-2.325331
H	1.10027	0.0	0.0
N	-1.910193	0.015799	-1.607804
O	-2.478076	1.061973	-1.267664
O	-2.488356	-1.004167	-1.95525
C	0.150898	1.303195	-2.157814
H	-0.302988	2.192692	-1.722437
H	-0.049221	1.28253	-3.23197
H	1.230443	1.310889	-1.977276
N	-0.612668	-1.183575	0.60521
H	-0.489087	-1.047927	1.601865
H	-0.051785	-1.990281	0.348027
N	-0.383824	1.159373	0.773404
H	0.35788	1.846645	0.719032
H	-1.264689	1.556124	0.472575
H	2.884317	0.0	0.0
