14

C	-0.487743	0.037648	-1.451641
C	0.0	0.0	0.0
Cl	0.182024	1.481133	-2.284569
H	1.093341	0.0	0.0
H	-0.338558	0.930279	0.466773
C	-0.085255	-1.160343	-2.19722
N	0.228946	-2.12261	-2.792899
C	-1.954154	0.135549	-1.50719
N	-3.126929	0.211564	-1.510429
C	-0.525815	-1.217594	0.749536
H	-0.139703	-1.188816	1.77025
H	-1.61886	-1.250276	0.794421
H	-0.161749	-2.141531	0.294631
Cl	3.40494	0.0	0.0
