14

C	-0.457247	-0.010576	-1.456927
C	0.0	0.0	0.0
Cl	-2.274578	0.157851	-1.557093
H	1.095115	0.0	0.0
H	-0.339018	0.947319	0.429927
C	0.093266	1.120621	-2.205527
N	0.5188	2.050201	-2.782488
C	-0.125209	-1.266682	-2.134491
N	0.098706	-2.278684	-2.687195
C	-0.501632	-1.191866	0.801005
H	-0.114685	-1.111837	1.818849
H	-0.117589	-2.125674	0.384151
H	-1.592197	-1.24408	0.845801
Cl	3.37468	0.0	0.0
