14

C	-0.457583	0.010585	-1.456265
C	0.0	0.0	0.0
Cl	-2.276444	-0.133267	-1.556648
H	1.095115	0.0	0.0
H	-0.339813	-0.946404	0.431365
C	-0.106933	1.259431	-2.139233
N	0.132774	2.265562	-2.696279
C	0.079145	-1.132011	-2.200011
N	0.492683	-2.071146	-2.772098
C	-0.500005	1.193722	0.799108
H	-1.590406	1.244955	0.847705
H	-0.109088	1.116397	1.815572
H	-0.118324	2.126931	0.378597
Cl	3.371557	0.0	0.0
