14

C	-0.457699	-0.007713	-1.456369
C	0.0	0.0	0.0
Cl	-2.276135	0.150487	-1.555703
H	1.095086	0.0	0.0
H	-0.339067	0.946004	0.433087
C	0.087814	1.127846	-2.203883
N	0.516099	2.033238	-2.817306
C	-0.116474	-1.258397	-2.139573
N	0.150289	-2.257651	-2.696212
C	-0.50173	-1.194553	0.796613
H	-1.592277	-1.245654	0.842874
H	-0.119363	-2.127234	0.375594
H	-0.112952	-1.118721	1.813966
Cl	3.374068	0.0	0.0
