14

C	-0.457531	0.011353	-1.456273
C	0.0	0.0	0.0
Cl	-2.274317	-0.150737	-1.555462
H	1.095055	0.0	0.0
H	-0.338446	-0.947639	0.43009
C	-0.11884	1.266415	-2.133186
N	0.153607	2.273326	-2.673091
C	0.091108	-1.119798	-2.209473
N	0.494797	-2.026127	-2.838815
C	-0.502639	1.191334	0.800678
H	-0.120641	2.125637	0.383049
H	-1.593319	1.241702	0.846468
H	-0.114404	1.112123	1.818052
Cl	3.372186	0.0	0.0
