14

C	-0.48758	-0.010433	-1.451996
C	0.0	0.0	0.0
Cl	0.183189	1.403053	-2.331805
H	1.093458	0.0	0.0
H	-0.338011	0.945512	0.435885
C	-0.0865	-1.233389	-2.157281
N	0.227346	-2.209393	-2.73066
C	-1.954005	0.086895	-1.509784
N	-3.126548	0.165586	-1.504576
C	-0.525602	-1.19241	0.788902
H	-1.618692	-1.223378	0.834982
H	-0.161416	-2.130838	0.364335
H	-0.139671	-1.130512	1.808291
Cl	3.410945	0.0	0.0
