17
Coordinates from ORCA-job run
  C   0.97908390782251      0.03895234745206     -0.13663963345460
  C   -0.32697895886897     -0.14054596501324      0.66918591405107
  H   1.59486546325831      0.76028736176000      0.40267481626624
  H   -0.05319163171128     -0.70088017844619      1.56672021755832
  N   0.60866877540046      0.74026797892378     -1.42418592715056
  O   0.17192027258727      0.02653772805780     -2.32067806592847
  O   0.73907657829996      1.96193469923686     -1.45836539098722
  N   1.74791602859589     -1.11602726897322     -0.45537749178678
  H   1.16621003382752     -1.91900095327002     -0.65322400358884
  H   2.40078268285364     -1.33401261046053      0.28301837145105
  N   -1.24631494513685     -1.07036950360981     -0.07694364934873
  O   -0.92829480649872     -2.26087224261408     -0.07749444422809
  O   -2.22570566107149     -0.59344598158455     -0.63991870040479
  C   -1.02748220232573      1.15727555579123      1.00983363133216
  H   -1.91253768788886      0.96159262243737      1.61643448068925
  H   -0.34773267372765      1.79453131211285      1.57966211911200
  H   -1.33928517541603      1.69277509819969      0.11529775641799
