17
Coordinates from ORCA-job run
  C   0.68900865762035      0.27844001828971     -0.36935206504475
  C   -0.51050783618055     -0.28000731421110      0.37211851725835
  H   0.53711849363220      1.32129688645944     -0.64271059176564
  H   -0.34823918531156     -1.33063993459612      0.61562765278445
  N   0.83371150781065     -0.43997734490780     -1.70572665023075
  O   0.59836803032836     -1.64818874756000     -1.71500129481289
  O   1.26622983244717      0.22179643476765     -2.64405719468108
  N   1.86557127108348      0.13354844256498      0.42614404837931
  H   2.09726272122996     -0.84369574268135      0.56085731490971
  H   2.65329852935491      0.61137126042205      0.00767748977897
  N   -1.70656115847345     -0.27687173015395     -0.53103835784534
  O   -1.78034523469551      0.62869278593522     -1.36110520093754
  O   -2.55051910838348     -1.14402973608152     -0.33209601935005
  C   -0.85009622915682      0.54091391012876      1.60442304276916
  H   0.00735832419219      0.55937277425904      2.27552063071795
  H   -1.09687863668379      1.56578535240760      1.31790483741401
  H   -1.70477997881411      0.10119268495740      2.12081384065614
