17
Coordinates from ORCA-job run
  C   0.70592212875595      0.25498121379942     -0.35215294028259
  C   -0.53049569765918     -0.26162995039935      0.35782126069111
  H   0.58432872040057      1.29341991221842     -0.65570145721997
  H   -0.40236582520838     -1.31115849049334      0.62530407971748
  N   0.88571788923547     -0.49749665430040     -1.66513694759894
  O   1.40029205948367      0.12506604311226     -2.58886797600632
  O   0.59433913239005     -1.69326658520311     -1.66816219768048
  N   1.85089876441813      0.10934358780642      0.48837101923147
  H   2.06039258687195     -0.86803791636854      0.65485110535730
  H   2.66103509552629      0.56265413712874      0.08568592467582
  N   -1.69532624943054     -0.24766803922556     -0.58536022968308
  O   -1.70998857949854      0.62891213765439     -1.44886855947596
  O   -2.57636510798370     -1.07654493618711     -0.38441252532298
  C   -0.89216646591352      0.58859008461070      1.56363476626471
  H   -1.77836650930689      0.18149378725978      2.05283802909166
  H   -1.09786343607949      1.61556031963442      1.25302985154994
  H   -0.06098850600182      0.59378134895285      2.26712679669082
