17
Coordinates from ORCA-job run
  C   0.75912140981248     -0.47272894812208     -0.29071176713293
  C   -0.40724387871422     -0.21416604869931      0.66331002563008
  H   1.16045654007585     -1.46781416677531     -0.09877218037607
  H   -0.06092209742413     -0.39368246487592      1.68330118917903
  N   1.87389071835896      0.48178366210327      0.17310703779321
  O   2.16705023120966      1.41799278602814     -0.56509161377774
  O   2.36589205234709      0.24309099628875      1.27168687879561
  N   0.38978383606352     -0.32813810884654     -1.64539714903081
  H   1.08672938270429     -0.71774491179632     -2.26485491442281
  H   0.24016915260050      0.64038382459363     -1.89474150363442
  N   -1.39636834092077     -1.32287740105854      0.39679045690857
  O   -0.97637582646004     -2.46335380116811      0.57383907188993
  O   -2.52824757812953     -1.02386689626153      0.03426351572909
  C   -1.04553080179093      1.14772617809244      0.51319304490916
  H   -0.30465471256184      1.92752046293285      0.70308739131090
  H   -1.46556589813205      1.27841243453429     -0.48337238621442
  H   -1.85718418903884      1.26646240303029      1.23036290244364
