9
Coordinates from ORCA-job run
  C   0.25049651599927     -0.23674456765807      0.40271456454730
  C   -0.68114871981062      0.34190187026544     -0.36513846817069
  H   0.11131576265427     -0.62113063518180      1.40487315842441
  H   -0.42354205973018      0.69140080089887     -1.36034810641640
  N   1.61367687466383     -0.40099804812802     -0.10183446077194
  O   2.39470233372008     -0.95523313802880      0.67177954115604
  O   1.87619018418589      0.01071681335228     -1.22717522980538
  C   -2.01677665496555      0.51170969054840      0.10274420752980
  N   -3.12391423671701      0.66037721393170      0.47238479350688
