9
Coordinates from ORCA-job run
  C   0.27507499636862      0.02650493438373      0.45128553100516
  C   -0.71444247941993      0.04551942891909     -0.45050137906699
  H   0.18066144900461      0.20804260354009      1.51415933728708
  H   -0.50006657469829     -0.15316067743880     -1.49614257076364
  N   1.64492560215705     -0.26109564090395      0.02706987626334
  O   1.85717822686923     -0.48154444937946     -1.16089451245329
  O   2.48388950452589     -0.25522032319590      0.92811636353519
  C   -2.05705877095764      0.32269196505662     -0.05999455292452
  N   -3.17016195384954      0.54926215901859      0.24690190711767
