9
Coordinates from ORCA-job run
  C   0.22905650709900     -0.28559292078415      0.38237216072147
  C   -0.66168891012318      0.38646236360721     -0.35749366722418
  H   0.03796077728160     -0.78492973677576      1.32349058549333
  H   -0.35374238355018      0.84978589723837     -1.28980317565647
  N   1.61659791627397     -0.39608480154882     -0.06654852577589
  O   1.93519111110852      0.13710112417786     -1.12446129226487
  O   2.35917502162599     -1.03340865311212      0.68056633730571
  C   -2.01903165068483      0.50874740177318      0.06019408343259
  N   -3.14251838903086      0.61991932542424      0.39168349396830
