9
Coordinates from ORCA-job run
  C   0.31281189722870     -0.11051926937972      0.41166016715474
  C   -0.74058521491029      0.21600476333697     -0.34757303675490
  H   0.32717684578189     -0.19334494295171      1.49076781935123
  H   -0.63673189387059      0.26831304044168     -1.42707327939281
  N   1.60369013188909     -0.39705651508011     -0.21323204723002
  O   2.51005313785386     -0.68780647130526      0.56765846115226
  O   1.69186406637496     -0.32987209323985     -1.43499090915178
  C   -2.00779000548805      0.49877097151946      0.24090019205237
  N   -3.05948896485956      0.73451051665856      0.71288263281891
