9
Coordinates from ORCA-job run
  C   0.33686506099392      0.19578781491406      0.35722702136106
  C   -0.77186899443451     -0.10246483805847     -0.33165696923634
  H   0.39741032953518      0.81515134392138      1.24274184263624
  H   -0.71075802225790     -0.73788488035118     -1.20980352429114
  N   1.63003955966400     -0.33444196066384     -0.07408068678166
  O   2.58979682216635     -0.00386377188491      0.62256333003838
  O   1.66809091991010     -1.05008024225089     -1.06973772826318
  C   -2.04231547794899      0.40350209160237      0.07062064544509
  N   -3.09726019762814      0.81429444277149      0.39112606909154
