9
Coordinates from ORCA-job run
  C   0.34255675801002      0.24422438555507      0.31995064429367
  C   -0.77095876697451     -0.12087467027926     -0.32765563989296
  H   0.42883640553683      1.02784534424060      1.06175552762994
  H   -0.73642344842338     -0.92669739948704     -1.05453136520120
  N   1.60492835205485     -0.44266376300100      0.04741056484024
  O   1.61341250532621     -1.34846805303429     -0.77984249907818
  O   2.57148813875579     -0.03641287496011      0.69276964978224
  C   -2.01176496925056      0.53478810923164     -0.07777578436866
  N   -3.04207497503523      1.06825892173439      0.11791890199491
