9
Coordinates from ORCA-job run
  C   0.29223955220545     -0.75198513358069      0.17471640912209
  C   -0.97962148662257     -0.36144358259578      0.00727334159996
  H   0.57444850094017     -1.76868269133440      0.41430152779375
  H   -1.74774849568366     -1.12151638136632      0.12045613564432
  N   1.44421518867501      0.13737246725321      0.06482244659221
  O   2.52899174857148     -0.38459516926310      0.32655378005971
  O   1.25961767790162      1.30312318464730     -0.27024683347459
  C   -1.43928542456186      0.95362874852404     -0.29932004974293
  N   -1.93385726142565      1.99409855771573     -0.53855675759453
