9
Coordinates from ORCA-job run
  C   0.22324398773872     -0.32360506017066      0.35345365259543
  C   -0.66563820301816      0.33001408176151     -0.40503466105326
  H   0.00259933936111     -1.07477968947357      1.10084715876662
  H   -0.32644359590622      1.06721399575690     -1.12628118042204
  N   1.65172640560244     -0.04339011237485      0.21118963589152
  O   2.38876244386811     -0.69288929572487      0.95327126169232
  O   2.00617973299908      0.79439150882225     -0.61183194010359
  C   -2.06239506329815      0.07252007290393     -0.28284215909435
  N   -3.21803504734694     -0.12947550150065     -0.19277176827266
