9
Coordinates from ORCA-job run
  C   0.30382634738372     -0.72017837005653      0.26454287087818
  C   -0.97608750117975     -0.33364206523615      0.16135239954920
  H   0.60188728826297     -1.69517999121307      0.62680221753132
  H   -1.73324964867440     -1.05249704112486      0.46207983998294
  N   1.44524117298505      0.11597413541463     -0.09435051910817
  O   2.54640497131134     -0.41109728794185      0.07021875287789
  O   1.23626442056448      1.24721289011490     -0.52073869354696
  C   -1.45610974281838      0.92658747164541     -0.30359690642232
  N   -1.96817730783502      1.92182025839754     -0.66630996174209
