9
Coordinates from ORCA-job run
  C   0.30129161078213     -0.74141324718915      0.19986569646603
  C   -0.97772349141363     -0.35984093579317      0.06990716212898
  H   0.59592507312989     -1.74797008218521      0.46590083680770
  H   -1.73725346167480     -1.11620489617983      0.24739239460342
  N   1.44606631164270      0.14157691001257     -0.00209307104375
  O   1.24082878738821      1.31341801925822     -0.30195120365062
  O   2.54587120075056     -0.39104095208880      0.15349795799772
  C   -1.45351699336802      0.93945551611306     -0.27660765638789
  N   -1.96248903723704      1.96301966805231     -0.55491211692160
