9
Coordinates from ORCA-job run
  C   0.29918699144101     -0.75803928472369      0.12832417683503
  C   -0.97517774852888     -0.34109223007395      0.15109179933739
  H   0.59137024245375     -1.78310920313612      0.31432280425947
  H   -1.73360512005599     -1.08845220042369      0.36721814453848
  N   1.44186371825868      0.10882393422119     -0.14334004661420
  O   1.23849565030179      1.29570009017343     -0.37834431564259
  O   2.53803849121790     -0.45220680764167     -0.11041963950141
  C   -1.44734592884604      0.98483107567511     -0.08045507542797
  N   -1.95282629624222      2.03354462592939     -0.25039784778419
