9
Coordinates from ORCA-job run
  C   0.31447835086563      0.12374887505606      0.40724811078050
  C   -0.74648265814281     -0.01560418522181     -0.39734972141499
  H   0.32655624606849      0.59714980478837      1.38053404364622
  H   -0.63849407175915     -0.51222321082863     -1.35682263082946
  N   1.61822602784204     -0.39425630856642     -0.00647629215111
  O   1.70909313835757     -0.95223220209089     -1.09518088592139
  O   2.53161113118920     -0.21610119615517      0.79965332149283
  C   -2.02682255392746      0.48069928713365     -0.01528214351118
  N   -3.08916651966670      0.88783015067434      0.28467949212726
