9
Coordinates from ORCA-job run
  C   0.29766419364892     -0.53833407699877      0.54963100336903
  C   -0.96967129899170     -0.35648790219061      0.15079353278323
  H   0.58837801492993     -1.27824293900810      1.28362655673245
  H   -1.72401265679206     -0.99583905240226      0.60101771756095
  N   1.43377125435128      0.23007698534692      0.05018563179293
  O   1.23231717786794      1.10256205192807     -0.78851980640726
  O   2.52311105878092     -0.08055429403520      0.53428723813676
  C   -1.43934965310252      0.59074404617780     -0.80674562509652
  N   -1.94220809069271      1.32607518118215     -1.57527624887157
