9
Coordinates from ORCA-job run
  C   0.26481720972644     -0.22923772596908      0.39634726719665
  C   -0.68993239857466      0.35176425632488     -0.34090786091496
  H   0.17348669183544     -0.56180380112020      1.42230742043645
  H   -0.48116798882539      0.64432819798898     -1.36544163802171
  N   1.58821482931061     -0.46821704767028     -0.17909385546863
  O   2.39794144629503     -1.00595517516483      0.57654164255360
  O   1.79396416064934     -0.12689986777864     -1.33927665939239
  C   -1.98677851013892      0.59446500431700      0.19866310258344
  N   -3.06154544027790      0.80055615907216      0.63086058102753
