9
Coordinates from ORCA-job run
  C   0.29877836985333     -0.74114798524920      0.20499755759645
  C   -0.97810101555927     -0.36080765354235      0.05294477425333
  H   0.59030369053822     -1.74710994389873      0.47666758230608
  H   -1.74011743348944     -1.11774373083565      0.21694860713932
  N   1.44587646766878      0.14327507244840      0.02311648145774
  O   1.24469452912077      1.31372069828229     -0.28476896798032
  O   2.54319719778269     -0.38706766464411      0.20217973426530
  C   -1.44915529507628      0.93774553540670     -0.30280747937973
  N   -1.95447651083880      1.96113567203266     -0.58827828965817
