9
Coordinates from ORCA-job run
  C   0.29447163771627     -0.73819244171526      0.22148856494552
  C   -0.98092367625688     -0.34565129042828      0.08936449747931
  H   0.57930265643159     -1.73980320500454      0.51565529916762
  H   -1.74776451194085     -1.08711149240054      0.29637955039911
  N   1.44800122809812      0.12374037909052     -0.01891522195479
  O   2.54270320116337     -0.42049459810177      0.13262624964105
  O   1.25411818221894      1.29057107433002     -0.34477309479360
  C   -1.44515680455857      0.94727961693849     -0.29464336913146
  N   -1.94475191287200      1.96866195729136     -0.59718247575276
