9
Coordinates from ORCA-job run
  C   0.31179015022485      0.11367533336461      0.41310274707005
  C   -0.74518537627790     -0.01496671824564     -0.39840999974906
  H   0.31257966872135      0.54541027486609      1.40567040208857
  H   -0.62540432303508     -0.46665273039686     -1.37847804563168
  N   1.62750474075217     -0.35441457765855     -0.02144302811402
  O   2.53689733902775     -0.18860255794737      0.79175057160030
  O   1.73161461039895     -0.86312488931479     -1.13287568425216
  C   -2.03765390113096      0.43266690527075      0.00272599600503
  N   -3.11114290868113      0.79700896006176      0.31795704098297
