9
Coordinates from ORCA-job run
  C   0.28581756249867     -0.63977519568534      0.43522878316178
  C   -0.97278595172534     -0.18914611763594      0.32878371320144
  H   0.55947075196254     -1.49703867520201      1.03595849721531
  H   -1.73605123843078     -0.72787670727672      0.88345243647644
  N   1.43261431878662     -0.04008665403931     -0.23992709995632
  O   1.25151409933903      0.94839297867528     -0.94381611488527
  O   2.50899954510494     -0.60194236216921     -0.03233248654973
  C   -1.42212529324009      0.92620612153633     -0.43865200593997
  N   -1.90745379429558      1.82026661179691     -1.02969572272367
