9
Coordinates from ORCA-job run
  C   0.35595080210764      0.16252688826074      0.35535199250187
  C   -0.78786821568067     -0.06792739566321     -0.30129958364570
  H   0.46514502415305      0.70190555874394      1.28748617041719
  H   -0.77595184104654     -0.62406525680597     -1.23371203103527
  N   1.62127138093299     -0.33587482784225     -0.18301112507081
  O   1.60425696062263     -0.95977245692412     -1.23902577582287
  O   2.61636679438152     -0.07596005853081      0.49369770523427
  C   -2.03241912738948      0.40700914141009      0.20591879655781
  N   -3.06675177808114      0.79215840735159      0.61359385086351
