15

C	0.0	0.0	0.0
C	-0.349975	-0.2874	-1.497999
F	1.40456	0.0	0.0
H	0.619893	-0.201626	-2.003017
H	-0.287598	-0.851299	0.624677
N	-0.52327	1.248223	0.430048
H	-1.553844	1.027676	0.357801
H	-0.306786	1.336545	1.419651
C	-1.346338	0.640443	-2.201983
H	-1.006389	1.673943	-2.104187
H	-1.396633	0.379242	-3.265117
H	-2.305106	0.516333	-1.694503
C	-0.742429	-1.688974	-1.659361
N	-0.986509	-2.823114	-1.843734
F	-2.773311	0.0	0.0
