15

C	0.0	0.0	0.0
C	-0.491401	0.098002	-1.451565
F	1.389072	0.0	0.0
H	-1.592433	0.115069	-1.276179
H	-0.336814	-0.968603	0.377049
N	-0.513096	1.004817	0.872037
H	-0.341243	1.912766	0.447469
H	-1.536804	0.80823	0.788842
C	-0.066175	-1.098508	-2.300228
H	-0.469469	-2.009851	-1.850496
H	1.02268	-1.182449	-2.347903
H	-0.456591	-1.023613	-3.318454
C	-0.048501	1.350274	-2.05228
N	0.307213	2.356653	-2.545687
F	-2.794759	0.0	0.0
