15

C	0.0	0.0	0.0
C	-0.263167	0.01596	-1.550337
F	1.380522	0.0	0.0
H	0.621869	0.54669	-1.920728
H	-0.314103	-0.953582	0.438039
N	-0.57373	1.148249	0.606599
H	-1.601669	0.914447	0.476125
H	-0.388162	1.089935	1.604198
C	-1.490935	0.715284	-2.138757
H	-1.456653	1.764261	-1.840862
H	-2.392642	0.280892	-1.707071
H	-1.44243	0.652916	-3.231916
C	-0.141201	-1.354945	-2.058999
N	-0.03408	-2.442301	-2.492713
F	-2.859586	0.0	0.0
