15

C	0.0	0.0	0.0
C	-0.272581	-0.112174	-1.54603
F	1.380107	0.0	0.0
H	0.630549	0.343691	-1.968058
H	-0.313444	-0.913543	0.516619
N	-0.570556	1.196086	0.51228
H	-0.382106	1.221544	1.51086
H	-1.598164	0.955354	0.403961
C	-1.47585	0.590753	-2.177922
H	-2.389354	0.230186	-1.700826
H	-1.450002	0.438145	-3.262491
H	-1.390446	1.658512	-1.967139
C	-0.215348	-1.52439	-1.93278
N	-0.155047	-2.648662	-2.267726
F	-2.861363	0.0	0.0
