15

C	0.0	0.0	0.0
C	-0.200106	0.084817	-1.57065
F	1.390501	0.0	0.0
H	0.591315	0.785424	-1.873171
H	-0.362942	-0.954041	0.378409
N	-0.583949	1.038272	0.756229
H	-1.609621	0.790347	0.651604
H	-0.421214	1.923062	0.283998
C	-1.523404	0.5781	-2.15749
H	-2.357275	0.030976	-1.713031
H	-1.471949	0.524311	-3.25064
H	-1.671689	1.622195	-1.868149
C	0.175377	-1.207397	-2.152064
N	0.463754	-2.240345	-2.633772
F	-2.893872	0.0	0.0
