15

C	0.0	0.0	0.0
C	-0.487723	-0.016887	-1.457262
F	1.388815	0.0	0.0
H	-1.589319	-0.005334	-1.288483
H	-0.33759	-0.938489	0.447291
N	-0.517333	1.063643	0.793959
H	-1.540913	0.857523	0.721511
H	-0.346662	1.940364	0.307888
C	-0.030991	-1.263606	-2.212507
H	-0.397624	-2.149526	-1.685969
H	1.059772	-1.315858	-2.26545
H	-0.432653	-1.285272	-3.228822
C	-0.068348	1.197776	-2.145789
N	0.268133	2.177132	-2.70323
F	-2.79534	0.0	0.0
