15

C	0.0	0.0	0.0
C	-0.311065	-0.024852	-1.521772
F	1.385378	0.0	0.0
H	0.367703	-0.789868	-1.923576
H	-0.350257	-0.927603	0.450409
N	-0.490228	1.082973	0.781367
H	-1.519536	0.892608	0.688852
H	-0.271625	1.952382	0.306539
C	0.064702	1.307035	-2.180717
H	0.017232	1.216961	-3.268241
H	-0.632929	2.090703	-1.879395
H	1.079248	1.59248	-1.891969
C	-1.647247	-0.426967	-1.998445
N	-2.422004	-0.796269	-2.806506
F	-2.651711	0.0	0.0
