15

C	0.0	0.0	0.0
C	-0.415928	-0.014323	-1.502633
F	1.386999	0.0	0.0
H	0.538844	-0.064244	-2.042138
H	-0.283518	-0.953664	0.459795
N	-0.515514	1.140199	0.678251
H	-1.5459	0.934079	0.570889
H	-0.2906	1.029041	1.663009
C	-1.196089	1.206948	-1.995669
H	-0.656129	2.117255	-1.731527
H	-1.314208	1.155922	-3.082948
H	-2.163421	1.175458	-1.494791
C	-1.117976	-1.254185	-1.845032
N	-1.553206	-2.27856	-2.218216
F	-2.737092	0.0	0.0
