15

C	0.0	0.0	0.0
C	-0.259186	0.022337	-1.554222
Cl	1.757613	0.0	0.0
H	0.475204	-0.69211	-1.944819
H	-0.427175	0.823279	0.550686
N	-0.445186	-1.263475	0.648443
O	-0.454299	-2.278271	-0.046715
O	-0.614062	-1.224864	1.859895
C	0.183712	1.3453	-2.015103
N	0.487961	2.413614	-2.398189
C	-1.569146	-0.300107	-2.28075
H	-2.316202	0.465958	-2.107018
H	-1.973955	-1.241734	-1.928789
H	-1.304846	-0.367173	-3.348553
F	-2.328231	0.0	0.0
