15

C	0.0	0.0	0.0
C	-0.452455	0.04625	-1.487777
Cl	1.755611	0.0	0.0
H	0.453933	0.232209	-2.079394
H	-0.355731	0.86173	0.545965
N	-0.423922	-1.167	0.843653
O	-0.424979	-2.286941	0.345943
O	-0.594549	-0.92111	2.031144
C	-1.280897	1.240009	-1.689858
N	-1.760401	2.250998	-2.049579
C	-1.130749	-1.186182	-2.09338
H	-2.024475	-1.374341	-1.507585
H	-0.458819	-2.043456	-2.085056
H	-1.391816	-0.948655	-3.129627
F	-2.360552	0.0	0.0
