15

C	0.0	0.0	0.0
C	-0.449442	0.116228	-1.485745
Cl	1.757446	0.0	0.0
H	0.46173	0.297334	-2.073436
H	-0.357807	0.830992	0.590522
N	-0.418729	-1.214548	0.774656
O	-0.610479	-1.038319	1.971059
O	-0.396064	-2.304506	0.21435
C	-1.241942	1.342907	-1.631466
N	-1.684484	2.397696	-1.903788
C	-1.168249	-1.068929	-2.141685
H	-2.055207	-1.266146	-1.547039
H	-1.447649	-0.767089	-3.156257
H	-0.5162	-1.939697	-2.197881
F	-2.364974	0.0	0.0
