15

C	0.0	0.0	0.0
C	-0.451677	-0.12108	-1.483667
Cl	1.755659	0.0	0.0
H	0.455656	-0.015111	-2.093843
H	-0.355952	0.915997	0.448888
N	-0.421361	-1.071466	0.962848
O	-0.610748	-0.702011	2.11469
O	-0.402648	-2.238373	0.587785
C	-1.267984	1.050701	-1.82008
N	-1.734166	2.023581	-2.287646
C	-1.148283	-1.404796	-1.945416
H	-0.486911	-2.264667	-1.849926
H	-1.416336	-1.278152	-2.999421
H	-2.038979	-1.514611	-1.335536
F	-2.365083	0.0	0.0
