15

C	0.0	0.0	0.0
C	-0.444639	0.233214	-1.473767
Cl	1.757451	0.0	0.0
H	0.467058	0.470045	-2.037231
H	-0.361013	0.781626	0.652422
N	-0.41758	-1.272712	0.678923
O	-0.609514	-1.188043	1.885339
O	-0.394512	-2.315958	0.035639
C	-1.242366	1.463766	-1.529998
N	-1.704241	2.526691	-1.722653
C	-1.154871	-0.895654	-2.227934
H	-1.403032	-0.52596	-3.228924
H	-2.058606	-1.123997	-1.669411
H	-0.508575	-1.766619	-2.325423
F	-2.360336	0.0	0.0
