15

C	0.0	0.0	0.0
C	-0.272024	-0.001252	-1.551578
Cl	1.757897	0.0	0.0
H	0.510862	-0.650983	-1.956237
H	-0.425169	0.832785	0.537793
N	-0.448781	-1.250819	0.673486
O	-0.48414	-2.274144	-0.00256
O	-0.591622	-1.192108	1.887464
C	0.067655	1.351695	-2.011042
N	0.317604	2.432591	-2.397002
C	-1.566771	-0.444776	-2.238468
H	-1.339273	-0.503813	-3.313181
H	-1.861445	-1.420126	-1.866234
H	-2.3717	0.242826	-2.021586
F	-2.349869	0.0	0.0
