15

C	0.0	0.0	0.0
C	-0.326839	0.070313	-1.539392
Cl	1.75739	0.0	0.0
H	0.570519	-0.304748	-2.041775
H	-0.412373	0.814528	0.574261
N	-0.425775	-1.261762	0.671435
O	-0.392571	-2.29432	0.006834
O	-0.614572	-1.200954	1.878613
C	-0.367771	1.500006	-1.853937
N	-0.369695	2.637771	-2.143734
C	-1.502276	-0.638088	-2.22401
H	-1.324592	-0.570577	-3.306456
H	-1.524279	-1.683984	-1.928003
H	-2.430092	-0.177683	-1.913457
F	-2.34411	0.0	0.0
