18

C	-0.554921	0.041823	-1.412092
C	0.0	0.0	0.0
Br	0.535343	1.426922	-2.500219
H	1.101089	0.0	0.0
C	-0.262843	-1.264104	-2.125101
H	0.797809	-1.500183	-2.031669
H	-0.846207	-2.054497	-1.653949
H	-0.521186	-1.17609	-3.184021
N	-1.938372	0.363243	-1.460404
H	-2.072327	1.286852	-1.06395
H	-2.256459	0.371713	-2.423316
N	-0.26838	-1.255653	0.650872
H	-1.108541	-1.193798	1.211991
H	0.51957	-1.433509	1.268987
N	-0.390105	1.135713	0.823829
O	-0.739838	2.208298	0.290107
O	-0.227106	1.013708	2.051134
H	2.452725	0.0	0.0
