18

C	-0.577285	-0.057113	-1.417666
C	0.0	0.0	0.0
Br	-0.13631	1.506969	-2.544823
H	1.100365	0.0	0.0
C	0.077648	-1.246547	-2.118355
H	1.165924	-1.151519	-2.079254
H	-0.254779	-1.295462	-3.158599
H	-0.219908	-2.157814	-1.595646
N	-2.025535	-0.107607	-1.327712
H	-2.40962	-0.300662	-2.248059
H	-2.231126	-0.901008	-0.723786
N	-0.40474	-1.22397	0.680516
H	-0.917234	-0.953154	1.510011
H	0.462417	-1.660635	0.986104
N	-0.444103	1.1907	0.769706
O	-0.104332	2.293673	0.351704
O	-1.064344	1.022459	1.832261
H	2.663791	0.0	0.0
