18

C	-0.387004	0.101085	-1.472132
C	0.0	0.0	0.0
Br	-0.098644	-2.002149	-2.252687
H	1.096274	0.0	0.0
C	-1.859252	0.26855	-1.762993
H	-2.070678	0.168191	-2.829656
H	-2.425271	-0.480953	-1.210601
H	-2.160933	1.269095	-1.430993
N	0.472874	0.93652	-2.113856
H	0.367457	0.988957	-3.11651
H	1.441528	0.871973	-1.781343
N	-0.65588	-1.084461	0.692884
H	-0.246574	-1.936538	0.32626
H	-0.392154	-1.014262	1.669888
N	-0.376734	1.280614	0.661991
O	-1.224003	1.264235	1.565879
O	0.245123	2.287412	0.316206
H	2.674502	0.0	0.0
