18

C	-0.317566	-0.040216	-1.462932
C	0.0	0.0	0.0
Br	-2.608336	0.356578	-1.541628
H	1.095931	0.0	0.0
C	0.225917	1.047042	-2.340927
H	-0.165235	2.022059	-2.081376
H	-0.003808	0.826857	-3.38761
H	1.312213	1.039792	-2.170458
N	-0.078023	-1.282285	-1.939271
H	0.011701	-2.010402	-1.249635
H	0.347884	-1.395992	-2.84007
N	-0.452949	-1.168767	0.674121
H	-1.437257	-1.074226	0.899878
H	0.077285	-1.270983	1.53115
N	-0.391789	1.266086	0.676607
O	0.013463	2.320954	0.189614
O	-1.00423	1.190056	1.745342
H	2.580362	0.0	0.0
