18

C	-0.480488	0.098501	-1.449556
C	0.0	0.0	0.0
Br	-0.105979	2.013348	-2.071664
H	1.101114	0.0	0.0
C	0.407407	-0.774548	-2.314881
H	0.183267	-0.621432	-3.373666
H	1.456472	-0.547427	-2.104288
H	0.215588	-1.820903	-2.061326
N	-1.854871	-0.225141	-1.605128
H	-2.133074	-0.143727	-2.574923
H	-2.423227	0.378104	-1.022124
N	-0.397491	-1.23197	0.62475
H	-1.161312	-1.673098	0.130217
H	0.415681	-1.836337	0.669166
N	-0.568647	1.12076	0.82626
O	-1.802248	1.233464	0.838591
O	0.192525	1.830122	1.469985
H	2.814102	0.0	0.0
