18

C	-0.421262	-0.189508	-1.472304
C	0.0	0.0	0.0
Br	-0.095297	-2.127089	-1.874311
H	1.092536	0.0	0.0
C	-1.898516	0.053604	-1.705093
H	-2.111956	1.115896	-1.549993
H	-2.478258	-0.538348	-0.994727
H	-2.164943	-0.217667	-2.728644
N	0.40478	0.532983	-2.404148
H	1.370716	0.426369	-2.089073
H	0.176101	1.512143	-2.272256
N	-0.552803	-0.988668	0.911809
H	-0.454466	-0.588246	1.839377
H	0.085697	-1.77723	0.879105
N	-0.358313	1.331217	0.480488
O	-0.558197	1.482643	1.698758
O	-0.306005	2.29345	-0.306935
H	2.585815	0.0	0.0
