12
Coordinates from ORCA-job run
  C   -0.65250426315833      0.38930850668352     -0.08044425951039
  C   0.45234949778178     -0.46034825921870      0.56100255631724
  Cl  -0.27485348137067      2.12252399466544      0.15842929626215
  H   0.48362890953107     -0.27689767794393      1.63317048298230
  H   0.28091296926596     -1.51847737838756      0.34979362071228
  C   -0.84688331704428      0.11939133341135     -1.50761889624017
  N   -1.08197380038946     -0.11366162194644     -2.63521832808488
  C   -1.89690550056417      0.07522592164335      0.63022242369518
  N   -2.86712205647488     -0.21418311888654      1.22696690121957
  N   1.80170401147986     -0.11498532338215      0.01942216188009
  O   2.70054024945327      0.01766681399312      0.84247633773162
  O   1.90110678148985     -0.02556319063146     -1.19920229696499
