12
Coordinates from ORCA-job run
  C   -0.72668368663261      0.00341491672352     -0.26676197280672
  C   0.47866574011551     -0.28493300405831      0.63474276573344
  Cl  -0.91691652945522     -1.32221667487957     -1.45316795350935
  H   0.32334964488548     -1.21600233526035      1.17720783234274
  H   0.63183308521526      0.54074330859312      1.33439229320415
  C   -1.90852588173902      0.02354851450396      0.60283414484335
  N   -2.82661267083854      0.03374539586350      1.33672483583702
  C   -0.63766238932352      1.29022110042250     -0.96214883749343
  N   -0.63168555429659      2.34817912624989     -1.47340763662578
  N   1.75302242830396     -0.44076125755880     -0.13481613054155
  O   1.88329414173726      0.22218328131620     -1.15707158283181
  O   2.57892167202804     -1.19712237191564      0.36247224184794
