12
Coordinates from ORCA-job run
  C   -0.65532475768282      0.38287446427270     -0.15410132088774
  C   0.46439570297654     -0.30139944674400      0.63738688488899
  Cl  -0.28951744164050      2.12561164043364     -0.32491947230169
  H   0.54218731965490      0.14048459104737      1.62939262519431
  H   0.27031796783140     -1.37425728187075      0.71519269266296
  C   -0.88321230308423     -0.21437128829048     -1.47277704204230
  N   -1.14358317123657     -0.71766217430194     -2.50222684012995
  C   -1.88076556787028      0.24003970525263      0.64076551754413
  N   -2.83653832975809      0.10104660261811      1.31055986607067
  N   1.80659486805496     -0.15044365554113     -0.00830692536215
  O   1.84492904880218     -0.08216417566713     -1.23108931856006
  O   2.76151666395252     -0.14975898120902      0.75912333292283
