12
Coordinates from ORCA-job run
  C   -0.65055447474366     -0.01757005151523     -0.41872779806597
  C   0.77850428546519      0.32763777445376      0.01407388771468
  Cl  -0.62406330507242     -1.45737542572764     -1.47982874963115
  H   0.76955862971491      1.18042064722409      0.69775835221968
  H   1.38825243930399      0.55115273574674     -0.85982509978015
  C   -1.56102182044005     -0.24077857486931      0.70772510292106
  N   -2.33511116718636     -0.34909134924530      1.58516209393999
  C   -1.14310427570551      1.12545629924255     -1.19632213734330
  N   -1.49688522671422      2.06392026217362     -1.80914025569769
  N   1.45269324883697     -0.79761793976358      0.73511946778633
  O   0.75141981117081     -1.53728658807324      1.41516041823364
  O   2.67031185537036     -0.84886778964645      0.60884471770286
