12
Coordinates from ORCA-job run
  C   -0.64503611538431      0.02051191892931     -0.42548343892419
  C   0.78755492956989      0.30470810029075      0.03926633213990
  Cl  -0.64528446924388     -1.37536111195346     -1.54440669964945
  H   0.79333939811555      1.12523757615614      0.76135588819211
  H   1.41445865084815      0.54919723937139     -0.81663245273460
  C   -1.57716025749028     -0.22149868759821      0.67912812044324
  N   -2.36445060671708     -0.34262913841063      1.54301244156847
  C   -1.09329121652534      1.20831008341343     -1.16155304550791
  N   -1.41253902751651      2.18131930837404     -1.73831327721832
  N   1.41914773038279     -0.87218401726476      0.71499282094028
  O   0.69010635220537     -1.60826444145799      1.36942408358841
  O   2.63315463175564     -0.96934682985000      0.58020922716207
