12
Coordinates from ORCA-job run
  C   -0.76480536147336     -0.13373565840078     -0.22995951871068
  C   0.47059503840145     -0.31312874773124      0.67308574751084
  Cl  -1.11535338903036     -1.60191636365191     -1.18587828948855
  H   0.44515739363158     -1.30195773224466      1.13266771316390
  H   0.49409707132191      0.47369021090586      1.42600188792456
  C   -1.91104943345754      0.12052252262176      0.64880886739914
  N   -2.80145692376979      0.31755885670569      1.39014860552402
  C   -0.57687227652235      1.00586918340261     -1.13206085506190
  N   -0.39776119131350      1.92959951044858     -1.83644432840492
  N   1.73950832058829     -0.19481209659566     -0.10734266901646
  O   1.89154011418495     -0.97759441492785     -1.03881295752709
  O   2.52540063743867      0.67490472946759      0.25778579668713
