12
Coordinates from ORCA-job run
  C   -0.84580122584962     -0.10483331274468     -0.16701089030108
  C   0.47977965495443     -0.80317437131616      0.15018020386077
  Cl  -2.05932267920395     -1.42180921424279     -0.33093114993466
  H   0.75698682116037     -1.47689230285261     -0.66130806360403
  H   0.39851711089137     -1.36557983642056      1.08099748493785
  C   -1.26577689607330      0.77379381455804      0.92529275289804
  N   -1.61962865045526      1.43471216063469      1.82998103241336
  C   -0.78104187635564      0.62112705839616     -1.43593405444906
  N   -0.73383526519889      1.15624684574851     -2.48088567670845
  N   1.61009482485106      0.16618512556192      0.32043459258167
  O   2.69321346811148     -0.34178851719815      0.57648857152263
  O   1.36681471316796      1.36301254987562      0.19269519678296
