12
Coordinates from ORCA-job run
  C   -0.73683015877302      0.04031938145476     -0.23329362588098
  C   0.49490733555868     -0.32564307537453      0.60213476169668
  Cl  -1.03465957428598     -1.23420159416667     -1.45251686191753
  H   0.32677548936115     -1.26851207576734      1.12004439879868
  H   0.71166097100725      0.46866213454717      1.32107071987312
  C   -1.87667813776912      0.07731181225614      0.69030128847818
  N   -2.75914296901564      0.09876272643162      1.46631864341583
  C   -0.62641807309988      1.34670132012946     -0.88806403415481
  N   -0.60382862112468      2.42255632930585     -1.36022266890955
  N   1.72619254865592     -0.50393650198477     -0.23042727637970
  O   1.83269193041282      0.18161222941968     -1.24041798759329
  O   2.54532925907249     -1.30363268625136      0.20607264257336
