12
Coordinates from ORCA-job run
  C   -0.62946944801002      0.43297358841446     -0.12069434770151
  C   0.43971240772584     -0.38799680469775      0.60862029473873
  Cl  -0.15728593414378      2.15824122694543     -0.12859943895024
  H   0.18295778891476     -1.45002816071761      0.58015905602037
  H   0.53092236062662     -0.04849501085082      1.63902535830630
  C   -0.88070370940848     -0.02541084763808     -1.48981516742862
  N   -1.16411232703582     -0.41246916962019     -2.56255475103195
  C   -1.86872716005262      0.29214436144300      0.65264532583600
  N   -2.83863586049394      0.14735826919768      1.30047817836977
  N   1.79517122466407     -0.25308768888593     -0.01188039375835
  O   2.74082870196386     -0.35943348402900      0.76004877763322
  O   1.85034195524952     -0.09279627956121     -1.22543289203373
