12
Coordinates from ORCA-job run
  C   -0.72009947981519      0.04072289151328     -0.27971504238354
  C   0.45946699467846     -0.34198916290162      0.62087228494309
  Cl  -0.91705000579711     -1.19017284208005     -1.56285477898730
  H   0.27135153175002     -1.30632738675189      1.08991428417882
  H   0.61669417686270      0.42623874816048      1.38233255116880
  C   -1.91775790754482      0.02666725624374      0.56818620175237
  N   -2.84594796980274      0.00512865966280      1.28876962740120
  C   -0.58845020216915      1.37199376490573     -0.87802413832316
  N   -0.55859841233180      2.46248849071708     -1.31498658887298
  N   1.74514106438009     -0.47238208347967     -0.13426370315076
  O   2.54260565767358     -1.28457949048402      0.31931161345772
  O   1.91164455211595      0.26121115449413     -1.10154231118426
