12
Coordinates from ORCA-job run
  C   -0.64835387038983      0.48027249403200      0.03732682660123
  C   0.44874267315765     -0.42665775859204      0.62629377623327
  Cl  -0.40256798345332      2.19675143715822      0.46910886566502
  H   0.66221072999293     -0.12193628186375      1.65149449748730
  H   0.13097729153996     -1.46741551380843      0.57927380876645
  C   -0.69614134868650      0.34375481585744     -1.42112084695812
  N   -0.71775086322212      0.20629966307304     -2.58824582808906
  C   -1.92653207208273      0.04709692561758      0.61117537983553
  N   -2.92961906808112     -0.32699292449964      1.09612223594991
  N   1.71518493944043     -0.33181245297263     -0.16147698406806
  O   2.13823999859228     -1.37918188621801     -0.64259142472370
  O   2.22560957319236      0.77882148221623     -0.25736030669977
