12
Coordinates from ORCA-job run
  C   -0.65784089020433      0.40368040275990     -0.04627020724645
  C   0.46143366951411     -0.47110677418614      0.52889237318665
  Cl  -0.30949336095940      2.12432434509954      0.29819659927549
  H   0.28182442793215     -1.52122308778647      0.28454526035975
  H   0.51972111942982     -0.33847518642558      1.60795735705208
  C   -0.86520800195383      0.21195818961396     -1.48428088312717
  N   -1.11065501445977      0.02724740374843     -2.61850620052344
  C   -1.89029513314565      0.02782092742887      0.65609073101121
  N   -2.85380991666375     -0.30768610114219      1.23949438066725
  N   1.80861550355682     -0.12217988907002     -0.02246585138291
  O   2.75302026544062     -0.31052840404708      0.73505714840293
  O   1.86168733151322      0.27716817400678     -1.17971070767541
