12
Coordinates from ORCA-job run
  C   -0.72824980728260      0.04503144823674     -0.25536110966958
  C   0.47429973687342     -0.32354778074515      0.62055928105721
  Cl  -0.99808263611769     -1.23854339505034     -1.47155874284093
  H   0.67769863882198      0.47652730560914      1.33690108038858
  H   0.28157549548381     -1.25935589675807      1.14251885404991
  C   -1.89535038256942      0.09947162511479      0.63259538680900
  N   -2.80056973866503      0.13672790972528      1.38133827465753
  C   -0.58835070776278      1.34431908264190     -0.91864366166650
  N   -0.54529588729085      2.41440331178394     -1.40228827745924
  N   1.72739206036305     -0.52256876509251     -0.17378071558044
  O   2.51913105850444     -1.33702125171123      0.28565215509132
  O   1.87680216964168      0.16355640624551     -1.17793252483686
