12
Coordinates from ORCA-job run
  C   -0.81078781981084     -0.18948065698265     -0.22394026532188
  C   0.50419264123776     -0.78416251353670      0.30189628942738
  Cl  -2.01787326283297     -1.51811300672582     -0.17512596186623
  H   0.89319408911255     -1.50876354268786     -0.41416787760975
  H   0.34026561129798     -1.23387336538666      1.27882061346846
  C   -1.26142744681115      0.89401191437866      0.65248637700840
  N   -1.59528985706316      1.75884919391250      1.37505080150719
  C   -0.71222544849850      0.28490977199479     -1.60537809503159
  N   -0.67762706666147      0.63370487102388     -2.72704634529429
  N   1.52890214886013      0.29040792507189      0.47311743350527
  O   1.84258769816518      0.90696222836028     -0.54148646787170
  O   1.96708871300450      0.46454718057768      1.60577349807874
