12
Coordinates from ORCA-job run
  C   -0.73352737800844      0.02796749975000     -0.24520845820267
  C   0.48716626868843     -0.30173102166266      0.62075136398831
  Cl  -1.00752219792193     -1.29151950427274     -1.42193068415074
  H   0.68878341798521      0.51827412356414      1.31472366289131
  H   0.31575735967485     -1.22688802369941      1.16854040205272
  C   -1.88734792472725      0.09211473906184      0.65927483597255
  N   -2.78192374631071      0.13705675755795      1.42023160023585
  C   -0.61955109109264      1.30982729679518     -0.94614648450916
  N   -0.59524231931513      2.36621067395120     -1.46027948852528
  N   1.73223165323760     -0.50175521220805     -0.18597282178578
  O   1.85044808305387      0.14727610361214     -1.21852076795246
  O   2.54972787473613     -1.27883343244959      0.29253683998536
