12
Coordinates from ORCA-job run
  C   -0.68957009828256      0.30742107841756     -0.16912217181345
  C   0.49214186029998     -0.22439722404132      0.64903249071690
  Cl  -0.49794464356190      2.06782205047142     -0.42378049941574
  H   0.40664848810013     -1.30685257316555      0.77399553766776
  H   0.52328928084807      0.26671536477204      1.62021409188987
  C   -0.85650370763928     -0.37087259965136     -1.45738647861139
  N   -1.06666348927545     -0.94499314997120     -2.46091910664949
  C   -1.89553483691679      0.08189207753716      0.63603648687429
  N   -2.83457354773622     -0.12126396017955      1.31300110485289
  N   1.81289522892248      0.03247826125710     -0.00721922967388
  O   2.76041048534611      0.17592374441093      0.75617706493379
  O   1.84740497989543      0.03612693014276     -1.23202929077155
