12
Coordinates from ORCA-job run
  C   -0.69538847722945      0.29236630968236     -0.16947583329296
  C   0.48757678953583     -0.23667210586918      0.64869805651604
  Cl  -0.55095190004952      2.06628737320703     -0.35156920677398
  H   0.43432019903024     -1.32553386049603      0.72788949911823
  H   0.48610650004729      0.21498471186685      1.63933072906255
  C   -0.82082663846099     -0.33796902552558     -1.48638941962421
  N   -0.99730958122839     -0.87543020977470     -2.51635887964132
  C   -1.90737867505402      0.00044132638441      0.60457878558469
  N   -2.85097877113972     -0.25692315146469      1.25627103660452
  N   1.81068976943901      0.08780209225795      0.02829877058771
  O   2.73800055742133      0.23988046399313      0.81460418795406
  O   1.86814022768837      0.13176607573847     -1.19487772609533
