12
Coordinates from ORCA-job run
  C   -0.81599716322332     -0.20375718595103     -0.19419943023375
  C   0.50507717585510     -0.77676343411691      0.34094359561096
  Cl  -1.96974079646220     -1.57601951039385     -0.26876507130647
  H   0.35951545428822     -1.14264203101956      1.35647397151236
  H   0.86065358932168     -1.55734191332584     -0.32905290752391
  C   -1.36769498043615      0.82312366645086      0.69145995171565
  N   -1.83277291238449      1.63645957440970      1.40111847775948
  C   -0.63945256036239      0.34063001048966     -1.54214311053489
  N   -0.48525048499267      0.76817016580435     -2.62616954264105
  N   1.54458924156218      0.29557625095012      0.38227023734371
  O   1.50530456905414      1.05529886103036      1.34707136389055
  O   2.33376886777992      0.33626554567214     -0.55800753559263
