12
Coordinates from ORCA-job run
  C   -0.68404411742927      0.33279534442167     -0.12939010859416
  C   0.48425763806839     -0.32422170950476      0.61417119426374
  Cl  -0.47008564146502      2.10885943235842     -0.12797234061522
  H   0.50552416827645      0.01593438727037      1.64824790543516
  H   0.39203931624240     -1.41262322049308      0.57280976406941
  C   -0.84573757543743     -0.15178116013483     -1.50291676523712
  N   -1.05322300886925     -0.57568193598395     -2.57911469307594
  C   -1.90096166381150      0.00845907774482      0.62373539390241
  N   -2.85174619670589     -0.27987330929712      1.25153551554524
  N   1.81265594779470      0.02182630833899      0.01753698933217
  O   2.74702298519299      0.08443379858905      0.80782122975679
  O   1.86529814814343      0.17187298669040     -1.19746408478249
