12
Coordinates from ORCA-job run
  C   -0.64408204862889      0.42518002083881     -0.05660958854481
  C   0.42625790418427     -0.50198100225062      0.52927429351710
  Cl  -0.26257305474282      2.12147109561257      0.36498491431233
  H   0.22608232800909     -1.53749273068423      0.24231529971746
  H   0.44650640212589     -0.40778749991451      1.61374369149415
  C   -0.79844096513497      0.29124071814277     -1.50774312904471
  N   -1.00308622000169      0.15437022466861     -2.65675712418346
  C   -1.91359881161234      0.06060801225632      0.58286922949921
  N   -2.90809694380547     -0.26646801955719      1.11707088973824
  N   1.80392515819463     -0.17683957041139      0.04198756452060
  O   2.71237125522803     -0.43486806330978      0.82249718377756
  O   1.91373499618427      0.27256681460865     -1.09263322480367
