12
Coordinates from ORCA-job run
  C   -0.72482369139907      0.03592953504528     -0.26869952194179
  C   0.46745414528457     -0.32764595047705      0.62275324605970
  Cl  -0.94803388853085     -1.22801968423624     -1.51484285014768
  H   0.28378584467085     -1.27847785525065      1.12030010713184
  H   0.63961063715963      0.45956240556770      1.36126470501708
  C   -1.90956198731851      0.05115389989387      0.59723469659957
  N   -2.82987807801387      0.05564585534262      1.32824533884746
  C   -0.59631732668301      1.35016106311381     -0.90420817319984
  N   -0.56217765661871      2.42965223522919     -1.36723542568770
  N   1.74070046655755     -0.48326050049169     -0.14893019830962
  O   2.54417934962204     -1.28231094113086      0.31696360139519
  O   1.89206218526936      0.21860993739402     -1.14184552576421
