12
Coordinates from ORCA-job run
  C   -0.72416012790210      0.02765275885520     -0.27200391122317
  C   0.46913295285581     -0.32338319133666      0.62348512294244
  Cl  -0.92151238236152     -1.23244452994089     -1.52671168428307
  H   0.62775418097143      0.46330133114796      1.36564201824743
  H   0.29581878694486     -1.27866359531849      1.11614697320025
  C   -1.91369712891910      0.01926683062953      0.58729647869776
  N   -2.83781542284495      0.00619723569746      1.31347120823362
  C   -0.61129716402607      1.34739873176601     -0.89887968298922
  N   -0.58640027748618      2.43100302642364     -1.35264985806417
  N   1.74724141131923     -0.45916968487273     -0.14369151997993
  O   1.89515939116202      0.25228735416097     -1.13049783952015
  O   2.55777578028657     -1.25344626721200      0.31839269473822
