12
Coordinates from ORCA-job run
  C   -0.64404236935332      0.41636443830173     -0.10560415044173
  C   0.44876761599612     -0.39853069249980      0.59440293340433
  Cl  -0.23687542272070      2.15648597468323     -0.02803398638614
  H   0.52206345017958     -0.10239867433608      1.63966199657866
  H   0.22972135289613     -1.46668862973572      0.51754004991144
  C   -0.86695272200793      0.01435332236460     -1.49709725058212
  N   -1.12558102694610     -0.33339536815515     -2.58934304151666
  C   -1.88372039181156      0.19409277601728      0.64769896302477
  N   -2.85412154556932     -0.01388916327123      1.27737834334430
  N   1.80324646921190     -0.19089708891449     -0.00870259699612
  O   1.86078655276735      0.04170661118335     -1.21034402046855
  O   2.74670803735785     -0.31820350563772      0.76244276012782
