12
Coordinates from ORCA-job run
  C   -0.72408507003822      0.10749033440741     -0.25176468241669
  C   0.45301723095941     -0.42710342020883      0.57112544480807
  Cl  -1.03274595042797     -0.98366994072560     -1.63517783462582
  H   0.21980734876848     -1.42017516665823      0.95157488928626
  H   0.67468501014955      0.25271903623616      1.39774364078492
  C   -1.89798763485225      0.08703633040769      0.62877482433079
  N   -2.81127480354372      0.05728329320705      1.36799722190389
  C   -0.52446154506545      1.47889449188057     -0.72829482481781
  N   -0.43145480327413      2.60221508493801     -1.06051615653499
  N   1.71025372532944     -0.55687408539309     -0.23113317999164
  O   1.88663550337026      0.23995619048555     -1.14508113296724
  O   2.47861098862461     -1.43777214857668      0.13575179024025
