12
Coordinates from ORCA-job run
  C   -0.71998630875568      0.01613547369216     -0.28144813929092
  C   0.46568986840223     -0.31181131006848      0.63238526516514
  Cl  -0.88403164941578     -1.25726706803229     -1.52781351098797
  H   0.29933323441391     -1.26616592332533      1.12907895169793
  H   0.60346028812396      0.48215424703140      1.37087295241096
  C   -1.92009116591241     -0.00183204665133      0.56270796812029
  N   -2.85265926082581     -0.02577992229914      1.27769865517288
  C   -0.61814677398212      1.33118542360115     -0.91978015797193
  N   -0.60938898037345      2.40881551872331     -1.38839849612250
  N   1.75625003360793     -0.43455157182623     -0.11605216200875
  O   1.90839726033875      0.27352184899369     -1.10426768850155
  O   2.57117345437847     -1.21340466983889      0.36401636231641
