12
Coordinates from ORCA-job run
  C   -0.71893906698981      0.05564993830015     -0.28135594556595
  C   0.45068494956404     -0.35780846349193      0.61841860584471
  Cl  -0.93482023654591     -1.15711683911968     -1.57849982961700
  H   0.24490941485894     -1.32439508427996      1.07536260828695
  H   0.61829466270933      0.39805938928797      1.38997862024524
  C   -1.92046403196396      0.05532597330230      0.56121853930104
  N   -2.85686110924062      0.04590183355844      1.27150051215956
  C   -0.55952789670186      1.39106650365302     -0.86351172980140
  N   -0.49889595491615      2.48714950315785     -1.28269023931847
  N   1.73740585847247     -0.50102852038764     -0.13326345276331
  O   2.52483223926608     -1.32062347834035      0.32425439835952
  O   1.91438117148745      0.22881924435983     -1.10141208713091
