12
Coordinates from ORCA-job run
  C   -0.73082692857788      0.07047063227860     -0.24264490674266
  C   0.47687361522627     -0.36732105213144      0.59348547387200
  Cl  -1.03320057037698     -1.12985321908343     -1.53374607599938
  H   0.27826898646985     -1.33120458565481      1.05917539921489
  H   0.69838702950628      0.38433423080730      1.35559738762566
  C   -1.88700984037865      0.08344265738201      0.66107638416915
  N   -2.78392000532528      0.08320027216895      1.42062341033546
  C   -0.57982069251013      1.40675515756458     -0.82498560829717
  N   -0.52539828777549      2.50363380598626     -1.24301102584736
  N   1.71798417294518     -0.53211783241677     -0.22688359491096
  O   2.50609001851969     -1.38010277581025      0.17446422384927
  O   1.86257250227715      0.20876270890900     -1.19215106726890
