12
Coordinates from ORCA-job run
  C   -0.69048335681711      0.30405882387437     -0.15536816517830
  C   0.48588885316140     -0.28053342098315      0.63513695297649
  Cl  -0.51921313585987      2.08234347298787     -0.25059915693949
  H   0.48407876645441      0.11328793866416      1.65001002016624
  H   0.42450137497539     -1.37165122918492      0.64786781212904
  C   -0.82531027672928     -0.25885401411669     -1.50166695649899
  N   -1.01228179203729     -0.74500732091888     -2.55499090904364
  C   -1.90652020341107     -0.00776719232432      0.60427230729048
  N   -2.85366139356680     -0.28028696153168      1.24465840082709
  N   1.81001261307997      0.07445233737470      0.03572374472295
  O   2.72647384768214      0.23906998953773      0.83240892835583
  O   1.87851470306812      0.13088757662081     -1.18645297880770
