12
Coordinates from ORCA-job run
  C   -0.68127071798428      0.33575441100413     -0.14795643341796
  C   0.47701202725258     -0.29682777737655      0.63097752942776
  Cl  -0.45166502365465      2.10822730324363     -0.22750393623637
  H   0.50239000750593      0.09795424287256      1.64536404515486
  H   0.36896428875067     -1.38438411188878      0.65031410209261
  C   -0.84071268251004     -0.21048553475255     -1.49836494543057
  N   -1.04362562137041     -0.67809556740024     -2.55716630698279
  C   -1.90384521613109      0.05895720816385      0.61510704475924
  N   -2.85739052419698     -0.18550975182486      1.25718992118889
  N   1.81274073210006     -0.00538288471510      0.02108595300420
  O   2.75076013399067      0.04229901830010      0.80780098262521
  O   1.86664259624753      0.11749344437383     -1.19684795618510
