14

C	-0.350309	-0.005597	-1.463053
C	0.0	0.0	0.0
F	0.221581	-1.067004	-2.074431
H	1.094725	0.0	0.0
H	-0.036484	0.924825	-1.935262
N	-1.854591	-0.116523	-1.683474
O	-2.531777	0.737139	-1.121386
O	-2.272079	-1.017509	-2.401326
C	-0.521916	-1.143847	0.703777
N	-0.917395	-2.126193	1.216273
N	-0.311323	1.254405	0.654986
O	-0.561234	1.232385	1.866588
O	-0.118586	2.281718	-0.009831
H	2.374107	0.0	0.0
