14

C	-0.470835	0.030256	-1.44233
C	0.0	0.0	0.0
F	0.344962	0.781479	-2.214503
H	1.091984	0.0	0.0
H	-1.495157	0.385739	-1.550563
N	-0.464047	-1.374542	-2.010682
O	0.539324	-1.752705	-2.600785
O	-1.495145	-2.018564	-1.826637
C	-0.404486	-1.162423	0.751813
N	-0.656428	-2.139765	1.35714
N	-0.394683	1.208797	0.684417
O	-0.703857	2.19528	-0.011899
O	-0.242071	1.231655	1.915652
H	2.339667	0.0	0.0
