14

C	-0.468338	-0.035574	-1.443874
C	0.0	0.0	0.0
F	0.25602	0.808034	-2.208737
H	1.091928	0.0	0.0
H	-1.529399	0.190654	-1.562086
N	-0.288055	-1.430905	-2.017218
O	0.633042	-1.620462	-2.799836
O	-1.124255	-2.254679	-1.653029
C	-0.399261	-1.117754	0.820179
N	-0.648042	-2.033867	1.515754
N	-0.408028	1.240574	0.63196
O	-0.173601	1.344226	1.843815
O	-0.828886	2.16199	-0.090513
H	2.361049	0.0	0.0
