14

C	-0.47345	0.029114	-1.442338
C	0.0	0.0	0.0
F	0.406847	0.664042	-2.248522
H	1.091976	0.0	0.0
H	-1.454584	0.489406	-1.553113
N	-0.625863	-1.384545	-1.962519
O	-1.72671	-1.897117	-1.771736
O	0.33383	-1.900265	-2.52079
C	-0.414481	-1.151965	0.761035
N	-0.675436	-2.126608	1.36652
N	-0.372651	1.221337	0.67053
O	-0.590985	2.220083	-0.042773
O	-0.273115	1.24417	1.90763
H	2.330081	0.0	0.0
