14

C	-0.472488	0.053156	-1.441209
C	0.0	0.0	0.0
F	0.344153	0.815335	-2.202268
H	1.091924	0.0	0.0
H	-1.495981	0.413118	-1.542868
N	-0.472902	-1.340255	-2.036079
O	-1.506608	-1.98278	-1.862983
O	0.525696	-1.71146	-2.638294
C	-0.40292	-1.173587	0.735147
N	-0.651356	-2.159234	1.328018
N	-0.397992	1.198211	0.703364
O	-0.713949	2.192691	0.022663
O	-0.244821	1.203021	1.93385
H	2.343294	0.0	0.0
