14

C	-0.307615	-0.033917	-1.470492
C	0.0	0.0	0.0
F	-0.153576	-1.306735	-1.939295
H	1.093681	0.0	0.0
H	0.332909	0.646882	-2.02876
N	-1.736476	0.346128	-1.798953
O	-2.619463	-0.16527	-1.113253
O	-1.908632	1.084387	-2.76849
C	-0.488426	-1.121614	0.759283
N	-0.800046	-2.084088	1.357445
N	-0.359293	1.269131	0.574764
O	-0.352955	2.239205	-0.207873
O	-0.487368	1.351264	1.802384
H	2.36107	0.0	0.0
