15

C	-0.342363	-0.00571	-1.470838
C	0.0	0.0	0.0
F	-0.140738	1.239442	-1.981265
H	1.102002	0.0	0.0
H	-0.339639	-0.950054	0.419404
N	0.377634	-0.943976	-2.268972
H	1.368093	-0.801081	-2.070373
H	0.134188	-1.877583	-1.961319
N	-1.827065	-0.31346	-1.657599
O	-2.163473	-1.454333	-1.343656
O	-2.567342	0.561111	-2.08118
N	-0.660326	1.105604	0.68893
H	-0.216764	1.962765	0.379427
H	-0.451392	1.022189	1.676714
Br	3.602665	0.0	0.0
