15

C	-0.346216	0.068893	-1.468346
C	0.0	0.0	0.0
F	-0.138403	1.333324	-1.914216
H	1.094528	0.0	0.0
H	-0.341903	-0.96753	0.372621
N	0.368413	-0.836944	-2.308664
H	1.357063	-0.699629	-2.108513
H	0.133822	-1.780528	-2.030658
N	-1.833465	-0.217406	-1.667332
O	-2.178327	-1.36437	-1.389662
O	-2.567286	0.67737	-2.057345
N	-0.653656	1.075585	0.741965
H	-0.169012	1.935609	0.522839
H	-0.504223	0.906685	1.727329
Br	3.599261	0.0	0.0
