15

C	-0.566925	-0.001268	-1.397162
C	0.0	0.0	0.0
F	-1.978734	-0.124259	-1.289423
H	1.089514	0.0	0.0
H	-0.35009	-0.899355	0.511364
N	-0.179747	1.101905	-2.1388
H	-0.203917	1.916526	-1.538848
H	-0.717023	1.205347	-2.986409
N	-0.23708	-1.262531	-2.177816
O	0.150284	-2.245077	-1.554977
O	-0.462018	-1.219533	-3.385202
N	-0.431199	1.255216	0.632651
H	-1.294657	1.121834	1.13956
H	0.288394	1.537704	1.283023
Br	3.621154	0.0	0.0
