15

C	-0.514975	0.03665	-1.413803
C	0.0	0.0	0.0
F	-0.195472	1.208549	-2.024985
H	1.097867	0.0	0.0
H	-0.353127	-0.925797	0.459388
N	-0.084914	-1.032994	-2.217713
H	-0.231814	-1.92296	-1.764171
H	-0.509794	-1.012051	-3.135579
N	-2.075544	0.071926	-1.325736
O	-2.577421	-0.932395	-0.824124
O	-2.691367	1.024375	-1.783953
N	-0.585166	1.137796	0.72207
H	-0.41125	0.996272	1.710384
H	-0.052479	1.960937	0.463146
Br	3.701394	0.0	0.0
