15

C	-0.511919	0.036819	-1.414745
C	0.0	0.0	0.0
F	-0.188608	1.206254	-2.027375
H	1.097867	0.0	0.0
H	-0.35321	-0.9264	0.458181
N	-0.08336	-1.034786	-2.217337
H	-0.494536	-1.002636	-3.141779
H	-0.251945	-1.924493	-1.769358
N	-2.072058	0.075627	-1.328411
O	-2.577212	-0.926553	-0.826631
O	-2.684951	1.028597	-1.7878
N	-0.586833	1.137629	0.720463
H	-0.047428	1.958702	0.470237
H	-0.424547	0.991672	1.709754
Br	3.706701	0.0	0.0
