16

C	-0.601571	0.027249	-1.414216
C	0.0	0.0	0.0
Cl	0.319789	-1.28639	-2.346099
H	1.088272	0.0	0.0
N	-1.994445	-0.246052	-1.349189
H	-2.382692	-0.389667	-2.272106
H	-2.092377	-1.091001	-0.794853
C	-0.381024	1.240203	-2.205286
N	-0.312056	2.149673	-2.944866
N	-0.456067	-1.194577	0.670269
H	-1.047942	-0.926906	1.447597
H	0.373506	-1.646772	1.035368
N	-0.455131	1.22827	0.722769
O	-0.134607	2.308336	0.23578
O	-1.097102	1.110119	1.772609
F	2.522064	0.0	0.0
