16

C	-0.096377	0.131849	-1.552379
C	0.0	0.0	0.0
Cl	-1.720495	0.778445	-2.129302
H	1.092482	0.0	0.0
N	0.970961	0.95723	-1.984323
H	1.184122	0.807191	-2.960833
H	1.797417	0.7462	-1.373839
C	-0.042842	-1.237341	-2.1075
N	0.098704	-2.295649	-2.603843
N	-0.587323	-1.129682	0.620765
H	0.029611	-1.923053	0.521435
H	-1.512408	-1.343751	0.270196
N	-0.528433	1.254548	0.60575
O	-1.649032	1.211585	1.116451
O	0.175489	2.258664	0.537634
F	2.626763	0.0	0.0
