16

C	-0.098957	0.02473	-1.539556
C	0.0	0.0	0.0
Cl	-1.779727	0.404354	-2.13492
H	1.09222	0.0	0.0
N	0.876845	0.876792	-2.180402
H	0.628194	1.826336	-1.917162
H	1.744434	0.656258	-1.657978
C	0.161383	-1.358918	-1.980339
N	0.359133	-2.461636	-2.334552
N	-0.583834	-1.096673	0.678143
H	-1.376928	-1.489687	0.190662
H	0.111267	-1.807452	0.850989
N	-0.418817	1.304735	0.613411
O	-0.646162	1.316507	1.816976
O	-0.437031	2.31414	-0.095925
F	2.573855	0.0	0.0
