16

C	-0.611631	0.005571	-1.408632
C	0.0	0.0	0.0
Cl	0.28605	-1.322368	-2.333472
H	1.087524	0.0	0.0
N	-2.00636	-0.257159	-1.318277
H	-2.099302	-1.096979	-0.753479
H	-2.407527	-0.407862	-2.235187
C	-0.396892	1.208396	-2.217675
N	-0.329603	2.114834	-2.96174
N	-0.443855	-1.193035	0.685193
H	0.397937	-1.644776	1.021276
H	-1.00199	-0.918653	1.485167
N	-0.458225	1.228759	0.7175
O	-0.185515	2.307144	0.201346
O	-1.047132	1.112371	1.798101
F	2.51883	0.0	0.0
