15

C	0.0	0.0	0.0
C	-0.241327	-0.041423	-1.562718
Cl	1.79368	0.0	0.0
H	0.585799	0.557834	-1.970962
H	-0.395398	-0.89504	0.459327
C	-0.482927	1.215015	0.642003
N	-0.613179	2.261916	1.163768
C	-1.490923	0.543785	-2.191751
H	-2.357952	-0.040081	-1.903353
H	-1.311708	0.571271	-3.279559
H	-1.66396	1.559848	-1.838456
N	-0.092592	-1.449582	-1.961197
H	0.890289	-1.671588	-2.066499
H	-0.53526	-1.57609	-2.862893
F	-2.419391	0.0	0.0
