15

C	0.0	0.0	0.0
C	-0.568935	-0.441485	-1.392403
Cl	1.783194	0.0	0.0
H	-1.349402	-1.152145	-1.119199
H	-0.317482	-0.721961	0.748359
C	-0.443341	1.322514	0.438469
N	-0.587798	2.416692	0.839877
C	0.444419	-1.08376	-2.326795
H	0.968272	-1.924488	-1.868848
H	-0.09581	-1.463484	-3.201585
H	1.179113	-0.35389	-2.669002
N	-1.178679	0.725929	-2.026947
H	-2.016227	0.819776	-1.423766
H	-1.505066	0.432131	-2.943635
F	-2.647627	0.0	0.0
