15

C	0.0	0.0	0.0
C	-0.267262	-0.084669	-1.581512
Cl	1.790077	0.0	0.0
H	0.571803	-0.691572	-1.931631
H	-0.348791	-0.894173	0.506104
C	-0.500165	1.195629	0.662292
N	-0.63748	2.237329	1.192887
C	-0.137122	1.307717	-2.181455
H	0.792788	1.805956	-1.902837
H	-0.182024	1.231078	-3.270037
H	-0.975189	1.91819	-1.834654
N	-1.473327	-0.724088	-2.096185
H	-2.144475	0.03527	-2.165384
H	-1.901642	-1.142531	-1.265654
F	-2.467352	0.0	0.0
