15

C	0.0	0.0	0.0
C	-0.440673	0.075507	-1.50192
Cl	1.787221	0.0	0.0
H	0.477793	-0.004522	-2.092415
H	-0.34204	-0.946431	0.408924
C	-0.452684	1.101695	0.84397
N	-0.637917	2.028887	1.540787
C	-1.119894	1.401928	-1.845725
H	-0.486733	2.265776	-1.6109
H	-1.332649	1.422047	-2.920994
H	-2.048229	1.428841	-1.272229
N	-1.24612	-1.113523	-1.76721
H	-2.077686	-0.921665	-1.165252
H	-1.536475	-1.073788	-2.740304
F	-2.702775	0.0	0.0
