15

C	0.0	0.0	0.0
C	-0.488645	-0.139275	-1.465463
Cl	1.790242	0.0	0.0
H	-1.576425	-0.192408	-1.279609
H	-0.362702	-0.840488	0.58496
C	-0.458923	1.246953	0.60857
N	-0.629153	2.308309	1.084332
C	0.027506	-1.413498	-2.109934
H	-0.493917	-1.55345	-3.059318
H	1.10234	-1.379464	-2.314517
H	-0.174753	-2.279238	-1.471837
N	-0.190353	1.012813	-2.302874
H	0.788795	1.269521	-2.215456
H	-0.744859	1.794075	-1.970702
F	-2.613349	0.0	0.0
