15

C	0.0	0.0	0.0
C	-0.419078	0.104093	-1.533396
Cl	1.789675	0.0	0.0
H	0.514617	-0.013619	-2.09368
H	-0.345696	-0.94658	0.405466
C	-0.454439	1.084629	0.863608
N	-0.635267	1.993112	1.586429
C	-1.008734	1.470267	-1.848617
H	-0.331124	2.281327	-1.56214
H	-1.944664	1.536823	-1.293805
H	-1.199947	1.526559	-2.923094
N	-1.333169	-0.931735	-1.967543
H	-0.896879	-1.834679	-1.802173
H	-2.114604	-0.807218	-1.288196
F	-2.632762	0.0	0.0
