12

C	0.0	0.0	0.0
C	-0.510882	0.486955	-1.364678
Cl	1.77608	0.0	0.0
H	0.248585	0.223866	-2.108057
H	-0.352664	0.620837	0.821503
H	-0.337977	-1.026237	0.129255
C	-0.564867	1.971834	-1.373262
N	-0.58934	3.145147	-1.429244
N	-1.726429	-0.210112	-1.716623
H	-2.06849	0.120378	-2.611173
H	-2.493886	-0.065422	-1.046066
Cl	-4.396318	0.0	0.0
