12

C	0.0	0.0	0.0
C	-0.429165	-0.268147	-1.434076
Cl	1.780906	0.0	0.0
H	-1.526987	-0.24516	-1.398393
H	-0.372959	0.975423	0.299067
H	-0.354176	-0.77435	0.675413
C	-0.012935	-1.620683	-1.878559
N	0.259474	-2.682095	-2.299305
N	0.039379	0.795472	-2.315193
H	1.020049	0.669124	-2.528254
H	-0.481094	0.764513	-3.182646
Cl	-3.388516	0.0	0.0
