12

C	0.0	0.0	0.0
C	-0.439924	0.075444	-1.481419
Cl	1.777454	0.0	0.0
H	0.171793	-0.663216	-2.011209
H	-0.363813	0.848326	0.577051
H	-0.348574	-0.932091	0.440913
C	-0.040051	1.385205	-2.038097
N	0.237548	2.418502	-2.520655
N	-1.817015	-0.180641	-1.804706
H	-2.493232	0.316957	-1.223455
H	-2.033011	-1.159523	-1.660689
Cl	-4.401524	0.0	0.0
