12

C	0.0	0.0	0.0
C	-0.540044	0.162139	-1.40638
Cl	1.781158	0.0	0.0
H	-1.63413	0.133627	-1.271043
H	-0.346005	0.845098	0.589696
H	-0.344592	-0.932852	0.440422
C	-0.139606	-0.969565	-2.264441
N	0.164471	-1.860716	-2.967365
N	-0.15921	1.457787	-1.959478
H	-0.74341	1.65894	-2.762517
H	0.805856	1.43335	-2.268827
Cl	-3.525004	0.0	0.0
