12

C	0.0	0.0	0.0
C	-0.542322	-0.207176	-1.413106
Cl	1.779297	0.0	0.0
H	-1.622105	-0.357453	-1.262529
H	-0.337837	-0.799004	0.657783
H	-0.360015	0.952926	0.381739
C	0.018806	-1.421971	-2.019461
N	0.475729	-2.387753	-2.506065
N	-0.367242	0.919143	-2.32005
H	0.556778	1.319459	-2.201961
H	-1.06003	1.615558	-2.070729
Cl	-3.464737	0.0	0.0
