17
Coordinates from ORCA-job run
  C   -0.68763461907467     -0.20321570594102      0.30410726018950
  C   0.76278982305575      0.25773952297625      0.43492517160505
  F   -0.98637530448795     -0.97240611861642      1.41174077519879
  H   0.80774935540436      0.83674725381876      1.36551756885143
  N   -1.55334830006374      1.04130493107569      0.44063142491440
  O   -2.27835866598979      1.35247701879260     -0.49733084650385
  O   -1.45140401023272      1.64316877750009      1.50544823640548
  C   -1.02158017929988     -0.96334376973094     -0.94365529456172
  H   -0.87187797876046     -0.33812283080077     -1.82118834106064
  H   -2.06512521788522     -1.27638364654693     -0.91478247388167
  H   -0.37240593766217     -1.83654005930788     -0.99516569530737
  N   1.05458790907176      1.14779622328614     -0.66315340920959
  H   1.76367414599259      1.82240493014995     -0.41258226872001
  H   1.38180614733508      0.60880771741842     -1.45630455811080
  N   1.60818598817297     -0.93222090078640      0.43945245778290
  H   1.34056663063043     -1.53931223445276      1.20699054888614
  H   2.56875021379367     -0.64890110883480      0.59634944352194
