17
Coordinates from ORCA-job run
  C   -0.63747020875223     -0.13441140060199      0.23290695578857
  C   0.83065712251075      0.12953502329982     -0.11609432054279
  F   -0.74583254045604     -0.40534171271137      1.56219327190712
  H   0.84609919684460      0.38016891555985     -1.18471460386435
  N   -1.38965149808140      1.16619599059875     -0.01855603253366
  O   -1.42067245474573      1.53131329118082     -1.19145447842489
  O   -1.87792630316633      1.75559409537890      0.93790672758392
  C   -1.29399069356196     -1.22763721417297     -0.56604313815424
  H   -0.75692312564987     -2.15409679846727     -0.37391373388914
  H   -2.33457717639941     -1.32790466292093     -0.25090353364813
  H   -1.25801025037073     -0.99913248161230     -1.62999385546966
  N   1.55513792811375     -1.11182931454973      0.05670858333243
  H   1.77848047203611     -1.20095163468856      1.04210174899839
  H   2.42413547259244     -1.08528273909456     -0.46069878807470
  N   1.34976668092910      1.18292076359832      0.74860951339214
  H   2.21662803188942      1.53820796113435      0.36463800626487
  H   0.71314934626752      1.96465191806886      0.84830767733408
