17
Coordinates from ORCA-job run
  C   -0.62007306227150     -0.07364161242818      0.18079900852938
  C   0.88013151039903      0.19530812293521     -0.05144551627546
  F   -0.85927402024602     -0.14538855613728      1.51946764613858
  H   0.99704993091774      0.47806040312073     -1.10536787726146
  N   -1.35046712138573      1.15796719976485     -0.32440200174608
  O   -1.90510665209659      1.88623880524413      0.48849913401451
  O   -1.28123501181128      1.34197088828196     -1.53814618569740
  C   -1.18619753476131     -1.29234791039845     -0.49802272145285
  H   -0.72167881436093     -2.17098245007362     -0.05059571018413
  H   -0.99169988991393     -1.26530169105389     -1.56983950840941
  H   -2.26385779557401     -1.34334793254277     -0.33102913547858
  N   1.60422375101417     -1.00788641441543      0.32649356932303
  H   2.55794430382713     -0.72814381243147      0.52021923412958
  H   1.61910016974296     -1.67617841613342     -0.43397660388003
  N   1.38410765235576      1.28178630705254      0.75712694652169
  H   1.05010589899347      1.18121953256282      1.70853738327078
  H   1.08792668517102      2.18066753665234      0.40068233845784
