17
Coordinates from ORCA-job run
  C   -0.64186266067513     -0.47395727256829      0.18955912583444
  C   0.88393553935952     -0.24363137300903      0.18854396186061
  F   -0.88160035890694     -1.61779214399857      0.89449099755309
  H   1.28876601476194     -1.26594670149644      0.20986380495563
  N   -1.31836219695797      0.64894036340961      0.95484463293770
  O   -1.11649177968721      1.77551055274264      0.50915082699768
  O   -2.01010294998801      0.36002814536346      1.91895159919592
  C   -1.29673816473969     -0.57112899408255     -1.16380851338560
  H   -0.85513935943862     -1.40102067225236     -1.72062006435136
  H   -1.16293374923459      0.35933337730989     -1.71160933068867
  H   -2.36075190719591     -0.77681234888496     -1.03287907016962
  N   1.26988354703480      0.38658956268010      1.42646760772031
  H   1.15266173577083      1.39061077362399      1.34913053195895
  H   2.23007562711738      0.17737930035597      1.66098251005737
  N   1.30215718159001      0.51851141441035     -0.98411973987537
  H   1.24119492441914     -0.04466567560895     -1.82524090240457
  H   2.27430855677046      0.77705169200515     -0.86370797819651
