17
Coordinates from ORCA-job run
  C   -0.60781799100786     -0.39503199459488      0.09815952645646
  C   0.92350674092576     -0.25030742840713      0.20896637416954
  F   -0.97068789176716     -1.43939918355889      0.91168558835945
  H   1.29754353086555     -1.25485002115250     -0.05175593935866
  N   -1.24738172602179      0.84874626626374      0.67817761646815
  O   -1.07814921232677      1.87146706836534      0.01644973080483
  O   -1.84836995002515      0.76057552635229      1.73676451672649
  C   -1.14573299858672     -0.63375316187719     -1.28667180165526
  H   -2.21967647515888     -0.82095700296675     -1.23054613852731
  H   -0.66058413416729     -1.51526312243739     -1.71098759967580
  H   -0.96692152762665      0.22879672436955     -1.92475277935344
  N   1.21433896062765      0.16574982638327      1.56501185681002
  H   0.89584709923456     -0.52425732010607      2.23396401978310
  H   2.21582581115058      0.28013953466401      1.65367667945285
  N   1.56063651178291      0.69068634344853     -0.67475413718274
  H   1.51722176447586      0.38703924783206     -1.63798884357775
  H   1.12040148762539      1.59861869742202     -0.58639866969998
