17
Coordinates from ORCA-job run
  C   -0.66724836940168     -0.06265478535478      0.20185472299648
  C   0.80438549122444      0.25860147632157     -0.07074330403675
  F   -0.84787120079664     -0.21686506095124      1.54315045886878
  H   0.86971317259448      0.60212755727404     -1.10928758361172
  N   -1.46476575549560      1.16146569513831     -0.21348575780969
  O   -2.12657613099985      1.74132531945604      0.63280259439343
  O   -1.37449883234006      1.45637350635056     -1.40282039633502
  C   -1.21946634298047     -1.26436173077259     -0.51867088218503
  H   -1.07852254189710     -1.16875983230738     -1.59519921934464
  H   -2.28552466041521     -1.36004272715121     -0.30443165466557
  H   -0.70744190946107     -2.15096547782450     -0.14476672889139
  N   1.58700493637140     -0.95269646898524      0.19118335971172
  H   2.54728576588614     -0.68424379979886      0.36706892870975
  H   1.58773416732247     -1.56191842726390     -0.61967354137084
  N   1.15314706869347      1.36764966177703      0.77722228156349
  H   1.17566368010306      1.07231705971394      1.74530728462840
  H   2.04698146159222      1.76364803437824      0.52048943737858
