17
Coordinates from ORCA-job run
  C   -0.65077136348847     -0.18288459986725      0.31576830310556
  C   0.78635533802709      0.31931697953371      0.50657250433006
  F   -0.96316926703745     -0.96331058674382      1.40854374240080
  H   0.76595645132043      0.87796126971242      1.44598773622830
  N   -1.55804204835338      1.03339379593762      0.41745956544566
  O   -2.21866930237023      1.35024419735418     -0.56577135282752
  O   -1.54190398467169      1.61430902158210      1.49772953051082
  C   -0.93716395319792     -0.95667450151073     -0.93892059742398
  H   -1.97969737600626     -1.27407334695800     -0.94301666976919
  H   -0.30642775655315     -1.84661431595757     -0.95952179125134
  H   -0.76479152525425     -0.34947758802399     -1.82518771436688
  N   1.07338176603979      1.24616126213966     -0.56222747798198
  H   1.26855438230939      0.74649868959505     -1.42275607176682
  H   1.90628553227076      1.77154595092075     -0.32789471936378
  N   1.76949704835560     -0.73867322588984      0.66064759130832
  H   1.54223864076225     -1.32343422212361      1.45661089866883
  H   1.80836741784750     -1.32528877970068     -0.16502347724685
