17
Coordinates from ORCA-job run
  C   -0.69666112369411     -0.19461934975894      0.34500022200424
  C   0.79041573177312      0.12960454082312      0.59245770166299
  F   -1.21114314763787     -0.77289529534541      1.47093650548434
  H   0.81954403945645      0.50838347460904      1.61806738237740
  N   -1.38914201011888      1.15296155937096      0.22380267508213
  O   -1.50190779162120      1.79705223767733      1.26197764832935
  O   -1.70909414602785      1.53323720221777     -0.90007801560017
  C   -1.00239460428472     -1.06381045830480     -0.84266219195588
  H   -0.59788261471371     -2.05374315650282     -0.63513697944882
  H   -0.57060751732770     -0.66695512397700     -1.76084121571739
  H   -2.08097270290277     -1.13992011040529     -0.98070498577719
  N   1.34962299888752      1.15884218475413     -0.26716357322635
  H   1.13596656688904      0.99520348382614     -1.24403821347592
  H   1.01487794913100      2.08125306493333     -0.01868982667961
  N   1.51663323349519     -1.12236876865463      0.54878636131881
  H   1.72144111034144     -1.35850492658799     -0.41676738174205
  H   2.41130402835505     -0.98272055867493      1.00305388736416
