17
Coordinates from ORCA-job run
  C   -0.62505586294607     -0.20551352911181      0.32411191374994
  C   0.82389350401444      0.32204019185864      0.44415132277637
  F   -0.87273197707100     -0.95433739976653      1.44269308838453
  H   0.81508556223990      0.99772540764215      1.31656896710066
  N   -1.56224118746161      0.98950081764991      0.40867809456214
  O   -1.56332744481235      1.73181288613552     -0.57324607837623
  O   -2.21080056120526      1.14967307440667      1.43296618278650
  C   -0.94979534709050     -1.00390696191284     -0.90718733520927
  H   -0.79814211796984     -0.40695740962864     -1.80207124436524
  H   -0.29487129737233     -1.87508211332905     -0.94505084173719
  H   -1.98418304985357     -1.34918882760583     -0.85353729831488
  N   1.23541168338179      0.93122981752286     -0.80120268464146
  H   2.18764517362636      1.25679973622361     -0.68858586032814
  H   0.64118979565223      1.71476571814439     -1.03917016460288
  N   1.78370786079872     -0.71709107320486      0.73276401029641
  H   1.52499593353991     -1.23197336202836      1.56395093400998
  H   1.84921933252919     -1.34949697299579     -0.05583300609122
