17
Coordinates from ORCA-job run
  C   -0.61791297330725     -0.41555469666182      0.18954289985074
  C   0.89271442053782     -0.20870971924700      0.05949969278339
  F   -0.81038565546908     -1.35912900164024      1.16747855094042
  H   1.28411229586291     -1.22219347420833     -0.12027903965947
  N   -1.23010069333967      0.87296147014994      0.71629446731439
  O   -1.18481254000189      1.82316397975726     -0.06013970374652
  O   -1.70643630302055      0.87538599782898      1.84070566034461
  C   -1.33198346226658     -0.82781775566286     -1.06636771768298
  H   -0.88363093107887     -1.75059450387136     -1.43813665444082
  H   -1.23425013471102     -0.05627466004538     -1.82458031031568
  H   -2.38436484328319     -1.00985088180006     -0.83908397878999
  N   1.35774221501113      0.38396717118302      1.31000815921046
  H   1.09282460079083     -0.19807037944576      2.09790908619035
  H   2.36857885843359      0.44755653403405      1.29795454120475
  N   1.21270080360966      0.57890078203200     -1.10349975897129
  H   2.20315935043829      0.51887617000630     -1.30211347498869
  H   0.97304499179385      1.54738296759124     -0.92519241924358
