17
Coordinates from ORCA-job run
  C   -0.58760846859283     -0.13164449244184      0.16535735481059
  C   0.88766923095922      0.11516389032181     -0.17693246332054
  F   -0.67311110029421     -0.34801734014101      1.51796539277288
  H   0.94607175491051      0.27521360895606     -1.25588272926923
  N   -1.31956268010639      1.16744476674576     -0.11046897260882
  O   -1.84332295851823      1.75880079187362      0.82354416453804
  O   -1.29811514366699      1.53051561717826     -1.28437257845956
  C   -1.27222395331193     -1.24730244357645     -0.57501991930431
  H   -1.24769093564879     -1.05498443849281     -1.64695727006204
  H   -0.74445284997891     -2.17528767696979     -0.36366636491211
  H   -2.30989364899294     -1.32593087123976     -0.24361025211920
  N   1.59333183381334     -1.10754502697124      0.14806552908654
  H   2.56991795113597     -0.96937894312403     -0.08406238233889
  H   1.54676424228665     -1.25761778735895      1.15045178188240
  N   1.44319895805704      1.29328854833653      0.46991028134152
  H   1.13802465642910      2.14716020574556      0.01869912849871
  H   1.17100311151932      1.32812159115833      1.44597929946407
