17
Coordinates from ORCA-job run
  C   -0.57372286338247     -0.40634387128272      0.15281045654654
  C   0.94598963343495     -0.12610348329068      0.12527941878833
  F   -0.81131696411024     -1.30405634274270      1.16586638984514
  H   1.39078845932620     -1.05986022827989     -0.25794838581734
  N   -1.28135950984611      0.87386721288083      0.54552237593646
  O   -1.20577466998092      1.19658474650731      1.72813845308100
  O   -1.83437500877447      1.51233947159428     -0.34296316291764
  C   -1.14862245308977     -0.95644570518019     -1.12439735017228
  H   -1.01413118677337     -0.26819507622596     -1.95601879777180
  H   -2.21687653799795     -1.13900212014047     -1.00226600094796
  H   -0.65160875898175     -1.90363169491175     -1.34261317417520
  N   1.54995155022344      0.12856978400099      1.40854655824359
  H   1.08567980749122      0.91544939640009      1.84860909154827
  H   1.43363491301141     -0.67514144818074      2.01217985676443
  N   1.18167784585017      1.04432234986803     -0.69470251674076
  H   0.99321879801174      0.86856257620842     -1.67304119605324
  H   2.15684694558794      1.29708443277517     -0.59400201615755
