17
Coordinates from ORCA-job run
  C   -0.57977761711380     -0.16462312677921      0.22180239798665
  C   0.87698586355704      0.22147895983605     -0.10610545637445
  F   -0.64834021687876     -0.62246639879103      1.50293952441834
  H   0.93241101640066      0.38184653610081     -1.19075497320705
  N   -1.42528048187323      1.09096164363461      0.15513160487216
  O   -2.14174549791530      1.37266095957456      1.10291627104932
  O   -1.31609188268253      1.72433100887269     -0.89527462246798
  C   -1.19553745171106     -1.18067493529820     -0.70721266547820
  H   -1.21360218098146     -0.80506237803006     -1.73000363260749
  H   -0.61686986200891     -2.10438606739099     -0.66507104242102
  H   -2.21437688445691     -1.39946705262648     -0.38197038570837
  N   1.81299808459221     -0.82528422514767      0.23897012810424
  H   1.73982799390871     -1.61763227500444     -0.38413646236629
  H   1.64497624029373     -1.12894831957776      1.19082838924076
  N   1.23141904963531      1.38522212616652      0.68579601520825
  H   0.87203021361358      2.23204200363469      0.26283254439868
  H   2.24197361362075      1.44100154082591      0.70131236535239
