17
Coordinates from ORCA-job run
  C   -0.73028479210061     -0.20141989369515      0.33798735401695
  C   0.75758056135754      0.13454799364191      0.51050245384308
  F   -1.16277061141732     -0.80452704885098      1.48477258705713
  H   0.83432726796873      0.56630420897206      1.51795999476834
  N   -1.45751010300135      1.13670839160940      0.29192077531536
  O   -1.46029757305526      1.77874444104559      1.33946669032011
  O   -1.93095257663262      1.50503602285809     -0.78030977956324
  C   -1.07054477250812     -1.04483110948989     -0.85332907047320
  H   -0.61867415901100     -2.02448238141368     -0.69888917104124
  H   -2.15146534866457     -1.15862532274611     -0.93544226601299
  H   -0.68533999192808     -0.59044514319741     -1.76359045314488
  N   1.17261389504531      1.02964692419060     -0.56505668504779
  H   0.71662141738369      1.93360060053227     -0.50471926266968
  H   2.16932663388841      1.19145038895998     -0.48246782584961
  N   1.50476579862403     -1.10006496143719      0.49172118897009
  H   2.33126959259693     -1.03584616162550      1.06910409122148
  H   1.78033476145426     -1.31379694935394     -0.45963062170987
