17
Coordinates from ORCA-job run
  C   -0.65260942117310     -0.17621405803898      0.31586311226814
  C   0.78909586447109      0.31296916962378      0.50803062727334
  F   -0.97174963525527     -0.95464943709021      1.40800284541605
  H   0.77271139397953      0.87095635661499      1.44801528323524
  N   -1.54905450549104      1.04765825940795      0.41753565099767
  O   -2.19846257007940      1.37541111074055     -0.56951158518165
  O   -1.53420207023024      1.62377859434313      1.50014435959669
  C   -0.94515580595031     -0.94783855375558     -0.93897689234460
  H   -0.31983537860657     -1.84151057531741     -0.96095752304323
  H   -1.98967550632885     -1.25886593254224     -0.94117612540135
  H   -0.77094394798619     -0.34205807024342     -1.82584292921677
  N   1.08627935447267      1.23805815275501     -0.55896134107060
  H   1.26188596411311      0.73915421749288     -1.42407132279979
  H   1.93218146739901      1.74456911399719     -0.32963201601382
  N   1.76236139938221     -0.75409949805835      0.66229027473834
  H   1.52814903418461     -1.33954275743325      1.45570272741834
  H   1.80002436309873     -1.33777609249604     -0.16545514587201
