17
Coordinates from ORCA-job run
  C   -0.59283651416102     -0.37968129841566      0.19761659392134
  C   0.94149074266281     -0.24027605544597      0.12660281138135
  F   -0.86410281559471     -1.34751458776771      1.13247243304048
  H   1.28479782655787     -1.26686312259528     -0.08628471215015
  N   -1.16406812839840      0.91505803936947      0.73583137922330
  O   -1.64170908944566      0.92357762565211      1.85903890417209
  O   -1.07593797734409      1.87445936833363     -0.02852067796807
  C   -1.27938453324407     -0.73064028260153     -1.09440294705351
  H   -1.17384323931969      0.07335802013854     -1.81931017309118
  H   -0.84211084825545     -1.64857954248099     -1.49272846618391
  H   -2.34028316584897     -0.90449449803286     -0.90512070858385
  N   1.38049326354269      0.28801035988515      1.40105423581451
  H   2.38670560227992      0.39125902804269      1.37261112768135
  H   1.12961460291459     -0.33446468817477      2.15914165483808
  N   1.47700303309597      0.61570919847691     -0.89947177684783
  H   1.32126538766588      0.23521421411989     -1.82301911346366
  H   1.05390585289234      1.53386822149637     -0.83651056473034
