17
Coordinates from ORCA-job run
  C   -0.62425644572967     -0.05716034259124      0.17570569328427
  C   0.88449173879133      0.17539931426527     -0.04392713754719
  F   -0.87727281787772     -0.12085635733426      1.51219448820429
  H   1.01590839253953      0.45716808034104     -1.09666760237253
  N   -1.31828502422033      1.19144225840776     -0.33790044432876
  O   -1.25280497148644      1.36002931105363     -1.55408044097108
  O   -1.84416317823269      1.94538861964592      0.47100107741877
  C   -1.21200487521780     -1.26368362407810     -0.50633566745481
  H   -2.29289493230035     -1.28730941293447     -0.35502674926343
  H   -0.77579882861825     -2.15142149501585     -0.04848726502073
  H   -1.00214687348243     -1.24683431767116     -1.57536728088481
  N   1.57581966631656     -1.04574318906215      0.33688757889533
  H   2.53570181024465     -0.79079958019821      0.53444808423360
  H   1.57635711662958     -1.71468999939526     -0.42312870208035
  N   1.40965862141107      1.24676689976525      0.77096842562985
  H   1.07060663484517      1.14758637547027      1.72080632871405
  H   1.13208396638784      2.15371745933159      0.41990961354356
