17
Coordinates from ORCA-job run
  C   -0.58744451321897     -0.11651289620533      0.17832907605951
  C   0.88603484361275      0.09124338034089     -0.19642622533345
  F   -0.64798903079757     -0.34445336831269      1.53012489403043
  H   0.92338863803222      0.25944978377259     -1.27500346721212
  N   -1.28791600193476      1.20589484609910     -0.06759308172336
  O   -1.28065513142037      1.58202687051128     -1.23753670948479
  O   -1.77328358130131      1.80174676795844      0.88414490372457
  C   -1.32118589640535     -1.20408511219585     -0.55701236557728
  H   -1.32272808045417     -0.99692098448945     -1.62647104693599
  H   -0.81155323439914     -2.14804938190384     -0.37378862138476
  H   -2.35052583670985     -1.26085613868715     -0.19641837721300
  N   1.56350501252645     -1.15439088292166      0.10099694309247
  H   1.53774499668953     -1.31205621800526      1.10290326064815
  H   2.53751417907291     -1.04296062123439     -0.15493961375037
  N   1.49051730871500      1.24624222547322      0.44776760276983
  H   1.20089968908431      2.11320801600169      0.01162868832380
  H   1.24267663890831      1.27947371379841      1.43029413996636
