17
Coordinates from ORCA-job run
  C   -0.53178680818269     -0.11013803065570      0.16957999065741
  C   0.94862251583777      0.21281656158380     -0.14389311385698
  F   -0.64300825951245     -0.32583097408458      1.51812190351571
  H   0.99959048733562      0.44867507744572     -1.21026719734917
  N   -1.31709090140894      1.14688833010857     -0.14017186963916
  O   -1.33231816510216      1.46185763548101     -1.32851076780926
  O   -1.83155226251231      1.76471190331897      0.78256945092112
  C   -1.16123520448678     -1.25964159638826     -0.57296058831112
  H   -0.67419718618826     -2.18845580955734     -0.27550666299228
  H   -2.21856062470830     -1.33398343742543     -0.31092365111221
  H   -1.06740743310979     -1.11913508705238     -1.64906381714152
  N   1.83563365103559     -0.90162814029993      0.12326320955384
  H   1.91313925775867     -1.04896844322600      1.12183470007335
  H   1.51768211230289     -1.75626610386202     -0.31552226322785
  N   1.39167206836792      1.36341025505176      0.61309088081047
  H   0.92412456396741      1.42106950661876      1.50879284059417
  H   1.24569218860582      2.22461835294307      0.10756695531344
