16

C	0.0	0.0	0.0
C	-0.56168	-0.019895	-1.43354
Cl	1.731327	0.0	0.0
H	0.101277	-0.609398	-2.082104
N	-0.553341	1.175845	0.866007
O	-1.756241	1.417551	0.683653
O	0.173715	1.71346	1.672373
N	-0.528377	-1.248077	0.6742
O	-0.366324	-2.286963	-0.001608
O	-0.693881	-1.184751	1.92357
N	-0.503023	1.364562	-2.070983
O	-1.313057	1.601292	-2.969195
O	0.276736	2.181593	-1.573268
C	-1.936776	-0.524134	-1.501628
N	-3.031308	-0.978086	-1.565225
H	-1.562806	0.0	0.0
