16

C	0.0	0.0	0.0
C	-0.569891	0.019056	-1.473756
Cl	1.719986	0.0	0.0
H	-1.644831	0.305526	-1.439799
N	-0.637432	1.11662	0.659205
O	-0.421501	1.092906	1.954176
O	-0.746656	2.251183	-0.022566
N	-0.494373	-1.342308	0.856981
O	0.281234	-2.203029	1.202747
O	-1.755671	-1.455754	0.971152
N	-0.612801	-1.391427	-1.972716
O	0.45598	-2.001609	-2.046961
O	-1.72138	-1.830657	-2.326905
C	0.055711	0.919279	-2.394309
N	0.504763	1.649817	-3.198451
H	-1.719607	0.0	0.0
