16

C	0.0	0.0	0.0
C	-0.507883	-0.004186	-1.446478
Cl	1.731803	0.0	0.0
H	-0.074049	-0.865359	-1.958577
N	-0.547983	1.258243	0.768262
O	-1.767899	1.196337	0.981559
O	0.226458	2.074751	1.234105
N	-0.570073	-1.21528	0.691827
O	-0.41242	-1.209255	1.934447
O	-0.837937	-2.237252	-0.012433
N	0.042616	1.240662	-2.114716
O	-0.351896	2.313966	-1.661459
O	0.766265	1.075049	-3.092997
C	-1.967084	-0.026624	-1.546384
N	-3.142231	-0.051979	-1.734273
H	-1.562911	0.0	0.0
