12
Coordinates from ORCA-job run
  C   0.82811169330168      0.47108098803013     -0.62398075027766
  C   -0.56875461132891      0.40454445401424      0.01600071612431
  Br  1.79186183532024      2.05329457252849     -0.03680782998284
  H   -1.09107489700055      1.32406266016245     -0.26413702970379
  H   0.69160680326874      0.55700132302780     -1.70295372722555
  C   1.58908195050767     -0.73291107575640     -0.32096249590064
  N   2.15203231076798     -1.73327106845709     -0.06956659496023
  C   -0.47248766424160      0.36195066560132      1.48815155270686
  N   -0.44749547661259      0.26412000329634      2.65869752766448
  N   -1.26942302434257     -0.72292560080008     -0.57494902371519
  H   -2.26354690973443     -0.65219924826197     -0.39524509993101
  H   -0.94091200990566     -1.59474767338522     -0.17424724479874
