12
Coordinates from ORCA-job run
  C   0.89622024761796      0.51769474840572     -0.34146562958288
  C   -0.54724529811462      0.17483707511785      0.08867475254282
  Br  2.16801622743253      0.29406365344993      1.10570268727958
  H   -1.17920205132745      0.44486398917537     -0.77466730963051
  H   0.94981757981782      1.56676852468495     -0.64196133890483
  C   1.26233498152570     -0.33243020931019     -1.46712178859956
  N   1.48612076876383     -1.03369694879254     -2.38296799388117
  C   -0.95016625780217      1.04342310835193      1.19866717939558
  N   -1.30489992822094      1.74429568702471      2.07068867246602
  N   -0.64189512290468     -1.21937432789824      0.47923221789171
  H   -0.65217102462184     -1.81087195706811     -0.34340677342247
  H   -1.48693012216615     -1.38957334314138      1.00862532444571
