12
Coordinates from ORCA-job run
  C   0.92360098915702      0.45121779153599     -0.30441383877233
  C   -0.53858558197638      0.21146938785979      0.10777615662683
  Br  2.14557394610397     -0.53140829643271      0.85666898282651
  H   -1.14881695272696      0.78768582036075     -0.59825883985469
  H   1.18181031109858      1.50487001649746     -0.17637940759955
  C   1.13201059175863      0.05759271201117     -1.69073678431476
  N   1.29408661356283     -0.21523452924315     -2.82150309656145
  C   -0.77097334870799      0.77582746030969      1.45398446808254
  N   -0.99219426520096      1.19082513410979      2.53063349701945
  N   -0.88499681419211     -1.18407242118542     -0.04537862617774
  H   -0.45538705755554     -1.74063026199085      0.68351242251487
  H   -1.88812843132109     -1.30914281383251      0.00409506621033
