12
Coordinates from ORCA-job run
  C   1.04625511522575      0.21290763609012     -0.10909973337294
  C   -0.47344072081802      0.33475775876350      0.09498771605340
  Br  1.77467463036466     -1.26175973680877      0.93998527842694
  H   -0.79584579897401      1.17244872076936     -0.53511710659373
  H   1.54804859395219      1.11075702583567      0.25886886349904
  C   1.35379508814305      0.01867391041247     -1.51914524538307
  N   1.60646027221948     -0.09165387165595     -2.66071101990469
  C   -0.75542649209244      0.70362238557601      1.49807587812512
  N   -1.02200131056530      0.97652892038033      2.60926397095374
  N   -1.14396286424740     -0.85650460008999     -0.37704623170834
  H   -2.13873632813302     -0.69339566692311     -0.46500741928348
  H   -0.99982018507493     -1.62638248234965      0.26494504918800
