12
Coordinates from ORCA-job run
  C   0.76931459549039     -0.07565821842572     -0.67013542950177
  C   -0.41641508507472      0.20196422262645      0.27377670606488
  Br  0.76055263056442      1.21556369901218     -2.13430861179476
  H   -0.28437366180186      1.21271093754686      0.68872150911590
  H   0.62955512064346     -1.05789467129320     -1.12590586535758
  C   2.04523723156947      0.00291122733500      0.02538052810296
  N   3.06383878482824      0.06840016286201      0.60747874317495
  C   -0.34326397100546     -0.75436540188178      1.38585760942494
  N   -0.29976863874714     -1.51870418671003      2.27595528012099
  N   -1.66189642728028     -0.00759830979537     -0.45007496385929
  H   -2.43713501156456     -0.05811449069763      0.19951745713706
  H   -1.82464556762197      0.77078502942123     -1.07726296262828
