12
Coordinates from ORCA-job run
  C   0.80045711090138      0.41691173849848     -0.66554481330077
  C   -0.55001884245618      0.36024849810725      0.07834206113846
  Br  1.73387459046733      2.07811824330186     -0.26528374620066
  H   -1.08108996301036      1.29496568238952     -0.14347051328708
  H   0.59782714763542      0.42607059022022     -1.73834999437714
  C   1.63258631375904     -0.73043154341460     -0.33560849883019
  N   2.30245572163735     -1.65568594029428     -0.06202395249669
  C   -0.33232727791455      0.31105987386552      1.52699344638259
  N   -0.19401949925882      0.24187467027934      2.69074633560407
  N   -1.25567638388123     -0.82770298956724     -0.38354912574999
  H   -1.95193664310882     -0.58689585662073     -1.07563336668613
  H   -1.70213227477057     -1.32753296676534      0.37238216780354
