12
Coordinates from ORCA-job run
  C   0.79062345109630     -0.09031044401212     -0.64324747043892
  C   -0.43515917699859      0.19950229010019      0.24394312066649
  Br  0.74655864383340      1.05909918717008     -2.22054828548019
  H   -0.37472197800416      1.25060940919114      0.56491468491319
  H   0.72191043439522     -1.11666013227756     -1.00902016133536
  C   2.03993549866847      0.12902712503155      0.07009114481194
  N   3.03751239791247      0.30833122782461      0.66458798232116
  C   -0.33674597917599     -0.64243683095363      1.44324084606484
  N   -0.27331010490589     -1.31293300311548      2.40487164173630
  N   -1.64562771061831     -0.15198837484952     -0.48437661988231
  H   -2.43447398825715     -0.18764182686938      0.14974538813041
  H   -1.83550148794579      0.55340137276012     -1.18620227150755
