12
Coordinates from ORCA-job run
  C   0.77977442811872      0.10327737861700     -0.69970058286641
  C   -0.41529930591752      0.24512694656738      0.26763566838637
  Br  0.83198977945845      1.60370172369548     -1.93277344169675
  H   -0.31883386308525      1.21307124011514      0.76861016162657
  H   0.64892930238105     -0.79387845435765     -1.31055970863746
  C   2.04279266427761      0.02649171932304      0.02181345171591
  N   3.05121170688548     -0.03045386344176      0.62222849488670
  C   -0.31905269866687     -0.81690544083130      1.29084832363663
  N   -0.30758928266813     -1.69185394728626      2.07560266611855
  N   -1.65982553668243      0.22519582234567     -0.47265532799645
  H   -2.40449159599611      0.64090606583862      0.07116872791371
  H   -1.92760559810501     -0.72467919058536     -0.70121843308736
