12
Coordinates from ORCA-job run
  C   0.78860777801049      0.05937274296886     -0.69367821643655
  C   -0.42168362836866      0.26108739563873      0.24349789702365
  Br  0.84691629814304      1.46477612432808     -2.03407333444850
  H   -0.34033571219367      1.26369356567069      0.67393458880588
  H   0.67446841614525     -0.88168081257061     -1.23825683444759
  C   2.04148444872577      0.04830584596515      0.04927670167503
  N   3.04151184206858      0.04307660794895      0.66623128923936
  C   -0.33203265074467     -0.72393103516233      1.34156497153510
  N   -0.32423266098059     -1.54238944111386      2.18505824593855
  N   -1.65507685077301      0.17658972571783     -0.51130036389095
  H   -1.91027502534411     -0.78990810149857     -0.67574836758807
  H   -2.41135225468842      0.62000738210708     -0.00650657740591
