12
Coordinates from ORCA-job run
  C   0.70485983171395      0.08214670905998     -0.63757236268058
  C   -0.45118744539492      0.18265084732014      0.40052555228276
  Br  0.60553772851735      1.57813893306211     -1.88423723975158
  H   -0.29767094892178      1.10643197746489      0.96840328146978
  H   0.58192535079033     -0.82370322987640     -1.23674352456368
  C   2.00880299556560      0.07935848823423      0.00827807163744
  N   3.04514675865540      0.08071760870909      0.56264333650211
  C   -0.30489709104490     -0.95516968574111      1.32063314395355
  N   -0.18095462074007     -1.89228428253096      2.01702993088762
  N   -1.79217487882812      0.19347902865334     -0.13240208225611
  H   -1.93854082279281      1.01016020586738     -0.71147972369230
  H   -1.98084685752003     -0.63992660022270     -0.67607838378901
