12
Coordinates from ORCA-job run
  C   0.70884345119268     -0.02956737217777     -0.64051086911744
  C   -0.45866641645542      0.24629607944635      0.35199611175486
  Br  0.56931687376855      1.16778509677434     -2.17338850056659
  H   -0.34112034002428      1.27369892815295      0.71276978793986
  H   0.62194342190502     -1.04445682872569     -1.03684299886599
  C   2.00608441918049      0.14948221776052     -0.00634217652170
  N   3.03642818967983      0.30526906503866      0.53731420642508
  C   -0.28253031676877     -0.66625414341659      1.49169862127961
  N   -0.14874277453145     -1.43127095618919      2.37227373125139
  N   -1.79482601808667      0.09788201714231     -0.17216888133315
  H   -1.95129687882660     -0.83744745609250     -0.52740650578105
  H   -1.96443361103338      0.76858335228663     -0.91039252646488
