12
Coordinates from ORCA-job run
  C   0.97203883724645      0.22484613656578     -0.21889755195889
  C   -0.47585037982091      0.33893010412584      0.34069616379813
  Br  1.82562701727470     -1.42148123249818      0.37490425097172
  H   -0.85793599735568      1.30067550358778     -0.02543892806574
  H   1.59240253405778      1.04317002989322      0.15506207410522
  C   0.92274719494899      0.25393432715989     -1.67350960970233
  N   0.80750428439224      0.28932221620716     -2.84244419167368
  C   -0.40745041622249      0.42552823499884      1.80540884288340
  N   -0.33150878794218      0.50416963589476      2.97389304534293
  N   -1.40928764997408     -0.68538944291002     -0.05530436406292
  H   -1.08319098739418     -1.60232921515069      0.22405638943364
  H   -1.55509564921062     -0.67137629787438     -1.05742612107147
