12
Coordinates from ORCA-job run
  C   0.70127091853066      0.02616872714908     -0.64752237846325
  C   -0.44911729440814      0.21576118938431      0.38435064509725
  Br  0.58783664463521      1.40492599870229     -2.02200822456202
  H   -0.29626980942077      1.18839151204027      0.86418811735043
  H   0.57874423286371     -0.92980926171769     -1.16302186648923
  C   2.00873603907690      0.08687846052368     -0.01208250690683
  N   3.04788982875302      0.14474670991135      0.53402153852998
  C   -0.29299150834979     -0.83141038694953      1.40483549357543
  N   -0.16282090782192     -1.69920908798214      2.18497553676932
  N   -1.79329207486249      0.17251986907173     -0.13864681149532
  H   -1.94686506967316      0.93088348448803     -0.79042257235781
  H   -1.98312099932323     -0.70884721462138     -0.59966697104795
