12
Coordinates from ORCA-job run
  C   0.82150422176692      0.43737719254053     -0.64484670216601
  C   -0.53858048684138      0.38167758898700      0.08132585775781
  Br  1.81116167051218      2.03554258244981     -0.13673229358924
  H   -1.04174200768793      1.33884179004271     -0.09667521575377
  H   0.62517053335876      0.51230352992424     -1.71565598091007
  C   1.60588430556067     -0.75818049229457     -0.37349602789750
  N   2.22582491002833     -1.72871649338872     -0.14166665194791
  C   -0.34131610657686      0.25082314118083      1.52973484334594
  N   -0.21507362074947      0.10858572019405      2.68843787513721
  N   -1.28814950994054     -0.73855426237453     -0.46981476231229
  H   -2.11676665668605     -0.42369435830786     -0.95332759805320
  H   -1.54791725274464     -1.41600593895350      0.23271665638903
