12
Coordinates from ORCA-job run
  C   0.79475939551702      0.02752133993217     -0.64367647747683
  C   -0.43910472927488      0.15168979142566      0.27065579554868
  Br  0.74028121826820      1.41753580287880     -2.01340143572329
  H   -0.39664714289515      1.13736872087172      0.75841557224963
  H   0.74233284759818     -0.92648834349798     -1.17200605143017
  C   2.03764767032934      0.14518447760476      0.10412305027808
  N   3.02864802746301      0.23987099418097      0.72828419608600
  C   -0.33290467263567     -0.87306670085221      1.31714652932964
  N   -0.26346678843106     -1.69264091766497      2.15492914478405
  N   -1.64062764870722     -0.09456636789313     -0.51363807142894
  H   -1.83955229730667      0.71324413818104     -1.09142918768224
  H   -2.43136587992512     -0.24665293516685      0.10059693546539
