12
Coordinates from ORCA-job run
  C   1.04066942949273      0.31020376574467     -0.09439272135531
  C   -0.49419129624186      0.29607122955400      0.07949360603649
  Br  1.95297953800684     -0.60366118094901      1.35294185770144
  H   -0.88408590395508      0.93472879647942     -0.73142445298371
  H   1.40129499639272      1.34149364075359     -0.08640837576262
  C   1.37222019172951     -0.31431153661196     -1.36874055570176
  N   1.57224089741280     -0.81165357013467     -2.41431028039134
  C   -0.85355162396211      0.94680255493754      1.34291774590014
  N   -1.16922429460795      1.49028629810413      2.33412178470151
  N   -0.99427692720448     -1.06577066802093      0.05332169541350
  H   -1.01281784184477     -1.41110580486765     -0.89907536942250
  H   -1.93125716521834     -1.11408352498913      0.43155506586416
