12
Coordinates from ORCA-job run
  C   0.79256660426804      0.13631153632612     -0.67915842664662
  C   -0.43613826712001      0.22584511015005      0.25154719966111
  Br  0.79597304791763      1.61674669070443     -1.93741483062984
  H   -0.40834559827186      1.20514510530694      0.73869202344202
  H   0.73081449916539     -0.77677283569335     -1.27712165950467
  C   2.03622021917271      0.14420234863132      0.07924030033497
  N   3.02771607537471      0.15335684812206      0.70968138577775
  C   -0.31002659739801     -0.81437879298959      1.29372997559900
  N   -0.27050003690800     -1.67731606305304      2.09072188714006
  N   -1.65595967111864      0.12490877948539     -0.52312149630730
  H   -1.86368767916934     -0.84207523801665     -0.74215237573843
  H   -2.43763259591260      0.50502651102632     -0.00564398312805
