12
Coordinates from ORCA-job run
  C   0.79532498022239      0.16948190572609     -0.66925063998578
  C   -0.42947064703286      0.21247517858826      0.27039687081448
  Br  0.82960232101424      1.74315104708530     -1.80786875788422
  H   -0.37330008215628      1.14562632671592      0.83914715915372
  H   0.71350419637732     -0.69262146466733     -1.33628341264379
  C   2.03895842107052      0.09228648914841      0.08500445205204
  N   3.02915010018083      0.03263822082769      0.71494910694075
  C   -0.32750957931760     -0.91560867455253      1.21992534251863
  N   -0.30649911590203     -1.84559999803261      1.93834412375727
  N   -1.65368853450966      0.21005759470432     -0.50291488448222
  H   -2.42169864533805      0.57517550209673      0.04453272183319
  H   -1.89337341460884     -0.72906212764026     -0.79698208207407
