12
Coordinates from ORCA-job run
  C   1.01560538722228      0.33735246863757     -0.21023488136933
  C   -0.48809838247596      0.28392870186688      0.13888371867000
  Br  2.10989705743556     -0.56562971384354      1.11260497398653
  H   -0.98390744700812      0.91893066586607     -0.61515309057047
  H   1.35057403505596      1.37704494732598     -0.23213824561232
  C   1.21280702281432     -0.26856867630886     -1.52089569810557
  N   1.30059318735805     -0.75466256025164     -2.58699939541876
  C   -0.71529478093401      0.91589705824465      1.44194086619964
  N   -0.93028170895701      1.43895385962555      2.47041316556385
  N   -0.95556799503478     -1.08956955279123      0.15654931184470
  H   -1.84224222584332     -1.16312389454116      0.63800042899186
  H   -1.07408414963297     -1.42855330383026     -0.79097115418013
