12
Coordinates from ORCA-job run
  C   0.71296025071870      0.08118199137737     -0.62984967100547
  C   -0.46788139457444      0.17953826325931      0.38052461283285
  Br  0.55834697864377      1.49430348770865     -1.96495154127682
  H   -0.37433414805391      1.14190845465209      0.89490018860847
  H   0.65123626205899     -0.86333777850912     -1.17630840863773
  C   2.00089816044481      0.18997638054532      0.03834118458978
  N   3.02252739140452      0.28636079163474      0.61143549896360
  C   -0.28052144013677     -0.89256070603641      1.36938173951771
  N   -0.12050841336738     -1.77797317597402      2.12374004162530
  N   -1.79673497493574      0.08745957776005     -0.17448586900039
  H   -1.93140659684266     -0.78589091112467     -0.66909749399471
  H   -1.97358207535989      0.85903362470670     -0.80463028222258
