12
Coordinates from ORCA-job run
  C   0.82991719403727      0.38896583497525     -0.67540031820815
  C   -0.53376395257647      0.44780792472167      0.03285857146710
  Br  1.94154364743575      1.90418530816304     -0.17990794950401
  H   -0.99577416086029      1.39969095083439     -0.24519903882500
  H   0.64589676356418      0.45906487607266     -1.74853565340753
  C   1.51047507218468     -0.86325432047643     -0.37597323595495
  N   2.00825635701153     -1.89768915755032     -0.12522736663484
  C   -0.36744072313763      0.43117976150479      1.49920926594654
  N   -0.29114147137063      0.35945770222049      2.66936606510566
  N   -1.35031990516184     -0.63192344058835     -0.49476470205024
  H   -2.32510358030655     -0.47764368453423     -0.26725181214245
  H   -1.07254524081999     -1.51884175534296     -0.08817382579213
