12
Coordinates from ORCA-job run
  C   0.94726358284551      0.36328613002608     -0.34941845362357
  C   -0.53484233676726      0.23903591472480      0.04308565254917
  Br  2.09919029350846     -0.39776277731310      1.02854858184100
  H   -1.10377728116451      0.67572284130347     -0.78659040083529
  H   1.22974040793340      1.41626362410930     -0.41947485438775
  C   1.19161988693115     -0.29843711115100     -1.62344237628159
  N   1.38270125019991     -0.79152972800231     -2.67211703729060
  C   -0.79911773347423      1.06324881934883      1.24106177773733
  N   -1.04553303406750      1.68683984382107      2.20582237358498
  N   -0.91372740873659     -1.15198527307721      0.15487030558717
  H   -1.92106604063947     -1.24536148517126      0.17814528294975
  H   -0.53345158656888     -1.55932079861868      1.00050914816939
