12
Coordinates from ORCA-job run
  C   0.82298805677305      0.55928669657022     -0.44604557951108
  C   -0.57023818765361      0.10714249438429      0.04446821221785
  Br  2.05813454509648      0.85631729746164      1.01981134949057
  H   -1.20273954350786      0.08372186914164     -0.85940181870666
  H   0.73461323710802      1.51126833802836     -0.97481940631012
  C   1.35235549103166     -0.45528827959962     -1.34840094750783
  N   1.71363908730231     -1.30381454077857     -2.07649861225953
  C   -1.13572247286451      1.12696789396830      0.93271280389382
  N   -1.62296733874620      1.93859685244073      1.62653458394753
  N   -0.47550491984463     -1.16556326795274      0.73496156637766
  H   -1.30719849193230     -1.34125760289289      1.28342829719268
  H   -0.36735946276241     -1.91737775077136      0.06424955117510
