12
Coordinates from ORCA-job run
  C   1.02466222754083      0.28880634619720     -0.13259622432859
  C   -0.50214446365764      0.30120245686158      0.05332763480862
  Br  1.86511139653589     -0.98101907511052      1.08676197059878
  H   -0.88822327906543      1.02698758868388     -0.67263002160491
  H   1.44268410968696      1.26438907240675      0.12594626152285
  C   1.36532164094888     -0.04413703818793     -1.50868444651994
  N   1.64222223623498     -0.26645646261894     -2.62815479737976
  C   -0.83108057211997      0.80860231667048      1.40196657220578
  N   -1.13337388885876      1.18455616360381      2.47323093542784
  N   -1.06180400365730     -0.99138745633791     -0.27368908801499
  H   -2.06604659359106     -0.92734690837883     -0.38089650905620
  H   -0.85832880999739     -1.66419700378958      0.45541771234051
