12
Coordinates from ORCA-job run
  C   0.77798932800793     -0.01041240740600     -0.66410739095948
  C   -0.42398326246705      0.17029548791054      0.28273189097124
  Br  0.75281163360459      1.38202949900010     -2.03246308101270
  H   -0.31946354437893      1.14997601584487      0.77314737902015
  H   0.66831953508723     -0.96058085585364     -1.19053422062864
  C   2.04388519338452      0.05088864800791      0.05127947438011
  N   3.05343449202167      0.10335428135574      0.65013712271611
  C   -0.34087227545563     -0.86443632846900      1.32164466320301
  N   -0.28916434536136     -1.69013068942079      2.15469120831145
  N   -1.65671590381375     -0.01208969550662     -0.46968072330731
  H   -1.82848031018784      0.80562093655161     -1.04205983519218
  H   -2.43776054044137     -0.12351489201473      0.16521351249825
