12
Coordinates from ORCA-job run
  C   0.70931907447530      0.03293522136173     -0.63735492443618
  C   -0.45680024359287      0.20942427003158      0.37927449069335
  Br  0.59573261963229      1.40577633517116     -2.01781429282234
  H   -0.31998584853229      1.18207010776279      0.86387732727037
  H   0.60728362361243     -0.92636127341631     -1.15110088734431
  C   2.00710521490597      0.11480090625229      0.01537959499799
  N   3.03795738218781      0.19045268661022      0.57488134734886
  C   -0.30293107976277     -0.83979437494510      1.39805997565711
  N   -0.17103860438756     -1.70928835331571      2.17587151360258
  N   -1.79368713640409      0.15413729978071     -0.16110865403849
  H   -1.94584086393373      0.91239317838175     -0.81328039860793
  H   -1.96811413820049     -0.72754600367509     -0.62768509232100
