12
Coordinates from ORCA-job run
  C   0.94396401289366      0.34087656256388     -0.18831976899816
  C   -0.58958275385152      0.32036856605992      0.07780598927171
  Br  1.91270816463630     -0.59173562090780      1.21946305146492
  H   -1.03922591350895      0.88270029392663     -0.75077620773077
  H   1.31802672281932      1.36773567216455     -0.18846162136819
  C   1.21149532349709     -0.29258902011959     -1.47138735382031
  N   1.35188595925542     -0.80888054976063     -2.51761509255405
  C   -0.86170588221460      1.06947880897124      1.31167156618896
  N   -1.05904040194536      1.67992382370220      2.29442107546649
  N   -1.22446841528529     -0.97241461043768      0.12811920690857
  H   -1.15091892508794     -1.44449772791640     -0.76482793019585
  H   -0.81413789120813     -1.55196619824632      0.84990708536669
