12
Coordinates from ORCA-job run
  C   0.67574552128399      0.46469048489915     -0.66072436379422
  C   -0.57965174642412      0.42538609459979      0.24794715579556
  Br  1.83272544121487      1.96222489229496     -0.20560041792872
  H   -1.07304350960466      1.39822795298594      0.14987745366298
  H   0.35134327813884      0.63559043686225     -1.69028324396862
  C   1.40591372348504     -0.79254723406883     -0.58451751047943
  N   1.94130632690384     -1.83601253296216     -0.51022533495257
  C   -0.17527582039883      0.26266755058948      1.65040011039806
  N   0.15010659362351      0.10202677066151      2.76648949638557
  N   -1.52549122411112     -0.61113231719998     -0.10257361281717
  H   -1.11580186987311     -1.53406138347793     -0.02337985627063
  H   -1.88887671423826     -0.47806071518416     -1.03740987603081
