12
Coordinates from ORCA-job run
  C   0.75462334282579      0.49538373542102     -0.69441867700040
  C   -0.54991030022908      0.41411230365760      0.11606494040629
  Br  1.83084921683966      2.01458446693236     -0.13657919990971
  H   -1.07633941069784      1.36146690014138     -0.03296376689131
  H   0.48331599228678      0.65686966546925     -1.73870793944205
  C   1.51355424690966     -0.74116974171979     -0.57087007407585
  N   2.07642007212673     -1.76651977665669     -0.45890625420752
  C   -0.26666946270726      0.26804612784940      1.55698818765609
  N   -0.09390499749230      0.08798344595087      2.70507963414967
  N   -1.35346039849765     -0.65536910881998     -0.45134658623437
  H   -1.00410507348094     -1.55940076620286     -0.15226781748933
  H   -2.31437322788354     -0.57498725202254     -0.14207244696151
