15

C	0.0	0.0	0.0
C	-0.412293	-0.310056	-1.464326
F	1.382412	0.0	0.0
H	0.55507	-0.295694	-1.981534
N	-0.304201	1.41796	0.466089
O	-0.582176	1.583425	1.643601
O	-0.072861	2.288241	-0.365499
C	-0.439871	-0.969858	1.001472
N	-0.566393	-1.788563	1.836265
C	-1.2219	0.698463	-2.174379
N	-1.728616	1.369403	-2.996966
N	-0.932268	-1.666182	-1.548771
H	-1.007514	-1.904154	-2.532427
H	-1.87644	-1.615385	-1.160689
Cl	-3.063836	0.0	0.0
