15

C	0.0	0.0	0.0
C	-0.363538	-0.057135	-1.547759
F	1.355041	0.0	0.0
H	-0.255854	-1.126704	-1.777128
N	-0.393623	1.308723	0.658095
O	-0.47692	1.302869	1.880174
O	-0.477225	2.279444	-0.08518
C	-0.491451	-1.134068	0.775339
N	-0.700704	-2.126868	1.367855
C	0.725647	0.632199	-2.27189
N	1.548863	1.193768	-2.891894
N	-1.607976	0.401207	-2.074571
H	-2.400005	-0.007903	-1.563549
H	-1.682354	1.399914	-1.924676
Cl	-3.786262	0.0	0.0
