11
Coordinates from ORCA-job run
  C   0.47145065461226     -0.31335872396677     -0.07938209491911
  C   -0.85369561504936     -0.06099260858600      0.06900420636916
  H   -1.53185102844215     -0.89404177025257      0.24275136515881
  N   1.05238775015206     -1.60461707430059     -0.17875974437518
  H   0.34445001550001     -2.32602879084702     -0.19611441395200
  H   1.70742068874998     -1.78686185685850      0.57118549620994
  C   1.35786753206064      0.79475846677607     -0.25968146540442
  N   2.04270734987809      1.74716854143045     -0.36312843315045
  N   -1.47458867758936      1.16384958435907     -0.12828577095840
  H   -2.26961252323065      1.32489812303568      0.47003477984729
  H   -0.84553614664151      1.95522610921018     -0.14662392482565
