11
Coordinates from ORCA-job run
  C   0.46963182455693     -0.31511569775353     -0.07115492249052
  C   -0.85730635946696     -0.05582340983140      0.04410323354171
  H   -1.54612094873662     -0.88720851983391      0.18195400325684
  N   1.04519614338158     -1.60809908388802     -0.17944281876720
  H   0.33356638990680     -2.32496222518815     -0.22365477325576
  H   1.68089118935695     -1.80646464357197      0.58302509218153
  C   1.37000488988745      0.78834744211295     -0.20490800650055
  N   2.06875499962932      1.73410452160423     -0.26984696941947
  N   -1.46335038666608      1.17699751772865     -0.14946917483734
  H   -0.82857008109086      1.96383173600900     -0.13826711953645
  H   -2.27469766075852      1.33439236261215      0.42766145582719
