11
Coordinates from ORCA-job run
  C   0.36643554698504     -0.36716997229534     -0.00984095713932
  C   -0.93898176761347      0.00239376552928     -0.01075402830368
  H   -1.67736116335980     -0.79314354971214      0.02608578175769
  N   0.70640911400352     -1.75688213898097      0.01900048904587
  H   1.19787839018559     -2.02575613994208     -0.82482277854257
  H   1.30950469249328     -1.96329235184892      0.80579035230640
  C   1.37607317613112      0.64748264305709     -0.04147555659707
  N   2.18943346028347      1.50058449545018     -0.05623826825462
  N   -1.42288107442104      1.27677390169575     -0.14339876468608
  H   -0.76648408319668      2.02915514298404      0.00376164046384
  H   -2.34002629149103      1.44885420406310      0.23089208994954
