11
Coordinates from ORCA-job run
  C   0.53409568085662     -0.03969893752716      0.10967113241480
  C   -0.54467434526576      0.72602456989510      0.41367584167242
  H   -0.44833487621257      1.55378085470357      1.11019514058947
  N   0.36650006747004     -1.11894199700240     -0.82092745071236
  H   0.82564368541147     -0.91251698546576     -1.70060778975848
  H   0.77204190123750     -1.97174205036762     -0.45501295783907
  C   1.80736897778019      0.23526613369758      0.69438770301454
  N   2.87348387862813      0.41530254377552      1.16187832886899
  N   -1.76269913987146      0.56459696991956     -0.18490519205006
  H   -2.56830218343823      0.86646523412779      0.33604371462688
  H   -1.85612364659591     -0.31953633575618     -0.66539847082715
