11
Coordinates from ORCA-job run
  C   0.47477427781080     -0.31753764993111     -0.01979675618354
  C   -0.84759604960324     -0.05297642771580      0.13201098076832
  H   -1.55230631225344     -0.88198349008680      0.14195818565192
  N   1.05609792463540     -1.61231871293825     -0.01561284477644
  H   1.53193939006286     -1.81878910404807     -0.88483751037821
  H   0.36423224396153     -2.32528855146534      0.17113642324376
  C   1.38475432372402      0.78444714082306     -0.08246309974602
  N   2.07901082556483      1.73139703077257     -0.17203071117417
  N   -1.39999874593515      1.18470385951714      0.42731542984370
  H   -0.77924773697278      1.96878226220739      0.27765728496070
  H   -2.31066014099484      1.33856364286521      0.02366261778999
