11
Coordinates from ORCA-job run
  C   0.53912217068441     -0.00889054799154      0.08996606015978
  C   -0.55353209870735      0.75493800191468      0.34472674867233
  H   -0.45082545424028      1.69577539682209      0.87758288628321
  N   0.35877170863943     -1.24843613028049     -0.61078458987314
  H   0.51341992898154     -2.03787555626889      0.00606783196574
  H   1.01781714180598     -1.32335258534843     -1.37616893615193
  C   1.83431500545244      0.40942919319981      0.52088567379604
  N   2.92361924294321      0.71901752520125      0.84551627644737
  N   -1.82474813744494      0.36076708130709      0.03465378432899
  H   -1.85538575067886     -0.41006299874757     -0.61820000548077
  H   -2.50257375743558      1.08869062019200     -0.11424573014764
