11
Coordinates from ORCA-job run
  C   0.43625373673954     -0.34601651741953     -0.13018134512125
  C   -0.78580626629089      0.01704720220081      0.33626623666541
  H   -1.44807025878975     -0.74989456770553      0.73135399970765
  N   0.90790730804156     -1.68037464786883     -0.25409671518860
  H   0.18326222723983     -2.34626574846390     -0.02181663203618
  H   1.71720440446970     -1.85074404756186      0.33023389896168
  C   1.29954700564932      0.67660156464075     -0.63262241350110
  N   1.97232239344793      1.56672576726426     -1.00957390270540
  N   -1.26996847862458      1.31159606791758      0.43681735781491
  H   -2.26426842261324      1.39802573144291      0.29910284751121
  H   -0.74938364926942      2.00329919555336     -0.08448333210834
