11
Coordinates from ORCA-job run
  C   0.54001389729867     -0.00741510679877      0.08362483729727
  C   -0.54489457925556      0.77705191378976      0.30577697183475
  H   -0.43045433434280      1.74432406568134      0.78647821326880
  N   0.34553040546423     -1.28227487670196     -0.54585849135022
  H   0.50044325051553     -2.03737073894673      0.11283546802085
  H   0.99715659382577     -1.40448259883587     -1.31154728947659
  C   1.84023298724137      0.42148616085638      0.48816394713419
  N   2.93315543798136      0.73735653831768      0.79384155350064
  N   -1.82166486207207      0.37691680944455      0.02741950922908
  H   -2.49466710882500      1.10134834808397     -0.15620274888599
  H   -1.86385168783150     -0.42694051489037     -0.58353197057277
