11
Coordinates from ORCA-job run
  C   0.53167807891375     -0.02234358928561      0.12288526377005
  C   -0.52465343713896      0.82643911202221      0.19622726171871
  H   -0.40709196195578      1.80780261013480      0.64656512414801
  N   0.33556368851611     -1.30728163152467     -0.48544338691641
  H   0.70790491245388     -2.04127467303493      0.10473643816195
  H   0.81151523580184     -1.36027160274498     -1.37901232493354
  C   1.81078373603306      0.36267324330896      0.62707812970303
  N   2.88143623545231      0.62934089112381      1.03971490142830
  N   -1.74388292676727      0.54419313871270     -0.35352753829175
  H   -2.54254051010842      0.99347971349120      0.06125492381203
  H   -1.85971305120052     -0.43375721220349     -0.58047879260038
