11
Coordinates from ORCA-job run
  C   0.36786353836680     -0.36298169181687     -0.04689415224431
  C   -0.93162394932091     -0.00992836298837      0.11881819123237
  H   -1.66399899009889     -0.81171458604408      0.13345565380465
  N   0.71299225858854     -1.74598548735635     -0.17383061220001
  H   1.21802467583102     -1.91283861063155     -1.03531328950752
  H   1.30524089862905     -2.04161507184429      0.59266197113465
  C   1.36667325046028      0.66206086032254     -0.08698495091823
  N   2.16973786648646      1.52399659804188     -0.12765599229985
  N   -1.40640282554694      1.25226005608611      0.35876857735214
  H   -2.36185905698245      1.42756578587701      0.09967497299259
  H   -0.77764766641296      2.01818051035397      0.16729963065350
