11
Coordinates from ORCA-job run
  C   0.54358144511282      0.05034629462044     -0.02505119036586
  C   -0.58065174178603      0.81050279750101     -0.04250057814623
  H   -0.50803504204655      1.89249660923631     -0.10352783680845
  N   0.40379370328656     -1.37594537105043      0.04902380903235
  H   0.66514082181070     -1.81066868164055     -0.82871629703490
  H   1.00416990872250     -1.75592297823217      0.77075589846884
  C   1.83348562956602      0.65834977846013     -0.09532423911516
  N   2.91910453221468      1.11367795978341     -0.13834736492064
  N   -1.83850334903479      0.27674685852653     -0.07128122548383
  H   -1.86214966945231     -0.70191890331577      0.17969098756996
  H   -2.57993623839360      0.84233563611109      0.30527803680393
