11
Coordinates from ORCA-job run
  C   0.46290163735872     -0.33026862551751     -0.06632973383379
  C   -0.82467946243874     -0.00893585956379      0.21896029006812
  H   -1.51320122877093     -0.80126907293278      0.50381824352974
  N   0.98675520712513     -1.64970095308749     -0.13631838958012
  H   0.25291447222656     -2.33798241113774     -0.03453960192409
  H   1.69471898260532     -1.81127521004640      0.56942213060373
  C   1.35975076360151      0.72292606522510     -0.42675827572218
  N   2.05224331947603      1.63664597218904     -0.69611858315099
  N   -1.35775839681666      1.26937079317975      0.26139541690457
  H   -0.78932977974314      1.98096645310028     -0.17671120529515
  H   -2.32431551462382      1.32852284859156     -0.01682029159984
