11
Coordinates from ORCA-job run
  C   0.64452666526000     -0.00726758500968      0.12625787089862
  C   -0.50562218624959      0.68634553098023      0.31500330494040
  H   -0.47154980677970      1.65968623894478      0.79355420351566
  N   0.70307839259206     -1.35974348480114     -0.28415960366563
  H   -0.16453471163446     -1.85124768776776     -0.12786663601999
  H   1.05133309572514     -1.50375028563739     -1.22151627911319
  C   1.89129547046195      0.62206139144661      0.43447743227368
  N   2.92086527083883      1.14993266284248      0.64940846008289
  N   -1.76796944087714      0.17168081399378      0.04869087140115
  H   -2.49792194059241      0.86492369000997      0.02455297244580
  H   -1.80450080874469     -0.43462128500188     -0.75840259675938
