11
Coordinates from ORCA-job run
  C   0.36403802219081     -0.36987491632646      0.00046159680151
  C   -0.93881177315663      0.00865544300229     -0.00911223657993
  H   -1.68337782338507     -0.77929829913619      0.05249926635396
  N   0.69471580378697     -1.76027908784248      0.07042139998394
  H   1.29440873644011     -1.94802258526316      0.86441312498229
  H   1.18586653106330     -2.05736345299544     -0.76405472398409
  C   1.38035496597002      0.63650307340476     -0.06601213165771
  N   2.19895154126004      1.48350815440884     -0.11067426586106
  N   -1.41385386310860      1.28218146026580     -0.17788447061564
  H   -2.32965090339397      1.47063959443252      0.19171043964942
  H   -0.75264123766697      2.03435061604952     -0.05276799907270
