11
Coordinates from ORCA-job run
  C   0.36795498444914     -0.36335604288477     -0.04940634616883
  C   -0.93689856571932     -0.00819840932067      0.06051144918729
  H   -1.66397005657050     -0.81168277714400      0.13165509144701
  N   0.72258330045103     -1.74909647601210     -0.08493717816875
  H   1.37895647006321     -1.97103769558430      0.65331664775909
  H   1.15911938500894     -1.98763979965530     -0.96711177128138
  C   1.36163025983030      0.66433952110956     -0.13261367091344
  N   2.16142295509320      1.52843563995256     -0.18883500215676
  N   -1.44043908543738      1.26444201720089      0.00257672874304
  H   -2.32716282217097      1.41484114132793      0.45195344098874
  H   -0.78119682499765      2.01895288101022      0.12389061056398
