11
Coordinates from ORCA-job run
  C   0.61717479642087      0.04500804216421     -0.21056933348816
  C   -0.57923773417762      0.68383441775035     -0.16848180177741
  H   -0.70630719224079      1.61970902260898     -0.70239394702191
  N   0.96863750219322     -1.05220019636459      0.60742410956643
  H   1.06002252539825     -1.93518594110842      0.12608066204141
  H   0.39923170846426     -1.12956023962239      1.43696375275059
  C   1.63798615991696      0.55057221533240     -1.07599886960886
  N   2.47348267364885      0.94056251979085     -1.80707693688021
  N   -1.63643808421303      0.28666863290115      0.63855505667221
  H   -1.71397779376748     -0.71380616932873      0.75533182070129
  H   -2.52057456164353      0.70439769587621      0.39916548704463
