11
Coordinates from ORCA-job run
  C   0.36110618382223     -0.38479787667273     -0.06456306312920
  C   -0.88966145665048      0.06621656179342      0.23138761093975
  H   -1.63272878422895     -0.67669780750288      0.49261523249960
  N   0.64340273321335     -1.77764333327971      0.06090182140166
  H   1.40915753245683     -1.93145423221456      0.69139940108452
  H   0.90638482177998     -2.15440463727092     -0.81588432268858
  C   1.37404446244702      0.56226784249218     -0.41772256983679
  N   2.17252413520443      1.41465583952572     -0.67261673021356
  N   -1.30055872417640      1.35495981697517      0.30747209291051
  H   -2.28774781122084      1.47399892274777      0.26198854302392
  H   -0.75592309264718      2.05189890340654     -0.07597801599183
