11
Coordinates from ORCA-job run
  C   0.61962626179239     -0.06453626744971      0.16614616315635
  C   -0.57742624117199      0.48792730758506      0.48025286771090
  H   -0.63667672229897      1.23063475136593      1.27148351810195
  N   0.78004562512685     -1.16263605524808     -0.68012056630687
  H   -0.09893523614560     -1.43425069845389     -1.09705946018443
  H   1.52612182401465     -1.07375302186282     -1.35301407016513
  C   1.80721801421590      0.43639486553832      0.79391264389989
  N   2.78916976297288      0.85981619914446      1.28361466449289
  N   -1.75199668310146      0.03610129631447     -0.17814227448081
  H   -2.57589941589518      0.18880550308901      0.38496043060459
  H   -1.88224718950948      0.49549611997726     -1.07203391682933
