11
Coordinates from ORCA-job run
  C   0.52272954565595     -0.03881502474342      0.15644580789539
  C   -0.56102204732364      0.76364393157257      0.31050308541978
  H   -0.50378441611476      1.64434184828020      0.94350956576260
  N   0.40862025780084     -1.18612471927891     -0.69746601425174
  H   0.78072951037011     -2.01007226602025     -0.24110586159513
  H   0.92715018255908     -1.04955773517343     -1.55797845129460
  C   1.75078653090799      0.26442878764810      0.81889561442329
  N   2.77971282649489      0.46626842151670      1.35596865097190
  N   -1.73109152696065      0.57056731900639     -0.36874299343592
  H   -2.56853634985765      0.92470365169614      0.06112299986708
  H   -1.80529451353218     -0.34838421450411     -0.78315240376266
