11
Coordinates from ORCA-job run
  C   0.47150570439148     -0.32440885662317      0.01712996778048
  C   -0.84945621350411     -0.02661163970917     -0.07682363272349
  H   -1.56679040590537     -0.83938246376873     -0.16497046029286
  N   1.01534917859549     -1.63293375241227      0.12583517541597
  H   1.60176092339017     -1.86427434434240     -0.66653919086055
  H   0.28324237308474     -2.32515700331555      0.21187607359619
  C   1.40246456390180      0.75544799022436      0.12070048187140
  N   2.11726021009553      1.68939387306318      0.18234425610360
  N   -1.39693780538409      1.24435253335226     -0.14977845607581
  H   -2.30542547092911      1.33258174520110      0.27671674723289
  H   -0.77297305773655      1.99099191833039      0.12350903795217
