11
Coordinates from ORCA-job run
  C   0.46954222913814     -0.32540034778146     -0.02235605238066
  C   -0.82420517201130     -0.01066605971003      0.23974315273485
  H   -1.52208495961751     -0.80970734500807      0.48155741696002
  N   1.04741764952759     -1.61223086893703      0.13569265297388
  H   0.38944089015227     -2.26372347416359      0.54136675212408
  H   1.39914015211839     -1.98237646623231     -0.73825310917122
  C   1.36460866642396      0.72937211735866     -0.38667236174668
  N   2.04494854103176      1.63038058941528     -0.72160095758442
  N   -1.33643067206783      1.27092227568502      0.38020946200422
  H   -2.29103988804534      1.36956467381235      0.07206372543785
  H   -0.74133743665013      2.00386490556120      0.01824931864807
