11
Coordinates from ORCA-job run
  C   0.35404348087642     -0.37953136458452      0.00955109811803
  C   -0.93116569017382      0.04272538839089      0.11262600230634
  H   -1.69413653241272     -0.71984497679146      0.23783367998122
  N   0.64653921237897     -1.77813215497763      0.08594088055676
  H   1.23309356494660     -1.98062901982307      0.88655709369296
  H   1.13863929959210     -2.08864777775374     -0.74280572430237
  C   1.39170735466434      0.59052279067544     -0.17005693951738
  N   2.22843839844923      1.40569116330351     -0.32780190198549
  N   -1.35792516704899      1.34293556239919      0.16189477820125
  H   -2.30665330247771      1.51492653311430     -0.12187940167146
  H   -0.70058061879442      2.04998385604708     -0.13285956537988
