11
Coordinates from ORCA-job run
  C   0.64982913394472      0.08692616927083     -0.02759430943301
  C   -0.52865830586406      0.69230512700377      0.26272484990372
  H   -0.52767156001106      1.69213050931332      0.68439434081174
  N   0.77019212600859     -1.11174128271091     -0.76847086325716
  H   1.06988448481707     -1.91381884864496     -0.23260047888043
  H   -0.04974336484742     -1.31357347639885     -1.32103163715441
  C   1.87039030252116      0.72397300405226      0.35912741953286
  N   2.87606931182998      1.22426136341908      0.70991352650664
  N   -1.76916659838223      0.16147586150293     -0.06868250622173
  H   -1.81812865442916     -0.84526956154281     -0.00019923021299
  H   -2.54299687558760      0.60233113473535      0.40141888840478
