11
Coordinates from ORCA-job run
  C   0.64509132156561     -0.02065070855167      0.11822075100992
  C   -0.50813386595334      0.62354553160384      0.42553736204203
  H   -0.47758679740627      1.50797204823651      1.05352111163011
  N   0.70919694714558     -1.28836372989844     -0.50563342797714
  H   -0.15226890841466     -1.80770709842294     -0.42465483159071
  H   1.05519382985829     -1.27753177703313     -1.45457836684657
  C   1.89083546416304      0.55944037079770      0.51399028874152
  N   2.91949333457006      1.05172122666151      0.80419499923147
  N   -1.76922827806136      0.14610786918103      0.09078054609063
  H   -2.50359290679581      0.82930358045540      0.18127870589054
  H   -1.80800014067115     -0.32383731302981     -0.80265713822180
