17
Coordinates from ORCA-job run
  C   -0.62393740157211     -0.39973632420086      0.29196431867343
  C   0.75758918029497     -0.39604825243476     -0.38156136207873
  Br  -0.75855162781392     -1.85468477371715      1.57050589214310
  H   0.92742600672879     -1.36688095875445     -0.84166053825878
  N   -1.59142659351393     -0.75104380642532     -0.84935577367375
  O   -2.60397248838170     -0.07123080170229     -0.95063611630044
  O   -1.27845797602532     -1.69415380386674     -1.56347618849696
  C   -1.03287878657928      0.90101309977931      0.93760083903302
  H   -1.04129751179633      1.69861935888296      0.19386258783958
  H   -0.33731980946886      1.14816290280915      1.73816402431284
  H   -2.03682807761178      0.81045996639272      1.34718981264633
  N   1.84191485390703     -0.26811816666620      0.68183159095826
  O   2.04130055331702      0.86196005429641      1.12734220816476
  O   2.45045782627886     -1.28656142218284      0.99326844953173
  N   0.80190393964210      0.64720448806862     -1.34617020647040
  H   1.51671490273358      0.47660186360017     -2.04071737932132
  H   0.96536300986088      1.54443657612126     -0.90615215870269
