17
Coordinates from ORCA-job run
  C   -0.59137422626258     -0.39584733878818      0.25184632727980
  C   0.85023028772793     -0.42801380776950     -0.31350512578700
  Br  -0.89621679737938     -1.93866533815770      1.39473549913531
  H   1.04317890641770     -1.41986332163735     -0.71420791194006
  N   -1.48694247343220     -0.61039012757784     -0.97610894117704
  O   -2.51424302691827      0.05233794940194     -1.05057954944174
  O   -1.10590178407841     -1.43962762177848     -1.79619008801524
  C   -1.00178803510407      0.86554656609885      0.97125523888039
  H   -0.39479012194190      0.99602481455909      1.86469656288898
  H   -2.05087327969625      0.80498982433908      1.25267695210036
  H   -0.87422895290029      1.73414930061475      0.32241925746027
  N   1.81718126742406     -0.24810387107557      0.82712662787383
  O   1.96561624197647      0.90214862020275      1.23458855046361
  O   2.38778700039063     -1.24809093905055      1.24952332201909
  N   1.15743089235601      0.55753477415648     -1.29593986649704
  H   0.78372197701906      0.31799817218944     -2.20207576805067
  H   0.91121212440149      1.49687234427278     -1.02026108719284
