16
Coordinates from ORCA-job run
  C   0.74806285918062      0.18290225598694      0.75685357493611
  C   -0.63473259896287      0.47309681653079      0.17337242170394
  Br  1.66624347258410      1.89534178099234      1.09856115876690
  H   -1.14264658910603      1.14190172325874      0.88651507599323
  H   0.62390313237214     -0.24163363799845      1.75598853175079
  C   1.63603526809947     -0.69510167596470     -0.10301969525782
  H   1.18517721689012     -1.68571793735570     -0.20702551428203
  H   1.75201569484320     -0.26156821565491     -1.09502829299907
  H   2.61798364100104     -0.81720029726792      0.35603608878860
  C   -1.44939029862777     -0.81234897165140      0.06886541757797
  H   -2.48458816680135     -0.57697793441865     -0.19458209174461
  H   -1.46495193075485     -1.35371283806978      1.01816385644271
  H   -1.04465675673973     -1.46086224586237     -0.70943347398333
  N   -0.50450605769561      1.05728802458455     -1.15766873704703
  H   -0.07957087951582      1.97504053710881     -1.08637258748916
  H   -1.42537800676667      1.18055261578170     -1.56222573315720
