16
Coordinates from ORCA-job run
  C   0.96880738543684      0.31277153214938     -0.09138441801677
  C   -0.54323308770610      0.40492219831041      0.11388788955715
  Br  1.43702859723253      0.09069304856726     -1.97904627858163
  H   -0.65201843419793      0.49349956483974      1.21143014547307
  H   1.40785406325460      1.27890313594677      0.17661606018160
  C   1.63169491720153     -0.78784287440159      0.71958848126784
  H   1.32415902869434     -1.77552783337711      0.37462762902525
  H   2.71719939214818     -0.72633787771648      0.63293699298562
  H   1.36269030808554     -0.68483550958148      1.77586984719728
  C   -1.31137047948397     -0.82832674800686     -0.33362248734203
  H   -2.37090122976548     -0.71337766836402     -0.08677391354534
  H   -0.95649020021284     -1.73239352327447      0.16368882080790
  H   -1.22344380564766     -0.95231502814193     -1.41333779949046
  N   -1.06838772552216      1.56828144323958     -0.59097608149445
  H   -2.06911925266470      1.63176430412652     -0.44572873875811
  H   -0.65346947685272      2.41912183568428     -0.22777614926693
