18
Coordinates from ORCA-job run
  C   -0.74758421580404     -0.14250650004051     -0.12888613467946
  C   0.77238726020233     -0.15220456314836      0.06532703190465
  Br  -1.19349259981500     -0.09311531447329     -2.00831381653775
  H   0.94796951290213     -0.46964335842092      1.09711833835485
  N   -1.33757994261743     -1.41079169652350      0.52123146425845
  O   -1.01443221468621     -1.54625862797375      1.69683353540135
  O   -2.10210581607435     -2.11837197684378     -0.10932043656059
  C   -1.41751635290236      1.02066052295554      0.58616212064038
  H   -2.50120354897439      0.90137566245453      0.53243082464350
  H   -1.11145574278723      1.03446646510426      1.63426041329257
  H   -1.15297376730510      1.96326680848164      0.11002127270952
  C   1.45313395966422      1.16742321466054     -0.22364092508000
  H   2.53218107197291      1.04905475989142     -0.13391991597944
  H   1.13240325364975      1.91481273957320      0.50286729423246
  H   1.23264503351145      1.51829280387579     -1.23157828781231
  N   1.36213901562600     -1.26519694074602     -0.76983757078484
  O   0.89791142299749     -2.38355760330957     -0.56484620334410
  O   2.24557367043983     -0.98970639551722     -1.57390900465924
