18
Coordinates from ORCA-job run
  C   -0.67622484821000     -0.57273181900271      0.02088956912716
  C   0.83781011146988     -0.32063746878404     -0.03856423511465
  Br  -1.08216386092473     -2.30161558402022     -0.77779956965820
  H   1.33787090861693     -1.17121971116008      0.42053032690528
  N   -0.98117585603452     -0.72922147541497      1.52045674905854
  O   -1.93402686627648     -0.10138245500199      1.96793481350671
  O   -0.23812592228684     -1.46385196554798      2.16040224774330
  C   -1.56921111129581      0.48543968959275     -0.57894815329250
  H   -1.35365184362730      0.58170931957213     -1.64107256208774
  H   -2.61257286965751      0.20735815946735     -0.44316364249662
  H   -1.40335071421073      1.44648304421423     -0.09100763590717
  C   1.25631993904717      0.98823611871363      0.60932915397790
  H   0.94610926775133      1.01418795493983      1.65530275467653
  H   0.83576913866274      1.84288937874554      0.08186760571555
  H   2.34504502850348      1.06827387947163      0.58337891887266
  N   1.30567649966264     -0.32625168570381     -1.46513409561259
  O   0.97961720172605      0.62608952466905     -2.17205240748359
  O   2.00628579708370     -1.27275490475035     -1.81434983793056
