18
Coordinates from ORCA-job run
  C   -0.73911331466212     -0.20282875486951     -0.08971501752634
  C   0.78347873581555     -0.09265006027430      0.04312631305417
  Br  -1.25449512844946     -0.30656452870578     -1.94898220957361
  H   1.01871512580898     -0.32982877898201      1.08456285572044
  N   -1.21127260601986     -1.46476435033342      0.66120367675793
  O   -1.94573672233274     -2.26283147055589      0.10756508022879
  O   -0.83619162551142     -1.50157468794294      1.82855779717839
  C   -1.46633532107854      0.95375841035859      0.57850143808946
  H   -1.28800540852910      1.88025618438440      0.03537164914166
  H   -2.53965758657972      0.75510628697789      0.57515762903851
  H   -1.12550846642733      1.05623905151696      1.61084815412659
  C   1.35553774139062      1.25001903450622     -0.35453756994901
  H   1.07494170462776      1.51764175431590     -1.37301923685197
  H   2.44284114001419      1.21431541995527     -0.30049366060863
  H   1.00682738851525      2.01894399530900      0.33568839984120
  N   1.42244287153733     -1.21303286040246     -0.74478281719137
  O   2.25324411628236     -0.92837724712495     -1.60014612645817
  O   1.04928735559826     -2.34582739813298     -0.45190635501805
