18
Coordinates from ORCA-job run
  C   -0.71021363165728     -0.44772734118465      0.19724659010518
  C   0.76266505953492     -0.30460549186316     -0.22513487105025
  Br  -0.90372636698625     -2.18654982494349      1.05252435886283
  H   0.96972353782736     -1.14766112876672     -0.88660511353551
  N   -1.08166260449107      0.60354246590018      1.24615301422724
  O   -1.92328679017035      1.43342409567516      0.92056805411455
  O   -0.50041342944703      0.54634629341817      2.32175612783272
  C   -1.65840911659687     -0.36801083252646     -0.98005886108852
  H   -2.68075020036286     -0.55571535212220     -0.65513331614933
  H   -1.62176224840030      0.62145591262452     -1.43560469602783
  H   -1.37469371201605     -1.11945686088563     -1.71865136871459
  C   1.82691642042696     -0.18814654112469      0.84974520470621
  H   1.71940378168150      0.73545879561409      1.41325727646190
  H   2.80664101390210     -0.20149410508497      0.36617243829905
  H   1.76459432214857     -1.03040855410177      1.53728808043954
  N   0.85143520405279      0.90342045717514     -1.11613691002558
  O   0.64310818300711      1.99148389276744     -0.58313769624470
  O   1.11043057754676      0.71464411942904     -2.30224831221291
