18
Coordinates from ORCA-job run
  C   -0.77756329390207     -0.42460755530210     -0.02693438621800
  C   0.75627615913899     -0.47522042780392     -0.09319665214961
  Br  -1.52342460239075     -1.93554373956335     -1.00313466116463
  H   1.07503723630613     -1.45532220745157      0.25625009240605
  N   -1.10757427901655     -0.68539320402460      1.45230536022416
  O   -1.91467818184613      0.06523027720705      1.98846994338894
  O   -0.52759401293734     -1.62166633746459      1.98951110972122
  C   -1.44007156157294      0.85132329778330     -0.48551792308049
  H   -2.51794423258172      0.77325299341486     -0.35722212054425
  H   -1.08473520932300      1.69878046388619      0.10163807701820
  H   -1.20995611374708      1.02199797991313     -1.53513534875243
  C   1.43032350552599      0.64043282543360      0.68720927955950
  H   1.13802006868722      0.60231122487701      1.73794248436885
  H   2.51309291461960      0.50757210348941      0.63839720316707
  H   1.18508158654003      1.61743241249301      0.27397806221636
  N   1.21226263240906     -0.41117477565111     -1.52202001348027
  O   1.70732500572169     -1.43229200468677     -1.99192650858288
  O   1.08412237836885      0.66188667345045     -2.10961399809779
