18
Coordinates from ORCA-job run
  C   -0.79241999468429     -0.31835808350437      0.12027165348277
  C   0.67719534080455     -0.39743289070336     -0.33011233573357
  Br  -1.36960470861324     -2.12942296069174      0.54278509380768
  H   0.69457018795498     -1.07652539718473     -1.18431006272086
  N   -0.92537969369259      0.49855436281038      1.40792024088109
  O   -0.37295879772859      0.05702965814044      2.40679790004197
  O   -1.56382734923627      1.54259288993244      1.33480736661159
  C   -1.69462277455422      0.24995249711782     -0.95430542821652
  H   -1.43772218968149      1.28894067552250     -1.16020821713158
  H   -2.73459388622559      0.21366067669597     -0.63324271646300
  H   -1.58096074516650     -0.34047142811868     -1.86488775488732
  C   1.73690526225357     -0.78017695526713      0.68579942538622
  H   2.69057209646117     -0.88883487892614      0.16372753962434
  H   1.83648435123047     -0.02028946471085      1.45704339361708
  H   1.48533198867196     -1.72950454807305      1.15635511017295
  N   1.03407755958662      0.94404653930936     -0.90880697708642
  O   1.24778397042480      1.00077252532059     -2.11732557595302
  O   1.07016938219467      1.88646678233055     -0.12030865543339
