18
Coordinates from ORCA-job run
  C   -0.73248455569672     -0.39927516194585      0.21941602466655
  C   0.74557853150828     -0.35586788597824     -0.20700190114431
  Br  -1.01582311541702     -2.07682888486550      1.16636158794690
  H   0.90807029941658     -1.24224956471008     -0.82270648878000
  N   -1.04805393550182      0.72501241584018      1.20965974800367
  O   -1.84652012231801      1.57805474607565      0.83861511686857
  O   -0.46912241244463      0.69606044685979      2.28758968283808
  C   -1.67597271568150     -0.33334937210166     -0.96256000497192
  H   -2.70661696152415     -0.44906531956005     -0.63036085224186
  H   -1.58757662156839      0.62674357270782     -1.47079166071548
  H   -1.43269271846378     -1.13744464422492     -1.65894194123641
  C   1.81530716828033     -0.23779144938020      0.86234375572943
  H   1.75696310998864      0.71965254034501      1.37425182410451
  H   2.79269023379850     -0.32948020457225      0.38261401536332
  H   1.70865734412489     -1.03645645055425      1.59496603216802
  N   0.89658851443383      0.79698626359135     -1.16088933116490
  O   1.14497962635990      0.53216623942170     -2.33461194062334
  O   0.74502833070505      1.92113271305151     -0.68695366681080
