18
Coordinates from ORCA-job run
  C   -0.73497348960973     -0.21632323217234     -0.09085917214398
  C   0.78449236990091     -0.07985548958329      0.05319503327178
  Br  -1.23062165511979     -0.37869590597796     -1.95122267169846
  H   1.01294051852147     -0.28488743277139      1.10291293029173
  N   -1.19606922816465     -1.46408837001974      0.68999642511034
  O   -0.83163181447415     -1.46330674243325      1.86136418273634
  O   -1.91343256289261     -2.28786295237751      0.15177526514443
  C   -1.48534723604073      0.94731527072920      0.53845876584156
  H   -1.15564630954237      1.08349242331506      1.57052066665955
  H   -1.31566179201468      1.86089474642073     -0.02881015457037
  H   -2.55558699480898      0.73271458724010      0.53118740856730
  C   1.34043602956474      1.26008480901029     -0.37555917718976
  H   1.06477392361047      1.49648325331126     -1.40309322161170
  H   2.42763520968709      1.24179838481561     -0.31171088856292
  H   0.97458816882984      2.04180413472568      0.29103073117805
  N   1.44736101044677     -1.21142254342687     -0.69793845321998
  O   1.08702113013272     -2.34131389341276     -0.37871984449977
  O   2.28272272197367     -0.93783104739280     -1.55252782530413
