18
Coordinates from ORCA-job run
  C   -0.74207071194318     -0.18262768681057     -0.10753085859505
  C   0.77964153179368     -0.11364115107670      0.05959239179002
  Br  -1.21896623739641     -0.25848373506876     -1.97821638455576
  H   0.98519923226499     -0.36631712951205      1.10364261064821
  N   -1.26319221204039     -1.43778001849778      0.62245472781893
  O   -2.00474417300243     -2.21271320627611      0.04587915158887
  O   -0.91589423173294     -1.49296278465916      1.79760527817228
  C   -1.45313329602128      0.98736105491333      0.55458100612299
  H   -1.13295110427915      1.07207655371889      1.59510629202504
  H   -1.23791901652958      1.91319635377804      0.02378288596008
  H   -2.53104725195361      0.81777468003099      0.52556475460567
  C   1.39479684887150      1.21709496400992     -0.31304789956647
  H   1.05401278794552      1.98801552677006      0.37891466190528
  H   2.47959154379914      1.15167802592166     -0.23970936150463
  H   1.14050157215112      1.50254305201701     -1.33361521718149
  N   1.40611069676431     -1.24341153750631     -0.72476037548538
  O   2.25991869460998     -0.97310560188789     -1.56190383613417
  O   0.99914532669874     -2.36869735986456     -0.44833982761443
