18
Coordinates from ORCA-job run
  C   -0.77222540430313     -0.43710132965513     -0.01905735371739
  C   0.76222511793489     -0.46574881052802     -0.08814190541948
  Br  -1.49739247234476     -1.97450334933604     -0.96794567529234
  H   1.09581331708076     -1.43622554298741      0.27443545424097
  N   -1.08994844194637     -0.67694587304621      1.46650084560748
  O   -0.51208377081340     -1.61122857509184      2.00902755767829
  O   -1.88062100851458      0.09104765252945      2.00273979990128
  C   -1.45542734396118      0.82084673127482     -0.49667499254355
  H   -2.53122515413420      0.73031065346892     -0.35850010029594
  H   -1.10735700103987      1.68447066442745      0.07065401463275
  H   -1.23626133799502      0.97390974196792     -1.55133849611913
  C   1.42101670480723      0.67121867320981      0.67425298170778
  H   1.12646886196219      0.64923205747631      1.72485758598600
  H   2.50538844797124      0.55058035181046      0.63032381648632
  H   1.16440834191296      1.63751316504925      0.24314105451420
  N   1.21446081008141     -0.41629048773797     -1.51879817324309
  O   1.72479319058046     -1.43651366542426     -1.97406114718227
  O   1.06796714272138      0.64542794259249     -2.12241526694188
