18
Coordinates from ORCA-job run
  C   -0.77039195170522     -0.43733597001845     -0.02027607125178
  C   0.76444404403030     -0.46504552220697     -0.07766192344599
  Br  -1.48726005395844     -1.98292895824629     -0.96309521457011
  H   1.09678426566123     -1.43076231623827      0.29815271931103
  N   -1.10482915579016     -0.66799439788825      1.46305950079209
  O   -1.93157336154863      0.07827082387268      1.97482935545805
  O   -0.50926084788245     -1.57801048914817      2.02752486968239
  C   -1.45016486256577      0.81675248617489     -0.51277188169470
  H   -1.11158968707140      1.68309620268115      0.05646924461589
  H   -2.52743760501472      0.72468624131260     -0.38915719441955
  H   -1.21610026262913      0.96652723236094     -1.56472946054507
  C   1.41647339388893      0.68053361253262      0.67771997666483
  H   2.50142380387302      0.56323140279956      0.63872004431915
  H   1.11799114454872      0.66474022226953      1.72729047353082
  H   1.15882022195859      1.64276300378041      0.23822841929921
  N   1.22659905701914     -0.42974108074912     -1.50550651959918
  O   1.73791305811202     -1.45522679198637     -1.94765487636142
  O   1.08615879907397      0.62644429869751     -2.12014146178566
