13

C	-0.581299	0.032345	-1.397525
C	0.0	0.0	0.0
Cl	0.055615	1.363891	-2.370524
H	1.096577	0.0	0.0
H	-1.663759	0.12761	-1.359251
H	-0.357816	-0.924594	0.466176
N	-0.323522	-1.280904	-2.088932
O	0.800112	-1.517796	-2.50673
O	-1.289899	-2.049606	-2.114511
N	-0.564949	1.144313	0.733965
H	0.032064	1.941317	0.539604
H	-0.445988	0.957128	1.722318
Cl	3.523081	0.0	0.0
