13

C	-0.456916	-0.071477	-1.435219
C	0.0	0.0	0.0
Cl	-2.238205	-0.100627	-1.577104
H	1.094751	0.0	0.0
H	-0.073683	-0.954239	-1.937825
H	-0.36085	0.932128	0.444241
N	0.02237	1.11018	-2.228008
O	-0.164849	2.222931	-1.745876
O	0.550716	0.87086	-3.310844
N	-0.443671	-1.215185	0.681373
H	-1.262997	-1.033684	1.244496
H	0.303338	-1.524544	1.288862
Cl	3.414479	0.0	0.0
