13

C	-0.454697	-0.085044	-1.434348
C	0.0	0.0	0.0
Cl	-2.236944	-0.115017	-1.572641
H	1.094725	0.0	0.0
H	-0.071596	-0.972007	-1.928962
H	-0.359399	0.938452	0.433468
N	0.027809	1.090065	-2.234452
O	0.587293	0.838823	-3.298891
O	-0.186582	2.20758	-1.774784
N	-0.445968	-1.206867	0.692828
H	-1.293087	-1.029	1.211986
H	0.277095	-1.483625	1.340742
Cl	3.416525	0.0	0.0
