13

C	-0.390873	-0.065034	-1.464186
C	0.0	0.0	0.0
Cl	-2.166021	-0.155	-1.710782
H	1.094991	0.0	0.0
H	0.047336	-0.918856	-1.975456
H	-0.38158	0.927443	0.428458
N	0.081741	1.147076	-2.218654
O	0.651468	0.943436	-3.287436
O	-0.15334	2.242717	-1.720897
N	-0.433156	-1.151233	0.775359
H	0.202027	-1.922112	0.617165
H	-1.37355	-1.435666	0.535845
Cl	3.414531	0.0	0.0
