13

C	-0.389791	-0.111951	-1.462019
C	0.0	0.0	0.0
Cl	-2.163406	-0.22462	-1.707058
H	1.094972	0.0	0.0
H	0.056309	-0.97659	-1.947043
H	-0.382363	0.940463	0.398253
N	0.073284	1.080675	-2.251653
O	0.651968	0.849812	-3.310508
O	-0.177619	2.188854	-1.789767
N	-0.432666	-1.125668	0.811982
H	0.199813	-1.903017	0.674508
H	-1.37514	-1.415286	0.585026
Cl	3.41392	0.0	0.0
