16

C	0.0	0.0	0.0
C	-0.484691	-0.154705	-1.469193
Br	1.962886	0.0	0.0
H	0.368018	0.036718	-2.133115
C	-0.324298	1.324261	0.724108
H	-1.406058	1.409563	0.738356
H	0.080645	1.24045	1.735558
H	0.15342	2.160308	0.218854
C	-0.418645	-1.122255	0.836703
N	-0.545878	-2.022927	1.582851
N	-1.497882	0.853396	-1.97293
O	-1.227707	2.029979	-1.764757
O	-2.373341	0.446365	-2.718565
C	-0.966997	-1.501023	-1.746666
N	-1.215706	-2.609294	-2.044513
F	-2.410995	0.0	0.0
