16

C	0.0	0.0	0.0
C	-0.48827	0.04245	-1.466602
Br	1.959546	0.0	0.0
H	-0.192301	-0.894235	-1.946892
C	-0.387748	1.182888	0.896593
H	-1.473718	1.20729	0.925787
H	0.031694	1.016692	1.891258
H	0.022851	2.101548	0.483031
C	-0.412008	-1.276061	0.57989
N	-0.599301	-2.333351	1.058382
N	0.263485	1.094783	-2.250816
O	0.149647	2.261766	-1.888867
O	0.918767	0.707763	-3.214788
C	-1.933192	0.284184	-1.737442
N	-2.651933	0.525798	-2.651578
F	-2.579207	0.0	0.0
