14

C	0.0	0.0	0.0
C	-0.208163	0.001433	-1.561021
Cl	1.763975	0.0	0.0
H	0.464029	-0.771848	-1.934891
H	0.227137	0.975567	-1.835483
C	-0.734596	1.073645	0.653524
N	-0.753715	2.144072	1.179163
N	-0.363742	-1.325111	0.644886
O	-0.298465	-2.325776	-0.063906
O	-0.523787	-1.32449	1.862053
N	-1.511662	-0.232038	-2.176844
H	-1.450172	0.124212	-3.128337
H	-2.208446	0.293293	-1.660554
H	-2.058994	0.0	0.0
