16

C	-0.284402	-0.063632	-1.502314
C	0.0	0.0	0.0
Cl	-2.046592	-0.399311	-1.839215
H	1.096432	0.0	0.0
C	0.013431	1.225723	-2.128488
N	0.261647	2.257895	-2.632307
C	0.5826	-1.158346	-2.105223
H	0.518813	-1.16113	-3.194756
H	0.250193	-2.114986	-1.703429
H	1.600081	-0.953792	-1.749852
N	-0.378583	-1.25083	0.645341
H	0.3507	-1.476098	1.310295
H	-1.264474	-1.174964	1.127631
C	-0.568553	1.181527	0.632674
N	-1.037457	2.096982	1.204653
F	2.569176	0.0	0.0
