16

C	-0.511079	-0.039965	-1.448656
C	0.0	0.0	0.0
Cl	-0.000511	1.46709	-2.294963
H	1.099454	0.0	0.0
C	0.121705	-1.169526	-2.135926
N	0.584203	-2.061799	-2.743582
C	-2.02516	-0.160054	-1.552549
H	-2.489329	0.708889	-1.079887
H	-2.34163	-0.209715	-2.59648
H	-2.335145	-1.07085	-1.035266
N	-0.360931	-1.271894	0.64304
H	-1.071497	-1.154361	1.35331
H	0.489053	-1.610001	1.080937
C	-0.541687	1.151053	0.702103
N	-0.996238	2.043186	1.321832
F	2.522794	0.0	0.0
