16

C	-0.503442	-0.076484	-1.449841
C	0.0	0.0	0.0
Cl	-0.023307	1.424929	-2.32088
H	1.094207	0.0	0.0
C	0.15456	-1.204738	-2.116619
N	0.588398	-2.120128	-2.711212
C	-2.013893	-0.234188	-1.559634
H	-2.303356	-1.143079	-1.029249
H	-2.32242	-0.309209	-2.604125
H	-2.499848	0.631438	-1.1043
N	-0.355592	-1.259823	0.670497
H	0.498269	-1.592252	1.105014
H	-1.061092	-1.130067	1.384748
C	-0.552763	1.161865	0.673872
N	-1.030563	2.061203	1.264618
F	2.525161	0.0	0.0
