16

C	-0.291141	0.08938	-1.515375
C	0.0	0.0	0.0
Cl	0.250248	-1.445347	-2.277008
H	1.101931	0.0	0.0
C	-1.720722	0.224913	-1.801237
N	-2.873926	0.388039	-1.965584
C	0.550393	1.22436	-2.09109
H	0.181591	2.184688	-1.720918
H	0.517936	1.222071	-3.181698
H	1.565425	1.050212	-1.715874
N	-0.530828	-1.196518	0.625832
H	0.198738	-1.596573	1.200633
H	-1.339061	-1.00076	1.200936
C	-0.459961	1.22743	0.640856
N	-0.846868	2.191648	1.194606
F	2.577812	0.0	0.0
