16

C	-0.20771	-0.070139	-1.523823
C	0.0	0.0	0.0
Cl	-1.948274	-0.429387	-1.95855
H	1.097428	0.0	0.0
C	0.110795	1.21796	-2.138627
N	0.368984	2.25417	-2.629168
C	0.698055	-1.154867	-2.09392
H	1.692341	-0.949299	-1.673892
H	0.348724	-2.131403	-1.753721
H	0.696283	-1.137546	-3.185025
N	-0.387532	-1.195089	0.725642
H	-1.211459	-1.634121	0.333276
H	0.396177	-1.834424	0.710197
C	-0.609866	1.188422	0.57846
N	-1.103709	2.140815	1.059615
F	2.579062	0.0	0.0
