16

C	-0.656172	-0.144146	-1.377171
C	0.0	0.0	0.0
Br	0.025388	-1.746461	-2.250725
H	1.09297	0.0	0.0
N	-2.087229	-0.175816	-1.432545
H	-2.402038	-0.949997	-0.85716
H	-2.421884	0.697979	-1.037864
N	-0.201172	1.071301	-2.194384
O	-1.066321	1.891445	-2.491813
O	0.989352	1.15774	-2.449651
C	-0.485924	-1.073517	0.850891
N	-0.918701	-1.902469	1.566867
N	-0.379132	1.323963	0.525334
H	-0.976518	1.257672	1.338784
H	0.493662	1.75884	0.804811
F	2.517541	0.0	0.0
