13
Coordinates from ORCA-job run
  C   -0.43463726697841     -0.46145369999690     -0.10365439056633
  C   0.71231446185808      0.50642264977577      0.08943123589535
  Br  -0.35898456110067     -1.82548007815426      1.29307856791044
  H   0.67573461944853      1.27981989924085     -0.68349540295731
  H   -0.29347503165552     -1.00215320987813     -1.03926227229369
  H   0.71485455261605      0.95759578847699      1.08023366891537
  C   -1.77361051422834      0.25152244511110     -0.06618683072743
  H   -1.82483788640853      0.98466147587552     -0.87714567180795
  H   -1.91539454740211      0.76866552584552      0.88481007671708
  H   -2.59089851032435     -0.45858481722671     -0.19359945251584
  N   2.03366920798660     -0.17041276020096     -0.07928089235173
  O   2.17696695324371     -0.84508466451318     -1.09535616189120
  O   2.87929852294495      0.01448144564439      0.79042752567324
