16

C	-0.275824	0.076173	-1.509053
C	0.0	0.0	0.0
Br	-2.196246	0.490863	-1.884924
H	1.099841	0.0	0.0
N	0.5304	1.132228	-2.047279
H	0.512726	1.118047	-3.060041
H	1.492235	1.000683	-1.717838
C	-0.06556	-1.229069	-2.156664
N	0.148785	-2.24946	-2.701832
C	-0.526086	-1.21773	0.597008
N	-0.961022	-2.1738	1.123935
C	-0.449102	1.24318	0.76712
H	-0.123274	2.131126	0.225743
H	0.030043	1.236181	1.748058
H	-1.532721	1.269327	0.893826
Br	3.404538	0.0	0.0
