16

C	-0.26444	0.094763	-1.512149
C	0.0	0.0	0.0
Br	-2.168477	0.581594	-1.897037
H	1.099912	0.0	0.0
N	0.58259	1.122027	-2.038481
H	0.591164	1.099526	-3.051041
H	1.533381	0.974121	-1.683017
C	-0.103936	-1.212221	-2.168745
N	0.070644	-2.235805	-2.721619
C	-0.535733	-1.218923	0.584642
N	-0.975079	-2.178028	1.102423
C	-0.441153	1.240842	0.775671
H	-0.111112	2.13012	0.238575
H	0.041313	1.225572	1.754912
H	-1.524067	1.2726	0.905588
Br	3.411727	0.0	0.0
