16

C	-0.499963	0.002409	-1.44877
C	0.0	0.0	0.0
Br	0.172006	-1.580745	-2.39206
H	1.095628	0.0	0.0
N	-1.947495	-0.052147	-1.503997
H	-2.321358	0.786696	-1.074075
H	-2.25416	-0.078919	-2.468862
C	0.041718	1.170164	-2.166654
N	0.362743	2.163501	-2.709164
C	-0.486634	-1.190699	0.69244
N	-0.866657	-2.114484	1.310733
C	-0.427726	1.263581	0.760631
H	0.06543	1.255014	1.733476
H	-1.508254	1.315181	0.924179
H	-0.085792	2.154245	0.228358
Br	3.428821	0.0	0.0
