16

C	-0.341459	-0.032888	-1.502042
C	0.0	0.0	0.0
Br	0.120893	1.800355	-2.300507
H	1.097383	0.0	0.0
N	0.380981	-1.077796	-2.098963
H	1.366127	-1.021931	-1.837459
H	0.27055	-1.109726	-3.103924
C	-1.779824	-0.142204	-1.752024
N	-2.941628	-0.218043	-1.916612
C	-0.467109	-1.258401	0.582538
N	-0.849152	-2.236377	1.110418
C	-0.54448	1.178689	0.797617
H	-0.295312	1.033346	1.850368
H	-0.079091	2.103941	0.463807
H	-1.63121	1.259375	0.703184
Br	3.425411	0.0	0.0
