16

C	-0.305518	0.051627	-1.501151
C	0.0	0.0	0.0
Br	-2.248435	0.349002	-1.851551
H	1.099912	0.0	0.0
N	0.427731	1.151	-2.063296
H	1.410388	1.047768	-1.792742
H	0.352577	1.142796	-3.073311
C	-0.030386	-1.241127	-2.148166
N	0.245206	-2.249543	-2.688005
C	-0.505244	-1.218381	0.61594
N	-0.918198	-2.17689	1.155509
C	-0.454215	1.242787	0.763992
H	0.023788	1.237936	1.745662
H	-1.537971	1.264043	0.890842
H	-0.132281	2.131967	0.223155
Br	3.425272	0.0	0.0
