16

C	-0.262741	0.193043	-1.502505
C	0.0	0.0	0.0
Br	-2.168706	0.673707	-1.860874
H	1.099688	0.0	0.0
N	0.568506	1.269769	-1.954428
H	1.525515	1.098753	-1.624816
H	0.563695	1.32844	-2.966827
C	-0.073256	-1.063698	-2.247073
N	0.094448	-2.026124	-2.903405
C	-0.526266	-1.26214	0.49465
N	-0.970523	-2.260946	0.925286
C	-0.451216	1.181736	0.856246
H	-1.533672	1.192137	0.992576
H	-0.134595	2.106979	0.375163
H	0.036222	1.110617	1.83031
Br	3.420271	0.0	0.0
