16

C	-0.295151	-0.045341	-1.515075
C	0.0	0.0	0.0
Br	0.035635	1.841203	-2.291328
H	1.102837	0.0	0.0
N	0.530281	-1.017377	-2.090767
H	1.499451	-0.901488	-1.784747
H	0.459628	-1.063561	-3.098162
C	-1.708125	-0.265726	-1.829889
N	-2.845102	-0.454131	-2.061841
C	-0.465623	-1.266231	0.567417
N	-0.884059	-2.242567	1.069858
C	-0.572784	1.172286	0.784479
H	-1.651895	1.266451	0.630441
H	-0.080773	2.097051	0.488944
H	-0.38496	1.007848	1.847456
Br	3.436682	0.0	0.0
