16

C	-0.525648	0.079781	-1.442764
C	0.0	0.0	0.0
Br	0.338151	-1.402531	-2.503167
H	1.094156	0.0	0.0
N	-1.950036	0.01241	-1.483728
H	-2.285496	0.046691	-2.43879
H	-2.26388	-0.852186	-1.054707
C	-0.092243	1.316045	-2.096802
N	0.180112	2.324328	-2.636514
C	-0.505997	-1.22875	0.602939
N	-0.999848	-2.176512	1.091845
C	-0.444737	1.215785	0.823939
H	-1.531018	1.304756	0.86687
H	-0.018753	2.1204	0.386228
H	-0.040996	1.115548	1.832975
Br	3.434016	0.0	0.0
