16

C	-0.288958	-0.113397	-1.515062
C	0.0	0.0	0.0
Br	-0.032507	1.75883	-2.362812
H	1.108889	0.0	0.0
N	0.573529	-1.071613	-2.050456
H	0.509249	-1.169309	-3.054118
H	1.536676	-0.92216	-1.739371
C	-1.693159	-0.39628	-1.821694
N	-2.823647	-0.637451	-2.035273
C	-0.468912	-1.240485	0.617031
N	-0.903475	-2.190166	1.155901
C	-0.575893	1.20507	0.731649
H	-1.646574	1.315521	0.537593
H	-0.427627	1.069538	1.804526
H	-0.05739	2.110881	0.424663
Br	3.444111	0.0	0.0
