16

C	-0.530408	-0.058177	-1.441301
C	0.0	0.0	0.0
Br	0.364977	-1.603274	-2.376237
H	1.107702	0.0	0.0
N	-1.954005	-0.163386	-1.469263
H	-2.244124	-0.997463	-0.968897
H	-2.29208	-0.217433	-2.422653
C	-0.134342	1.130068	-2.200257
N	0.093804	2.10024	-2.82279
C	-0.488179	-1.175655	0.714277
N	-0.949516	-2.090605	1.29048
C	-0.450362	1.281323	0.712119
H	-0.052311	1.271782	1.728721
H	-0.025145	2.146215	0.199463
H	-1.537542	1.370181	0.741489
Br	3.432942	0.0	0.0
