15

C	-0.528645	0.034523	-1.422421
C	0.0	0.0	0.0
F	-1.89174	0.174417	-1.414142
H	1.089556	0.0	0.0
H	-0.076001	0.815937	-2.026243
N	-0.223693	-1.277265	-2.09341
O	0.831482	-1.332566	-2.712274
O	-1.040274	-2.184675	-1.955277
N	-0.481469	-1.05378	0.799738
H	-1.334661	-1.481038	0.476834
H	0.240991	-1.727967	0.991511
N	-0.408632	1.370933	0.563739
O	-0.084204	2.338055	-0.124193
O	-1.003196	1.424685	1.630884
Br	3.39137	0.0	0.0
