15

C	-0.605372	-0.060927	-1.386998
C	0.0	0.0	0.0
F	-0.167714	-1.179729	-2.025252
H	1.089558	0.0	0.0
H	-1.696096	-0.061095	-1.378661
N	-0.211473	1.093804	-2.271637
O	-0.904556	1.228675	-3.279588
O	0.766152	1.762127	-1.963988
N	-0.406945	-1.150944	0.747754
H	0.290327	-1.348629	1.45239
H	-1.316522	-1.041698	1.17776
N	-0.463857	1.273001	0.672368
O	-0.08854	1.452306	1.825636
O	-1.239406	2.013247	0.055992
Br	3.418508	0.0	0.0
