15

C	-0.581895	0.04911	-1.394498
C	0.0	0.0	0.0
F	-1.935483	0.239714	-1.327426
H	1.090465	0.0	0.0
H	-0.132585	0.818927	-2.016169
N	-0.33269	-1.271589	-2.073169
O	-1.272173	-2.049685	-2.181441
O	0.81629	-1.439731	-2.458601
N	-0.480779	-1.111799	0.723563
H	-1.451606	-1.012202	0.988729
H	0.090863	-1.271886	1.541489
N	-0.377974	1.358105	0.616478
O	-0.888523	1.357544	1.734259
O	-0.123169	2.357584	-0.048517
Br	3.424196	0.0	0.0
