15

C	-0.475075	-0.032202	-1.438024
C	0.0	0.0	0.0
F	-0.320432	1.120073	-2.135155
H	1.094213	0.0	0.0
H	0.022377	-0.852524	-1.952238
N	-1.951923	-0.348836	-1.483961
O	-2.318076	-1.270101	-2.209781
O	-2.682761	0.370426	-0.803929
N	-0.456232	-1.196499	0.630192
H	0.230622	-1.490985	1.312067
H	-1.336282	-1.030733	1.103015
N	-0.431302	1.264963	0.719087
O	-1.112933	1.140245	1.736518
O	-0.041949	2.327792	0.251564
Br	3.392664	0.0	0.0
