17

C	-0.50604	0.020355	-1.435829
C	0.0	0.0	0.0
Cl	0.016594	1.492995	-2.322585
H	1.09069	0.0	0.0
H	0.021596	-0.800416	-1.930512
C	-2.010264	-0.123733	-1.597449
H	-2.352176	-1.065856	-1.163981
H	-2.280861	-0.110727	-2.655613
H	-2.530092	0.694225	-1.095906
C	-0.391322	-1.283446	0.711966
H	-1.463864	-1.412294	0.850439
H	0.093603	-1.291694	1.690948
H	0.021045	-2.123783	0.146477
N	-0.510203	1.171774	0.750914
O	-1.54043	1.035398	1.431465
O	0.11324	2.228231	0.658671
H	2.770267	0.0	0.0
