17

C	-0.500399	0.061242	-1.444663
C	0.0	0.0	0.0
Cl	-0.211088	-1.527984	-2.242166
H	1.091398	0.0	0.0
H	-1.587933	0.182192	-1.457964
C	0.208678	1.140912	-2.236181
H	1.285972	1.008871	-2.120761
H	-0.073659	1.091017	-3.290534
H	-0.056251	2.125418	-1.848082
C	-0.530555	-1.164304	0.809096
H	-0.31249	-0.998163	1.865278
H	-0.00049	-2.065024	0.500776
H	-1.605881	-1.307796	0.689022
N	-0.478615	1.278012	0.614047
O	-1.640733	1.307174	1.045097
O	0.285132	2.241908	0.633649
H	2.8797	0.0	0.0
