18
Coordinates from ORCA-job run
  C   -0.49642622132261      0.14011924407512     -0.24726352703723
  C   0.95111720927504     -0.08718739033312      0.23582126219611
  F   -0.46331553191455      0.09582184285305     -1.65009422975715
  H   1.01568201872666      0.14037264311354      1.30053233840511
  C   -1.46633700255213     -0.92554701288275      0.21609632539623
  H   -2.47486722991161     -0.66151927788561     -0.10734086790638
  H   -1.20965710460986     -1.89082228383314     -0.22178911783060
  H   -1.45571183682291     -1.02289409176673      1.30332967516296
  C   -0.94182410515033      1.53667582549511      0.13987709497426
  H   -0.23225007608089      2.28280542158782     -0.22123223135540
  H   -1.91272286457015      1.74349812872856     -0.31360249190079
  H   -1.03663400719265      1.62847744340415      1.22435621659451
  N   1.96191638946464      0.60937657576192     -0.49063404587289
  H   1.71299679510379      0.70173645500781     -1.46539730464120
  H   2.16928013549085      1.50835630747377     -0.08417607489760
  N   1.24095125689988     -1.56704049805336      0.15108244226979
  O   1.52287732197560     -2.01267143162124     -0.95513108759041
  O   1.11492485319122     -2.21955790112489      1.18656562379070
