18
Coordinates from ORCA-job run
  C   -0.47042707393756      0.39964135800730     -0.29736573285968
  C   1.02140554281167      0.11535480672689     -0.04465410658791
  F   -0.45346229211007      1.20484758236965     -1.45859700865494
  H   1.50886029650978      1.05254089250999      0.24615374191532
  C   -1.26776633002685     -0.84384446461697     -0.62633894687991
  H   -2.25937412191055     -0.53985029498114     -0.96756171392000
  H   -1.37773139140518     -1.48082004971021      0.25154011862020
  H   -0.78033564493847     -1.42650207609154     -1.40679478944337
  C   -1.09509533527360      1.22785316739735      0.80331428627861
  H   -2.10192504714687      1.51809852525168      0.49709808825760
  H   -0.51055336157164      2.13173397885909      0.98339251216653
  H   -1.16139605957676      0.66720452810075      1.73596797561897
  N   1.60218040490473     -0.57295125814673     -1.15170559430785
  H   1.26339488866211     -0.16155687621876     -2.01144260834613
  H   2.61146422513159     -0.50766429615443     -1.13529385554975
  N   1.13577081328377     -0.73218240112244      1.21165352082871
  O   1.28890044081086     -0.10415302909892      2.26016791476722
  O   1.04709004578304     -1.94975009308155      1.11146619809637
