18
Coordinates from ORCA-job run
  C   -0.54956856127855      0.19355397423558      0.35070759203491
  C   0.98901153465759      0.12411868685555      0.31547016941659
  F   -0.89329645263265      0.22809642762546      1.70917778130725
  H   1.36891732509009      0.94025385566946      0.93206042971924
  C   -1.00228680650134      1.50788528966856     -0.25752951557592
  H   -0.46900836027136      2.34737520503121      0.19541032717399
  H   -2.06839802753264      1.63830907510064     -0.06324117997056
  H   -0.84559063435045      1.52392525847929     -1.33721543878945
  C   -1.25950522101409     -0.99561268185395     -0.26239911562747
  H   -0.98176769128182     -1.13494879095952     -1.30901978080714
  H   -2.33666835970741     -0.82322043201013     -0.21674580538498
  H   -1.03093214142581     -1.91089118749592      0.28144752075294
  N   1.63067283812730      0.14100443755726     -0.96486413389712
  H   1.22758109238589     -0.52935721303540     -1.60399028650693
  H   1.62638550241541      1.06654530043140     -1.36731601244361
  N   1.43078384433459     -1.12660720985783      1.02672539322830
  O   1.41967860373752     -2.16081083762089      0.36172613146249
  O   1.74399151524772     -1.02961915782079      2.20859592390747
