18
Coordinates from ORCA-job run
  C   -0.53764542165412      0.43885985611623     -0.32840528541673
  C   0.98813862924993      0.27608106980972     -0.18126864302080
  F   -0.67790594125878      1.38780120398734     -1.34958247384534
  H   1.42474683153395      1.27388858767733     -0.12738744283532
  C   -1.22662117447339     -0.82633864101478     -0.79192042745717
  H   -0.85537673196773     -1.10855147889264     -1.77721943764855
  H   -1.06125225886728     -1.64443215429393     -0.08850529028836
  H   -2.29955210724568     -0.64288243907484     -0.87144392869673
  C   -1.17469195998461      1.03081400321999      0.91322577440260
  H   -1.20077225988267      0.31256276693851      1.73426487132456
  H   -2.19985021097083      1.31511088531812      0.66988730307002
  H   -0.63617169012003      1.92015223974200      1.24462749357349
  N   1.56982875211264     -0.47062431616731     -1.23768898118542
  H   2.57604802048260     -0.36909272402428     -1.24877562443004
  H   1.33812133899644     -1.45238890493619     -1.15751602323626
  N   1.26402893307910     -0.32949989855471      1.19508858937184
  O   1.54181400670847      0.44080856463726      2.11088691236618
  O   1.16811324426198     -1.55326862048784      1.29073261395202
