18
Coordinates from ORCA-job run
  C   -0.57522716852102      0.19816383839560      0.36721905148908
  C   0.94669382280621      0.19324906616820      0.16148195121704
  F   -0.77760323061459      0.07237675794027      1.74736729467092
  H   1.37121196692026      1.07630541657152      0.64143955532595
  C   -1.12985105712435      1.54217518667086     -0.05759863015926
  H   -0.92716586361264      1.72295272779640     -1.11294251977978
  H   -0.67340538983772      2.33829011024270      0.53472763193446
  H   -2.20789402212784      1.56257585255664      0.11413356597528
  C   -1.28877934741126     -0.95877329213495     -0.30163548041194
  H   -1.21631946239438     -0.88828862566315     -1.38832206072920
  H   -0.88395836370094     -1.91604986016028      0.02603410635914
  H   -2.34456466333139     -0.91620302223868     -0.02785716772554
  N   1.28666679966629      0.14574553131421     -1.21958748139164
  H   2.26729104418897      0.35360736877562     -1.35782333958216
  H   1.10126843527832     -0.77857176885229     -1.59010202101971
  N   1.53896911974057     -0.96482220858188      0.96305732422001
  O   1.53364861297075     -2.07034191639281      0.42070712498267
  O   1.98001876710473     -0.71239116240802      2.07870109462465
