18
Coordinates from ORCA-job run
  C   -0.55660237639032      0.13727141281661     -0.23075029207933
  C   0.91601605907409      0.05614686497402      0.20252159376838
  F   -0.57110225028661     -0.08839674387378     -1.61750863486722
  H   1.01201701999076      0.37677403345946      1.24143431799748
  C   -1.43614254161357     -0.91962752956033      0.40210705474741
  H   -1.37463973664587     -0.88523278271618      1.49114364270686
  H   -1.14423300649134     -1.91603984185199      0.06913788147702
  H   -2.47030658188993     -0.74778038879937      0.09881311366204
  C   -1.07239775366497      1.54263213820507      0.00444412777363
  H   -1.12808610945317      1.75709940909166      1.07432690118574
  H   -2.07405277340208      1.63156054790129     -0.42042501373270
  H   -0.41369488931367      2.26825753406706     -0.47074049417510
  N   1.73396196761275      0.82933422264573     -0.65746768122699
  H   2.70261222344238      0.81313444827147     -0.36862398392196
  H   1.65704066567057      0.48663328329138     -1.60615688163094
  N   1.31878211775420     -1.41998350717072      0.25100262529282
  O   1.20097861144785     -1.99194176377039      1.33323567186219
  O   1.70184935415890     -1.93184133698097     -0.79749394883932
