18
Coordinates from ORCA-job run
  C   -0.54607529927268      0.13788114259821     -0.25479387108794
  C   0.90794226932877      0.05277576850994      0.23666636322928
  F   -0.50913489223033     -0.11261621821809     -1.63669801574511
  H   0.96629613586439      0.39265216902334      1.27228930585470
  C   -1.45771613027538     -0.90083274070954      0.36268392986003
  H   -1.43625506624648     -0.84842748663608      1.45251745248750
  H   -1.16214472334466     -1.90506102656273      0.05741829777796
  H   -2.47842527417444     -0.72607166616415      0.01826145524933
  C   -1.05890533616660      1.55108821291169     -0.06430320371641
  H   -0.37424025519608      2.26382013897885     -0.52199485469776
  H   -2.04045551306970      1.64077997669694     -0.53361144904665
  H   -1.15914371164743      1.78292496358992      0.99868546237108
  N   1.76556219865931      0.80298163893078     -0.60507317190333
  H   1.72287534792318      0.44266993221472     -1.54938598604883
  H   2.72204093172640      0.78415405044297     -0.27809038204150
  N   1.29496926464316     -1.42505981548607      0.32770162026571
  O   1.71143343392548     -1.95992228855299     -0.69633973647610
  O   1.13137661955305     -1.97573675156766      1.41506678366801
