18
Coordinates from ORCA-job run
  C   -0.50342466071071      0.08350901546716     -0.25891767596365
  C   0.95619846085767     -0.01804140075920      0.23106580641883
  F   -0.48457227637805     -0.18785295533913     -1.63618428619779
  H   1.02611391202273      0.38471007915854      1.24223202359929
  C   -1.43292942652967     -0.92122812952034      0.38728205158656
  H   -2.45363387296354     -0.74306863922138      0.04397977056807
  H   -1.15080941020458     -1.93640832821015      0.10573328461741
  H   -1.40488419925388     -0.84152742239657      1.47564130474723
  C   -0.98968258380621      1.51033736470787     -0.09636287233386
  H   -1.08188975663697      1.77215360483504      0.96022493078294
  H   -1.96885457928135      1.61211440424294     -0.56751540180138
  H   -0.30590333949774      2.20991876392882     -0.57979102037865
  N   1.93625311083945      0.57786623662807     -0.61732095800242
  H   2.11688362735240      1.53852729691137     -0.37023221987177
  H   1.67316043701740      0.49830810160300     -1.58958349386140
  N   1.29228032797820     -1.48233573727285      0.38701947401069
  O   1.20061256300203     -1.95786205978506      1.51803424902008
  O   1.57508166619284     -2.09612019497808     -0.63530496694019
