18
Coordinates from ORCA-job run
  C   -0.53615306684718      0.44012478988879     -0.32793385789238
  C   0.98953808713686      0.27780818346152     -0.17331129472129
  F   -0.67154944698374      1.39416474031951     -1.34477307296540
  H   1.42441397027932      1.27584510446514     -0.11074941624390
  C   -1.22101032261306     -0.82293721031945     -0.80269913917815
  H   -0.84152846854464     -1.10113645077479     -1.78603666791743
  H   -2.29316770008736     -0.63866169118741     -0.89060644209124
  H   -1.06191667137021     -1.64427202121870     -0.10161031669554
  C   -1.18222475321532      1.02495233543810      0.91267233940868
  H   -2.20668862234672      1.30798492937614      0.66467640193328
  H   -1.21168861299074      0.30355063682957      1.73064045299096
  H   -0.64767549999355      1.91403051629358      1.25086676378273
  N   1.57704585410109     -0.46063658677486     -1.23236546738925
  H   2.58308871229996     -0.35675633374090     -1.23846739617755
  H   1.34742419445865     -1.44343885489933     -1.15916762126304
  N   1.26019386494570     -0.33723740188318      1.19939680581828
  O   1.15911836042300     -1.56116279654107      1.28747118683435
  O   1.53278012134790      0.42677811126738      2.12199674176697
