18
Coordinates from ORCA-job run
  C   -0.45704140407682      0.41208246889904     -0.29271324301738
  C   1.05237692915585      0.22276614739827     -0.01664006102788
  F   -0.45182351469799      1.27141296766095     -1.41161847459991
  H   1.46711153649036      1.20810546941400      0.20185155981791
  C   -1.17540345507592     -0.85157083823986     -0.70874500549271
  H   -2.20493070180828     -0.60345103578920     -0.97342196751579
  H   -1.18541028291711     -1.58741005313650      0.09584617613899
  H   -0.70274084080464     -1.29503491149799     -1.58587743939309
  C   -1.15852356227953      1.14368580584304      0.83121545929245
  H   -1.26098756113515      0.51237377971248      1.71503328021048
  H   -2.15511865419058      1.43748773042827      0.49590375747126
  H   -0.60679701899520      2.04265903195748      1.11223758622432
  N   1.84006914664219     -0.40623524921866     -1.03711041267944
  H   1.77824736625262      0.14323906948305     -1.88473468440164
  H   1.50834536084734     -1.34455160914131     -1.21967146226611
  N   1.21050893521299     -0.56889237994626      1.24528877539474
  O   1.17090429617383     -1.79339038282259      1.13817780678921
  O   1.33021342520599      0.05672398899580      2.29597834905460
