18
Coordinates from ORCA-job run
  C   -0.45672960197127      0.41284400240104     -0.29177422768361
  C   1.05329246714577      0.21810669040820     -0.02286506081939
  F   -0.45377936086898      1.26867669269539     -1.41332350908779
  H   1.47313038463492      1.20250504880487      0.19002655483419
  C   -1.18272101018817     -0.84897493387863     -0.70000468479534
  H   -2.21197241215609     -0.59675231751491     -0.96191918041996
  H   -0.71563202948673     -1.29843403381322     -1.57706833506541
  H   -1.19343792536479     -1.58134812513017      0.10770483975248
  C   -1.14899538111328      1.15099767519324      0.83359847202198
  H   -0.59248090844745      2.04919075215187      1.10764074445627
  H   -2.14659939128251      1.44693724879397      0.50319085559550
  H   -1.24818657759350      0.52353347372517      1.72052721948469
  N   1.83331270759457     -0.41743942494635     -1.04510254502543
  H   1.49591745883127     -1.35429741182311     -1.22454116084172
  H   1.77169948163380      0.13075835674984     -1.89354222431114
  N   1.21456545661728     -0.57004808547698      1.24081442791198
  O   1.34261713252433      0.05838456786439      2.28880949819607
  O   1.16799950949082     -1.79464017620462      1.13782831579663
