18

C	-0.455294	-0.010648	-1.440818
C	0.0	0.0	0.0
F	0.232614	0.89064	-2.192698
H	1.094196	0.0	0.0
C	-0.297049	-1.373204	-2.070968
H	0.747285	-1.666191	-1.941927
H	-0.934393	-2.101647	-1.576044
H	-0.535547	-1.293043	-3.134401
N	-1.931715	0.378474	-1.561798
O	-2.290836	0.994634	-2.557408
O	-2.672029	-0.029957	-0.668175
N	-0.32826	-1.183216	0.727257
H	0.416331	-1.342969	1.400333
H	-1.210183	-1.07854	1.2127
N	-0.412896	1.24379	0.680153
O	-0.647895	2.244829	-0.012022
O	-0.413873	1.235266	1.917384
H	2.549532	0.0	0.0
