18

C	-0.374755	-0.039419	-1.475371
C	0.0	0.0	0.0
F	-0.07127	1.173003	-2.024307
H	1.091172	0.0	0.0
C	0.382127	-1.125553	-2.189814
H	0.211558	-1.041374	-3.266121
H	1.440255	-0.980323	-1.947376
H	0.061562	-2.10528	-1.842073
N	-1.870511	-0.23346	-1.723507
O	-2.492489	0.629932	-2.325498
O	-2.339927	-1.298335	-1.318936
N	-0.393988	-1.094296	0.822758
H	-1.184392	-1.611922	0.470054
H	0.413948	-1.68367	0.98468
N	-0.568001	1.264766	0.579047
O	0.189296	2.068795	1.110975
O	-1.795201	1.387345	0.503838
H	2.75241	0.0	0.0
