18

C	-0.575614	-0.001233	-1.422472
C	0.0	0.0	0.0
F	-0.209553	-1.188649	-2.000364
H	1.091152	0.0	0.0
C	-2.077423	0.133745	-1.528333
H	-2.414584	1.090965	-1.140635
H	-2.372861	0.042777	-2.576348
H	-2.552835	-0.668221	-0.960718
N	0.062219	1.086022	-2.281252
O	1.045584	0.781732	-2.93963
O	-0.482434	2.189124	-2.251661
N	-0.338257	-1.164538	0.745752
H	0.458953	-1.788846	0.702294
H	-1.186625	-1.632145	0.463853
N	-0.499731	1.227786	0.689763
O	-1.494048	1.13596	1.417009
O	0.118078	2.270933	0.470455
H	2.665701	0.0	0.0
