18

C	-0.452111	-0.029583	-1.451115
C	0.0	0.0	0.0
F	0.004453	1.051471	-2.136394
H	1.09183	0.0	0.0
C	-0.001335	-1.288205	-2.139713
H	1.084817	-1.333993	-2.015719
H	-0.45625	-2.157951	-1.677049
H	-0.257722	-1.231534	-3.201191
N	-1.982974	0.083805	-1.502449
O	-2.622181	-0.932428	-1.225916
O	-2.468635	1.180046	-1.764911
N	-0.399216	-1.164613	0.712084
H	0.296045	-1.326049	1.430293
H	-1.309665	-1.050081	1.138594
N	-0.460539	1.276499	0.645368
O	-1.273619	1.19394	1.57971
O	0.025116	2.32968	0.233361
H	2.62764	0.0	0.0
