18

C	-0.515927	0.171241	-1.426308
C	0.0	0.0	0.0
F	-1.813612	0.639862	-1.428928
H	1.088846	0.0	0.0
C	0.347959	1.004205	-2.333947
H	1.387376	0.699822	-2.197835
H	0.034126	0.872435	-3.372606
H	0.246469	2.046856	-2.042707
N	-0.590309	-1.23705	-2.006998
O	0.48221	-1.746741	-2.304019
O	-1.695316	-1.747722	-2.13853
N	-0.427859	-1.209688	0.614529
H	-1.292732	-1.080174	1.121993
H	0.294855	-1.493467	1.266527
N	-0.355164	1.216271	0.780244
O	-0.08725	2.313279	0.28151
O	-0.803781	1.067959	1.923947
H	2.588642	0.0	0.0
