18

C	-0.455015	-0.010355	-1.43973
C	0.0	0.0	0.0
F	0.211496	0.913279	-2.184489
H	1.094193	0.0	0.0
C	-0.260588	-1.362873	-2.080937
H	-0.499497	-1.282936	-3.144407
H	0.791368	-1.627988	-1.951753
H	-0.877711	-2.11286	-1.593057
N	-1.940168	0.346975	-1.563614
O	-2.672375	-0.06786	-0.666872
O	-2.311792	0.945035	-2.5656
N	-0.326767	-1.186259	0.724444
H	0.4131	-1.337163	1.402418
H	-1.210977	-1.086093	1.205496
N	-0.417629	1.237694	0.682384
O	-0.669329	2.236414	-0.003964
O	-0.407081	1.227823	1.918752
H	2.545097	0.0	0.0
