17

C	-0.322895	0.085204	-1.495157
C	0.0	0.0	0.0
Cl	-2.067564	0.555998	-1.780567
H	1.092563	0.0	0.0
C	0.623325	1.009818	-2.252086
H	0.556342	0.825281	-3.325196
H	1.621193	0.780992	-1.858708
H	0.388516	2.048376	-2.034366
C	-0.185917	-1.266894	-2.046584
N	-0.048321	-2.296808	-2.593967
N	-0.533905	-1.163511	0.612385
H	-1.465136	-0.999117	0.973405
H	0.068187	-1.434251	1.378124
N	-0.427301	1.269526	0.691924
O	-1.0881	1.165495	1.729127
O	-0.071313	2.343899	0.214066
F	2.562511	0.0	0.0
