17

C	-0.551346	0.098954	-1.434978
C	0.0	0.0	0.0
Cl	0.003513	-1.389558	-2.29522
H	1.099457	0.0	0.0
C	-2.073849	0.116218	-1.481272
H	-2.443589	1.041364	-1.033945
H	-2.429148	0.053283	-2.511225
H	-2.434584	-0.746936	-0.919679
C	0.005449	1.213141	-2.206885
N	0.416145	2.060573	-2.909298
N	-0.430171	-1.224195	0.635353
H	-0.941468	-0.996363	1.478985
H	0.420366	-1.696576	0.92397
N	-0.43708	1.180031	0.775954
O	-0.544872	2.259556	0.186655
O	-0.629635	1.048591	1.989873
F	2.498267	0.0	0.0
