17

C	-0.486165	0.030714	-1.475373
C	0.0	0.0	0.0
Cl	0.040405	-1.515747	-2.2367
H	1.090085	0.0	0.0
C	-2.000566	0.131688	-1.628322
H	-2.279471	0.045505	-2.679675
H	-2.350891	1.090878	-1.242833
H	-2.489415	-0.669935	-1.071333
C	0.148018	1.112932	-2.234659
N	0.560191	2.001302	-2.884621
N	-0.399665	-1.13218	0.763681
H	0.372181	-1.783699	0.755468
H	-1.255489	-1.583431	0.474476
N	-0.566087	1.248634	0.613816
O	-1.561023	1.156347	1.338984
O	-0.027161	2.313764	0.308368
F	2.534965	0.0	0.0
