17

C	-0.559398	0.124944	-1.430802
C	0.0	0.0	0.0
Cl	-0.003097	-1.342075	-2.32424
H	1.089676	0.0	0.0
C	-2.082239	0.134026	-1.462327
H	-2.433855	-0.74342	-0.916991
H	-2.447123	0.09436	-2.489621
H	-2.452774	1.047433	-0.989864
C	-0.025517	1.25902	-2.19029
N	0.316839	2.118778	-2.916036
N	-0.43438	-1.229338	0.617038
H	-0.984049	-1.016732	1.439872
H	0.411027	-1.694203	0.927996
N	-0.434582	1.17562	0.79374
O	-0.469336	2.273394	0.231262
O	-0.698296	1.016921	1.991309
F	2.502598	0.0	0.0
