17

C	-0.550046	0.128176	-1.433227
C	0.0	0.0	0.0
Cl	0.002827	-1.344377	-2.319739
H	1.099429	0.0	0.0
C	-2.071986	0.150615	-1.478839
H	-2.43704	-0.723954	-0.937665
H	-2.427547	0.113974	-2.510139
H	-2.438621	1.066799	-1.010317
C	0.006118	1.257277	-2.184585
N	0.391586	2.110026	-2.895387
N	-0.440263	-1.228132	0.617921
H	0.403357	-1.700845	0.923621
H	-0.977054	-1.00999	1.447691
N	-0.431038	1.17515	0.79296
O	-0.518727	2.26499	0.220283
O	-0.638799	1.025695	2.002315
F	2.499152	0.0	0.0
