15

C	0.0	0.0	0.0
C	-0.480374	-0.451526	-1.381728
Cl	1.798674	0.0	0.0
H	0.043182	0.152889	-2.127981
H	-1.546658	-0.212714	-1.419744
C	-0.323085	1.436687	0.180198
N	-0.524908	2.584913	0.327396
N	-0.52605	-0.848287	1.024858
H	-1.547094	-0.823694	0.897049
H	-0.324985	-0.448634	1.935427
C	-0.269453	-1.938878	-1.628708
H	0.772018	-2.231415	-1.476947
H	-0.894196	-2.52589	-0.958334
H	-0.551068	-2.180546	-2.657136
Cl	-3.605555	0.0	0.0
