15

C	0.0	0.0	0.0
C	-0.45861	0.052569	-1.461177
Cl	1.802209	0.0	0.0
H	-1.547184	-0.045625	-1.414558
H	-0.048165	-0.842443	-1.944989
C	-0.364312	1.242329	0.705827
N	-0.579793	2.246618	1.274364
N	-0.497633	-1.122399	0.749183
H	-0.349893	-1.955439	0.185963
H	-1.514498	-0.976758	0.803849
C	-0.076074	1.310234	-2.227935
H	-0.464397	1.251173	-3.248449
H	-0.51884	2.191696	-1.758522
H	1.006061	1.449288	-2.280798
Cl	-3.579758	0.0	0.0
