15

C	0.0	0.0	0.0
C	-0.480743	-0.414949	-1.391414
Cl	1.798556	0.0	0.0
H	-1.549969	-0.187876	-1.417868
H	0.029848	0.218751	-2.122068
C	-0.320272	1.431561	0.222352
N	-0.507237	2.577435	0.405202
N	-0.523725	-0.877413	1.002055
H	-0.317559	-0.504821	1.922873
H	-1.545196	-0.851153	0.877067
C	-0.254593	-1.890907	-1.687254
H	-0.857414	-2.507958	-1.02323
H	-0.554811	-2.103122	-2.717931
H	0.793369	-2.173961	-1.56657
Cl	-3.600136	0.0	0.0
