16

C	0.0	0.0	0.0
C	-0.472495	-0.044303	-1.473664
F	1.322903	0.0	0.0
H	0.458928	0.209033	-1.994682
N	-0.358894	1.328993	0.67571
O	-0.877058	1.352829	1.776576
O	0.044178	2.28628	0.020653
N	-0.325131	-1.149332	0.980885
O	0.304743	-1.048384	2.030095
O	-1.05111	-2.072225	0.663215
C	-1.401846	1.023902	-1.897695
N	-1.894299	1.873214	-2.547025
N	-0.842334	-1.383174	-1.895141
H	-0.950819	-1.352542	-2.902785
H	-1.75573	-1.568565	-1.486004
Cl	-3.197566	0.0	0.0
