16

C	0.0	0.0	0.0
C	-0.478792	0.134059	-1.472598
F	1.353531	0.0	0.0
H	-1.226676	0.924948	-1.473467
N	-0.3408	1.290482	0.758494
O	-0.085183	2.285389	0.076593
O	-0.656981	1.285544	1.929668
N	-0.319852	-1.28227	0.764932
O	-0.516052	-2.27432	0.079149
O	-0.135815	-1.261042	1.972889
C	-1.119734	-1.037283	-2.081139
N	-1.548988	-1.85232	-2.807298
N	0.696084	0.424021	-2.314599
H	1.082721	1.316695	-2.028228
H	0.352385	0.524297	-3.261449
Cl	-2.986931	0.0	0.0
