15
Coordinates from ORCA-job run
  C   -0.60886581523048     -0.24502402410199      0.25039665494818
  C   0.68490230461213     -0.39310463305589     -0.51287374799540
  H   -0.59676229590813     -0.73127774210757      1.22590585708727
  H   0.82765275399239     -1.46151449998584     -0.68832733443110
  H   0.57170795608363      0.09879801043359     -1.48156675893653
  N   -1.75639829159066     -0.86862008332686     -0.50994360214375
  O   -2.68041856841513     -0.15209488261380     -0.87128750786802
  O   -1.64104292315332     -2.07437498523477     -0.69339568815117
  N   -0.96406322950818      1.18830535072297      0.49491973336385
  O   -1.49439949308823      1.43548256635296      1.57540615197225
  O   -0.71324602322769      1.98950995737755     -0.39901922346035
  C   1.86252093933267      0.19313944467864      0.25963357034685
  H   2.79334010420113      0.00351784499260     -0.27722763334827
  H   1.76272196850174      1.27335118967457      0.37583051804600
  H   1.95235061339814     -0.25709351380617      1.25154901057018
