15
Coordinates from ORCA-job run
  C   -0.61926505175595      0.06831772223067     -0.32439640866313
  C   0.66810540805628     -0.66275145801337     -0.03017613305897
  H   -0.62968020237429      0.55627276967119     -1.29907512620776
  H   0.57776243411749     -1.13936403952037      0.94851031702667
  H   0.76489243710583     -1.44764933702695     -0.78332194410685
  N   -0.91265501398961      1.13263497288496      0.68631339392000
  O   -0.62609967911969      0.89240377419804      1.85427736402685
  O   -1.43351048369545      2.15799092708647      0.25369250510090
  N   -1.79144037830996     -0.88552384590192     -0.32525168742375
  O   -2.68312396674052     -0.72172766470001      0.49685658293194
  O   -1.72791881947397     -1.75855485449188     -1.18233319520003
  C   1.86871134833967      0.27766667370087     -0.06753964683457
  H   1.93746075526238      0.79843273764775     -1.02605475405522
  H   1.81543938756073      1.02119332092325      0.72910886035575
  H   2.79132182501706     -0.28834169868869      0.07038987218815
