15
Coordinates from ORCA-job run
  C   -0.81378115889122      0.14498600697500     -0.37657201442567
  C   0.60674371078913      0.02576804245964     -0.88823359271773
  H   -1.51376814032941      0.51561373720161     -1.12474021304556
  H   0.79501741299067      0.92422635578762     -1.48287630229126
  H   0.63394684056662     -0.82739684965782     -1.57037984166395
  N   -0.85484785437591      1.12711582773770      0.76044731391443
  O   -0.80484263312971      2.30330903778310      0.41839323431302
  O   -0.85105735005511      0.68845322518867      1.90349057937754
  N   -1.40854847710959     -1.13944936599741      0.13048840402306
  O   -2.60292115861485     -1.07865834202368      0.40436810289609
  O   -0.68600163577290     -2.12635208297696      0.22102103073604
  C   1.66592034365945     -0.11545631353850      0.20110977300885
  H   1.73011351454379      0.78794276846632      0.81097399886020
  H   2.64273052075756     -0.26875794683477     -0.26083947883207
  H   1.46029606497148     -0.96334410057050      0.85234900584702
