15
Coordinates from ORCA-job run
  C   -0.65808334058797     -0.01576929908179     -0.24932360470413
  C   0.72100907768576     -0.60298198102902     -0.07154766167278
  H   -0.83307460747816      0.38981219629583     -1.24602098157419
  H   0.80639064878461     -1.43040519994974     -0.77894366905559
  H   0.79389955141709     -1.01078579546983      0.93915299161619
  N   -0.92533429770607      1.09750080012951      0.71473431161085
  O   -0.50464741946412      0.95999775220166      1.85841665108255
  O   -1.55731861392390      2.05467916446521      0.27416802134026
  N   -1.72509558368176     -1.06401998318306     -0.03434018811763
  O   -1.65771672808279     -2.01625661112455     -0.80212816435739
  O   -2.55222457653297     -0.88707054491453      0.85023940794545
  C   1.80932011992187      0.43740783065643     -0.31762583528645
  H   1.77660395326937      1.23158475122438      0.42984333829594
  H   2.79314737369516     -0.03079617868844     -0.25889783120506
  H   1.71312444268390      0.88810309846795     -1.30872678591801
