15
Coordinates from ORCA-job run
  C   -0.51639605170276      0.38025743126441      0.32893656598066
  C   0.71867155976899      0.34075818889035     -0.53367147616838
  H   -0.34758955058146      0.75716922891898      1.33775058016619
  H   1.09954114866505      1.36153218498504     -0.61176997936019
  H   0.42367076030946      0.02830923115701     -1.53730163757808
  N   -1.07615886837831     -1.00134371691500      0.47914557671605
  O   -1.54049886094079     -1.50711348723659     -0.53720962100291
  O   -0.96869836017402     -1.52469560927845      1.58339548385676
  N   -1.63182939835714      1.21478175099878     -0.25069960683867
  O   -1.39974914559735      1.86736528656929     -1.26151284409238
  O   -2.68616949879827      1.17835033465793      0.37463975226744
  C   1.77463797700957     -0.59503175679396      0.04993628046369
  H   2.01555580808878     -0.33688826184032      1.08386193390579
  H   1.44371208488055     -1.63503930749745      0.02987868402172
  H   2.69230039580769     -0.52941149788003     -0.53637969233772
