16

C	0.0	0.0	0.0
C	-0.660465	0.386379	-1.339379
Cl	1.76457	0.0	0.0
H	0.098495	0.169547	-2.099629
H	-0.328888	-1.003383	0.254073
N	-0.456345	0.862774	1.156146
O	-1.327239	0.372092	1.868379
O	0.044588	1.976227	1.284184
C	-1.041692	1.864149	-1.431204
H	-1.855066	2.086412	-0.736874
H	-1.414683	2.059396	-2.440098
H	-0.198475	2.529008	-1.230502
N	-1.750023	-0.552713	-1.534047
H	-2.037137	-0.586733	-2.501491
H	-2.584082	-0.315432	-0.98267
Cl	-4.614245	0.0	0.0
