16

C	0.0	0.0	0.0
C	-0.597141	-0.177183	-1.387742
Cl	1.766919	0.0	0.0
H	-0.060417	0.50327	-2.055576
H	-0.342323	-0.771118	0.685491
N	-0.40457	1.317062	0.610901
O	-0.248774	2.318709	-0.081829
O	-0.83041	1.289087	1.761951
C	-2.08398	0.154815	-1.385318
H	-2.281779	1.211966	-1.210898
H	-2.657432	-0.390323	-0.632391
H	-2.509295	-0.099702	-2.35766
N	-0.318433	-1.567336	-1.765252
H	-1.183908	-2.093398	-1.741152
H	0.045184	-1.609629	-2.707054
Cl	-5.243778	0.0	0.0
