16

C	-0.599047	0.028692	-1.403042
C	0.0	0.0	0.0
Br	0.175816	1.475099	-2.484291
H	1.098468	0.0	0.0
H	-1.657791	0.318386	-1.321317
N	-0.386564	-1.220362	-2.092362
H	-0.879037	-1.210482	-2.977052
H	-0.793811	-1.934922	-1.497262
N	-0.472557	-1.269155	0.611017
H	0.31285	-1.91272	0.582475
H	-0.663752	-1.105647	1.593115
C	-0.485166	1.179288	0.825701
H	-1.570929	1.126143	0.975191
H	0.00786	1.170616	1.801425
H	-0.24135	2.125009	0.340978
Br	3.700192	0.0	0.0
