16

C	-0.38397	-0.109615	-1.484124
C	0.0	0.0	0.0
Br	-0.297691	1.64288	-2.411129
H	1.097697	0.0	0.0
H	-1.439679	-0.392142	-1.582749
N	0.426077	-1.036253	-2.237392
H	0.190947	-1.97693	-1.945205
H	1.402959	-0.870913	-1.999156
N	-0.383063	-1.250573	0.676934
H	0.311807	-1.962349	0.492614
H	-1.286605	-1.581016	0.353907
C	-0.585014	1.176649	0.754924
H	-1.67916	1.195161	0.669131
H	-0.193437	2.124685	0.388723
H	-0.324839	1.066524	1.808509
Br	3.608216	0.0	0.0
