16

C	-0.260154	0.011661	-1.502536
C	0.0	0.0	0.0
Br	-2.171056	0.306439	-1.933993
H	1.107584	0.0	0.0
H	-0.058344	-0.987207	-1.897984
N	0.535479	0.953685	-2.254092
H	1.51182	0.734445	-2.048218
H	0.370109	1.887312	-1.894322
N	-0.562008	-1.208905	0.610072
H	-0.378603	-1.158228	1.60781
H	-0.015207	-2.000336	0.280092
C	-0.493703	1.224218	0.743199
H	-1.582772	1.208062	0.827849
H	-0.18608	2.14686	0.246317
H	-0.055385	1.241211	1.745493
Br	3.615066	0.0	0.0
