16

C	-0.537833	0.023792	-1.419563
C	0.0	0.0	0.0
Br	0.187957	-1.609243	-2.420719
H	1.098434	0.0	0.0
H	-0.095721	0.834257	-1.997773
N	-1.949149	0.06445	-1.431582
H	-2.327471	-0.063292	-2.359775
H	-2.286615	-0.66117	-0.807858
N	-0.566522	-1.17287	0.689341
H	-0.027082	-1.981632	0.395063
H	-0.379762	-1.061046	1.680301
C	-0.44303	1.26771	0.724387
H	-1.525143	1.285363	0.868069
H	-0.145307	2.154302	0.159603
H	0.060065	1.317714	1.694699
Br	3.687665	0.0	0.0
