16

C	-0.269854	0.013722	-1.497491
C	0.0	0.0	0.0
Br	-2.22569	0.174737	-1.863419
H	1.100755	0.0	0.0
H	-0.019731	-0.97548	-1.880814
N	0.431488	1.010227	-2.264182
H	1.42525	0.810325	-2.142564
H	0.266626	1.924649	-1.859014
N	-0.462345	-1.258783	0.575459
H	-1.406667	-1.149507	0.930132
H	0.142682	-1.499367	1.351791
C	-0.46441	1.240708	0.751285
H	-0.067186	1.20661	1.769104
H	-0.095302	2.163047	0.293984
H	-1.556855	1.289454	0.798443
Br	3.585729	0.0	0.0
