17

C	-0.472543	-0.062972	-1.447984
C	0.0	0.0	0.0
F	-1.877508	-0.055382	-1.474389
H	1.100168	0.0	0.0
C	-0.051211	1.148074	-2.178343
N	0.238331	2.070804	-2.843607
C	0.018083	-1.308704	-2.153464
H	1.1088	-1.347917	-2.094629
H	-0.414869	-2.173478	-1.649074
H	-0.296881	-1.304912	-3.198737
N	-0.461383	-1.231978	0.690111
H	0.310085	-1.893201	0.662897
H	-0.566597	-0.986425	1.668463
N	-0.500605	1.212192	0.595835
H	-1.473452	1.098828	0.853974
H	0.052078	1.455127	1.406585
Cl	3.410939	0.0	0.0
