17

C	-0.480202	-0.048111	-1.4455
C	0.0	0.0	0.0
F	-1.882364	-0.246496	-1.425443
H	1.094993	0.0	0.0
C	-0.272229	1.243066	-2.127784
N	-0.144544	2.218995	-2.767335
C	0.162464	-1.171726	-2.225887
H	-0.074256	-2.107999	-1.722456
H	-0.210237	-1.183533	-3.252348
H	1.245881	-1.029535	-2.21796
N	-0.396131	-1.257211	0.635048
H	-1.350349	-1.19527	0.970625
H	0.221172	-1.426247	1.418895
N	-0.454048	1.237235	0.616297
H	0.130065	1.44304	1.416705
H	-1.416147	1.149787	0.922903
Cl	3.404233	0.0	0.0
