17

C	-0.404855	0.016145	-1.483673
C	0.0	0.0	0.0
F	-0.135661	-1.24277	-2.032712
H	1.093347	0.0	0.0
C	-1.868155	0.203728	-1.594835
N	-3.035895	0.329699	-1.639754
C	0.366885	1.053812	-2.268571
H	0.129624	0.974746	-3.332377
H	0.118197	2.047401	-1.899553
H	1.431253	0.868628	-2.1031
N	-0.456605	-1.181101	0.717167
H	-1.36055	-1.485727	0.370995
H	0.203933	-1.930785	0.554757
N	-0.463086	1.253614	0.578425
H	0.172381	1.488587	1.332386
H	-1.374434	1.097565	0.996898
Cl	3.447595	0.0	0.0
