14

C	0.0	0.0	0.0
C	-0.488762	-0.415472	-1.382323
Cl	1.749512	0.0	0.0
H	-1.58678	-0.369869	-1.284937
H	-0.368983	-0.718751	0.74718
N	-0.61825	1.277918	0.40715
O	-0.379743	1.615589	1.591516
O	-1.765734	1.433723	-0.188176
C	-0.118665	-1.814835	-1.65597
N	0.183302	-2.912505	-1.950515
N	-0.02271	0.502654	-2.410757
H	-0.68619	0.518915	-3.173155
H	0.879904	0.215533	-2.765507
H	-2.832354	0.0	0.0
