14

C	0.0	0.0	0.0
C	-0.558599	0.190862	-1.456363
Cl	1.758975	0.0	0.0
H	-0.535141	-0.828649	-1.86872
H	-0.390109	-0.897174	0.473854
N	-0.407413	1.140933	0.893588
O	-0.758871	0.850538	2.031441
O	-0.312532	2.270217	0.427277
C	0.373675	0.990025	-2.276223
N	1.056727	1.629741	-2.986648
N	-1.876818	0.725163	-1.612041
H	-1.85844	1.710041	-1.365815
H	-2.625391	0.285986	-0.942491
H	-3.610396	0.0	0.0
