14

C	0.0	0.0	0.0
C	-0.495675	-0.126092	-1.434772
Cl	1.749555	0.0	0.0
H	-1.593904	-0.092461	-1.320031
H	-0.364599	-0.862086	0.578228
N	-0.623625	1.154887	0.677129
O	-0.396377	1.210097	1.910305
O	-1.763993	1.445439	0.129692
C	-0.142913	-1.449177	-1.979238
N	0.132771	-2.472545	-2.490258
N	-0.031665	0.971353	-2.268755
H	0.891988	0.775645	-2.634777
H	-0.670549	1.095987	-3.042518
H	-2.827143	0.0	0.0
