12
Coordinates from ORCA-job run
  C   -0.49342620308680      0.20866586091895     -0.33510483073468
  C   1.01680889907078     -0.09386430183406     -0.21851397944130
  F   -0.93206500743011     -0.51114018896032     -1.43219102269293
  H   1.46188019040092      0.55450384936057      0.54097095139782
  H   1.50177437867090      0.10988184411239     -1.17642553018575
  N   -1.30590960439729     -0.13689231548122      0.77813740370531
  H   -1.31778156384482      0.56791238803099      1.50044179406252
  H   -1.07072269286512     -1.04667514728415      1.15503524933384
  C   -0.65704679702701      1.64935279849456     -0.62246709272254
  N   -0.73835332357317      2.80094356267781     -0.83248885824903
  C   1.21270069475863     -1.49098170831318      0.15565349938073
  N   1.32214102932310     -2.61070664172233      0.48895241614601
