12
Coordinates from ORCA-job run
  C   -0.45282105035198      0.18878155980911     -0.26155318012671
  C   1.06414918964177     -0.03156930858047     -0.23168465842053
  F   -0.96919569929282     -0.70866533711925     -1.21042924936126
  H   1.52800887688778      0.74348159711740      0.38219883731851
  H   1.45101711831562      0.04312794313609     -1.25009460756125
  N   -1.02090646342537      0.03182032499506      1.01839877865229
  H   -0.84107770642794     -0.89400149291882      1.38952737853478
  H   -2.01629369168811      0.21377971536941      1.01163461483129
  C   -0.74215681666751      1.54504337241575     -0.76944524971738
  N   -0.95137561558931      2.62342663029343     -1.18214561065522
  C   1.36999669901993     -1.34931834456680      0.31845120399921
  N   1.57865515957794     -2.40490665995093      0.78614174250626
