12
Coordinates from ORCA-job run
  C   -0.47639932938635      0.05300393988603     -0.24212803415289
  C   0.74290718509587     -0.72025477658952      0.26034589956134
  F   -0.72522649582913     -0.32556463776705     -1.54226614867461
  H   0.95193926010480     -0.45522510783958      1.30098355484016
  H   0.47840838324755     -1.77974131147527      0.21815597070218
  N   -1.62255109394250     -0.31571974750352      0.53333135075119
  H   -2.44210807713292      0.17870369608527      0.19889943648591
  H   -1.48823733403973     -0.09403615634548      1.51239273228864
  C   -0.20146316019793      1.51351216192431     -0.26574800186974
  N   -0.01925099839455      2.67271405899477     -0.20887895426155
  C   1.92467726063428     -0.46383744751061     -0.55675377807734
  N   2.87830439984062     -0.26255467185935     -1.20933402759329
