12
Coordinates from ORCA-job run
  C   -0.41518984334084      0.20063559070548     -0.31043062379179
  C   1.08747404051918      0.01262349780406     -0.07010233697168
  F   -0.75282200755857     -0.62279619447022     -1.39663711175134
  H   1.61837278199604      0.18352894510527     -1.00890052622654
  H   1.42768462547078      0.74169759870282      0.66836288876614
  N   -1.16096460193126     -0.07912677442049      0.85199750204010
  H   -2.15012790741278      0.08010014011718      0.71015559129822
  H   -1.00560562631142     -1.02955569001530      1.16816509910432
  C   -0.67287896520186      1.58894283760795     -0.74323552910954
  N   -0.85530751360714      2.69392749798939     -1.09364891775045
  C   1.35397000329319     -1.34079130223541      0.40946103292761
  N   1.52639501408466     -2.42818614689074      0.81481293146495
