12
Coordinates from ORCA-job run
  C   -0.44278825623052      0.17832587531569     -0.28546663991122
  C   1.07444673385666     -0.01743615932070     -0.18076454230447
  F   -0.89917909617950     -0.73922843679422     -1.24530973105458
  H   1.50806116007268      0.05056099380679     -1.18062596233776
  H   1.49701963082326      0.77193855444062      0.44452202657313
  N   -1.06829413802464      0.02899200923923      0.96825051720511
  H   -0.88952321481077     -0.88750856596613      1.36200043517627
  H   -2.06521403628816      0.19262415937097      0.91220433379336
  C   -0.72807778795147      1.52336889174997     -0.82464397116081
  N   -0.93362872031078      2.59317720243013     -1.26085774918017
  C   1.37332515272214     -1.32366343059121      0.40003328186663
  N   1.57485257232110     -2.37015109368114      0.89065800133451
