12
Coordinates from ORCA-job run
  C   -0.45018883784981      0.21689221048620     -0.38544211357053
  C   1.03995706691143     -0.05801274063697     -0.08550176338522
  F   -0.71748462491209     -0.44449584703695     -1.57159032814041
  H   1.64074404737616      0.21368732670391     -0.95702739063163
  H   1.36083134420963      0.55376436420919      0.76186648082570
  N   -1.39039999797526     -0.21414657751276      0.58803597097011
  H   -1.53013835979795      0.44947336225851      1.33522635607401
  H   -1.17475520384322     -1.13554061307077      0.94752811408507
  C   -0.61875554870556      1.66778488214590     -0.61109780389756
  N   -0.70765976105244      2.82728559815359     -0.76807340579922
  C   1.22627188893271     -1.47030546218474      0.23214214861832
  N   1.32057798670640     -2.60538650351512      0.51393373485137
