12
Coordinates from ORCA-job run
  C   -0.61509979622664      0.14868285078401     -0.36527091782351
  C   0.62670751745189     -0.74136385880541     -0.54626849894620
  F   -1.43572869900651     -0.19291100174892     -1.43906212285178
  H   0.28288069897438     -1.78081169242926     -0.53765327562644
  H   1.08047214542441     -0.55025386488778     -1.52128871734663
  N   -1.30649281260779     -0.04006164207936      0.85251605071136
  H   -1.16845144183417     -0.94868793528578      1.26893695625684
  H   -1.19748210193941      0.69983373897451      1.52693787165204
  C   -0.25800010510328      1.57220412673147     -0.52151281971088
  N   0.04944295856376      2.69831576138995     -0.64302229395751
  C   1.59356021456178     -0.52410401233796      0.52396642327819
  N   2.34919142174158     -0.34084247030547      1.40272134436454
