12
Coordinates from ORCA-job run
  C   -0.46334951999022      0.11813335268060     -0.24394870576543
  C   0.66215085087937     -0.80936308657992      0.21425559073793
  F   -0.72022154824894     -0.13382652808125     -1.57289620162082
  H   0.29576188566556     -1.83078572430229      0.08541232604153
  H   0.87241950095585     -0.64708865833184      1.27549584831298
  N   -1.65711666532024     -0.19148130624987      0.48419634422666
  H   -2.41569491009947      0.40721113418006      0.17710931659488
  H   -1.52288804612038     -0.05984667710606      1.47926910886882
  C   -0.04554639967226      1.54178631349097     -0.15089215133524
  N   0.24580638480738      2.67056402192764     -0.00584064958658
  C   1.88229411253865     -0.61070999071048     -0.56169111506122
  N   2.86638435460469     -0.45459285091755     -1.18046971141352
