12
Coordinates from ORCA-job run
  C   -0.45783645789973      0.12602274096693     -0.17691317912860
  C   0.75596189294058     -0.61557344753596      0.38826864266737
  F   -0.67392856038709     -0.37393667934552     -1.46842053186896
  H   0.97925677944133     -0.22393671612495      1.38283141542435
  H   0.48898938736552     -1.67258867800073      0.48678628495985
  N   -1.57015444814832     -0.05417288873545      0.67655842035512
  H   -2.37495977401698      0.46822148449591      0.35408441558781
  H   -1.81041959620218     -1.03499144339624      0.75394430492818
  C   -0.17958464591500      1.56804449629880     -0.32295746649878
  N   0.04302491578204      2.71494026447623     -0.43380863635070
  C   1.92569000778076     -0.49754323235401     -0.47695696134116
  N   2.87196049925908     -0.40348590074500     -1.16341670873448
