12
Coordinates from ORCA-job run
  C   -0.47100066457427      0.06106777502693     -0.25016481206235
  C   0.72028454789706     -0.73539388978956      0.28252396078365
  F   -0.71038606180389     -0.33118701630415     -1.54808249598660
  H   0.42962914320255     -1.78830472856626      0.25151102588123
  H   0.91945936312928     -0.46056432123261      1.32243550193892
  N   -1.63748744054686     -0.26619466472015      0.51342876926813
  H   -2.43899819443959      0.24399698948685      0.15972542931101
  H   -1.51158965682001     -0.03398768712955      1.49108089561259
  C   -0.15854814383924      1.51370562394727     -0.29185334616754
  N   0.04953824208224      2.66916351083429     -0.25037644585956
  C   1.92088660410895     -0.52111354348647     -0.51902506141978
  N   2.88821226160377     -0.35118804806658     -1.16020342129970
