12
Coordinates from ORCA-job run
  C   -0.43796350730875      0.20704323616236     -0.14878073224242
  C   0.71267768333232     -0.75473964663179      0.15734070673093
  F   -0.53213149696961      0.29587094634033     -1.54444575994279
  H   0.43460476482832     -1.74368920840067     -0.22065561730433
  H   0.83766464866610     -0.82382419410241      1.24001481736423
  N   -1.62705597197795     -0.26086330265811      0.45521996902593
  H   -1.87973589617635     -1.17436470969632      0.09791138777094
  H   -2.39463176368999      0.38391753669763      0.31611066167221
  C   -0.14138949610345      1.56686431255820      0.34208340388056
  N   0.08973895583904      2.64776150837254      0.73647417053549
  C   1.96300130138427     -0.33714666826262     -0.46982044982576
  N   2.97522077817606     -0.00682981037913     -0.96145255766502
