12
Coordinates from ORCA-job run
  C   -0.40066315059105      0.36812420510922     -0.32093064270286
  C   1.02132109616567     -0.19464503160908     -0.10421858121802
  F   -0.72836918396649      0.05472012865808     -1.62854142320302
  H   1.40505374921845      0.14519579342810      0.86146500716025
  H   1.68211021151104      0.17823720556297     -0.89075991767984
  N   -1.42429260642666     -0.13124445265410      0.52796363018624
  H   -1.36121248266428     -1.13355856676315      0.65531240348551
  H   -1.48351034352571      0.34931975188430      1.41336713831428
  C   -0.34231747184094      1.83954252141422     -0.19281640427740
  N   -0.25256956585742      3.00257853491765     -0.06533455722753
  C   0.98430768545385     -1.65343625040643     -0.12997266790223
  N   0.90114206252354     -2.82383383954178     -0.12453398493538
