12
Coordinates from ORCA-job run
  C   -0.49543540112596      0.11410405649853     -0.26093017386024
  C   0.98340111889326     -0.27667289169320     -0.29825277033784
  F   -1.20742124158669     -0.79463906120203     -1.01500326875869
  H   1.30285358520489     -0.30907935920965     -1.34292370310160
  H   1.58336942818930      0.48555173027661      0.20834806397332
  N   -1.00213022977268      0.06387293074791      1.06865053997199
  H   -1.95442662171351      0.40414108667375      1.11565706248066
  H   -0.42260925404375      0.57561862458131      1.72048307580292
  C   -0.65602433453091      1.43366578654908     -0.93119934581682
  N   -0.76247367366700      2.50530578718821     -1.40055844755091
  C   1.20667808496332     -1.58020574500340      0.32232937314678
  N   1.42421853918973     -2.62266294540711      0.81339959405044
