12
Coordinates from ORCA-job run
  C   -0.46721613531037      0.05763795002701     -0.25802222276581
  C   0.72685578842613     -0.72968089095307      0.28208017568587
  F   -0.67385041567602     -0.31193315747142     -1.56810297266863
  H   0.89870542669363     -0.47616684281437      1.33233638828591
  H   0.45666838495810     -1.78678265530954      0.21992627245541
  N   -1.64305999032478     -0.30464008566796      0.47469174673319
  H   -1.54155445819836     -0.08920176333262      1.45900114963844
  H   -2.44600097373371      0.19840198237949      0.11401738327829
  C   -0.17842921067148      1.51561332264777     -0.26455459259892
  N   0.01136752738391      2.67311656467381     -0.19814577368880
  C   1.93995076763788     -0.47416975347231     -0.48826993872148
  N   2.91656328881507     -0.27019467070679     -1.10495761563346
