12
Coordinates from ORCA-job run
  C   -0.46319521005407      0.15243488881413     -0.14054006754597
  C   0.75105016219016     -0.66342182795314      0.30943447620859
  F   -0.79464370430323     -0.28912323420374     -1.42896180566392
  H   0.44198420263668     -1.71018261080750      0.39303545730213
  H   1.06352596381457     -0.31829838230303      1.29724240482834
  N   -1.51861304633080     -0.00828217818238      0.78564046779741
  H   -1.79873516548000     -0.97933223512336      0.85029284126448
  H   -2.31884305401420      0.56143852882454      0.54162368826322
  C   -0.12753007064638      1.58497376975274     -0.25724728785261
  N   0.14013153517987      2.72471648569774     -0.33857837911001
  C   1.86124714200687     -0.56649464979684     -0.63333058309781
  N   2.76262124500050     -0.48842855471916     -1.37961121239384
