12
Coordinates from ORCA-job run
  C   -0.52333981171607      0.09930089855268     -0.33010732530519
  C   0.73401191166704     -0.77418873570591     -0.32359519933366
  F   -1.31881078390072     -0.42247231857478     -1.36862461860740
  H   1.17326712458663     -0.76311222300955     -1.32351267662514
  H   0.42430390058219     -1.80258504529900     -0.11189023684382
  N   -1.16423104340479      0.08293487334315      0.92211014531560
  H   -1.40159131560201     -0.85773848567782      1.21033213849496
  H   -1.98310710802007      0.67629905739676      0.94419179761520
  C   -0.20793159972282      1.49061332019199     -0.70773508452833
  N   0.04277726505653      2.59264292506791     -1.02393504963533
  C   1.71208489759456     -0.33144645828616      0.66381423074394
  N   2.51256656287954      0.01075219200073      1.44995187870918
