12
Coordinates from ORCA-job run
  C   -0.54505925798652      0.09768547732521     -0.29340765251056
  C   0.72146728624827     -0.75762807956782     -0.38405935780109
  F   -1.39862026381348     -0.41685382300679     -1.28858688751611
  H   0.43961230770192     -1.79398799562777     -0.17220389440671
  H   1.09501149195635     -0.72249584503853     -1.40980582544792
  N   -1.10369095927310      0.04981986798713      0.99661466097607
  H   -1.92724026480816      0.63066513907801      1.08276354793888
  H   -1.30821489998209     -0.89892696187455      1.28320474478288
  C   -0.27269515716406      1.49968644959614     -0.66496429454937
  N   -0.05557061434084      2.60942164906270     -0.97922041752639
  C   1.75560994905546     -0.31874520731483      0.54627131252484
  N   2.60139038240624      0.02135932938109      1.28439406353549
