12
Coordinates from ORCA-job run
  C   -0.46083337614369      0.16497242749837     -0.13265652514793
  C   0.75407556452599     -0.68759717958275      0.24107081310081
  F   -0.74002121036303     -0.09387123824472     -1.48158322517504
  H   0.46238579844439     -1.74013138248529      0.16822555908959
  H   1.02842989539473     -0.47869945978505      1.27719388296379
  N   -1.54337115437320     -0.14241540287674      0.72270379763256
  H   -1.80503417152636     -1.11706254492506      0.63816725135089
  H   -2.34671594277017      0.44282740420400      0.53127012406693
  C   -0.15059033236716      1.60454865792878     -0.03344458467269
  N   0.09809941389166      2.74813027784021      0.05340037222234
  C   1.89103332703256     -0.44515676803381     -0.64179871599355
  N   2.81254218825428     -0.25354479153794     -1.34154874943769
