12
Coordinates from ORCA-job run
  C   -0.52508287974220      0.09729602441486     -0.32985490908770
  C   0.72790563957361     -0.78237460926033     -0.31413164154081
  F   -1.32851286138596     -0.44043753874815     -1.35451168129331
  H   0.41257417385342     -1.80567649814419     -0.08673376793278
  H   1.16482308596498     -0.78870382583625     -1.31500109320512
  N   -1.15821059244845      0.10862157013743      0.92538652572220
  H   -1.97421653993545      0.70560020051157      0.94365559437089
  H   -1.39113437315674     -0.82364973418905      1.24158238544746
  C   -0.20506073260319      1.47915211404352     -0.73769773580790
  N   0.05119658685838      2.57069837056537     -1.08472216755241
  C   1.71079237182625     -0.33221698165452      0.66517541955239
  N   2.51492612119535      0.01369090815976      1.44585307132708
