12
Coordinates from ORCA-job run
  C   -0.48094156184182      0.12334614495681     -0.25256832952608
  C   0.99559172384973     -0.28119166537821     -0.33999372939060
  F   -1.22779879940189     -1.00512267255778     -0.62677193421100
  H   1.62013050368686      0.60405983043798     -0.20228069678713
  H   1.18737955122434     -0.70094221756391     -1.32964096687328
  N   -0.80689213995868      0.60589016534264      1.03035154029756
  H   -0.62155396329976     -0.08907631558766      1.74409974561954
  H   -1.77054993638232      0.90937649264996      1.08432276858593
  C   -0.76358691050464      1.16559001060495     -1.26011006500339
  N   -0.96558266103066      1.99105377703193     -2.06941358200471
  C   1.30705969618317     -1.27251786265365      0.68619149510704
  N   1.52574449747567     -2.05146568728306      1.53581375418613
