12
Coordinates from ORCA-job run
  C   -0.58598583766221      0.01964032700605     -0.36840006783966
  C   0.71023456843691     -0.78937902599043     -0.46156602273191
  F   -1.41702421235441     -0.44405777463702     -1.36972711756878
  H   1.14182513148598     -0.65521023872834     -1.45595448023829
  H   0.43491257463626     -1.83952767077977     -0.33514491360920
  N   -1.23177972401927     -0.21537187911285      0.88023573380721
  H   -0.60547507487393     -0.05696246974391      1.66036191048699
  H   -2.04755663629409      0.37606269407171      0.98374383177537
  C   -0.32859239660469      1.45254145692582     -0.66878794657862
  N   -0.12490901625807      2.59452256339786     -0.85453165521022
  C   1.66299710232819     -0.38893137033297      0.56743769935090
  N   2.39235352117934     -0.05332661207616      1.42333302835622
