12
Coordinates from ORCA-job run
  C   -0.46086674941525      0.16874698589962     -0.21680022574741
  C   0.64351739276980     -0.84893315652935      0.06960015984984
  F   -0.72918383100996      0.14999687173667     -1.56695671923906
  H   0.86419313701617     -0.87083001159658      1.14083326688767
  H   0.25120929080533     -1.82553510584160     -0.22427112158110
  N   -1.65896007205275     -0.23058700365174      0.45882768398904
  H   -2.40432663382497      0.42780918174553      0.26184326199411
  H   -1.51793366860218     -0.27003552299731      1.46091942460457
  C   -0.00758586413734      1.54522475893858      0.11316859349453
  N   0.31280976099697      2.62383569050619      0.45115060782799
  C   1.86290098039679     -0.55202998104954     -0.67538019735751
  N   2.84522625705739     -0.31766270716046     -1.27193473472266
