12
Coordinates from ORCA-job run
  C   -0.44268968724369      0.21327797195910     -0.21563539251006
  C   0.65695629581594     -0.83844569417415     -0.06792959585308
  F   -0.58037325876898      0.51312042484683     -1.55223620715159
  H   0.77431532069346     -1.11265233759515      0.98460783108544
  H   0.32117387558711     -1.71924958626362     -0.62075889284759
  N   -1.68792017983295     -0.34020313814513      0.22495838926392
  H   -1.64110738130156     -0.61661106436564      1.19812716277277
  H   -2.42926872842014      0.34301650450075      0.11773229205179
  C   -0.06109917715742      1.47572904538171      0.47007649449078
  N   0.19614348331553      2.44761089148443      1.07787459977886
  C   1.93380054542008     -0.36912831772925     -0.59656145736392
  N   2.96206889189261      0.00353530010011     -1.02025522371732
