12
Coordinates from ORCA-job run
  C   -0.47097852495825      0.11192438874367     -0.23370868863406
  C   0.70563271306646     -0.78411198291106      0.15445144608099
  F   -0.72088689214646     -0.05702719565566     -1.57715084265944
  H   0.39163656021158     -1.81272139490933     -0.03994283086813
  H   0.91865252805264     -0.68117688151568      1.22267982437728
  N   -1.64145989471036     -0.31312775339545      0.47238703810451
  H   -1.50443373204167     -0.26029123204404      1.47416052492857
  H   -2.43189114517986      0.26989982317802      0.22152503644725
  C   -0.12851858288427      1.54518890480230     -0.03856517804563
  N   0.10476824578936      2.67357479956632      0.19043055846923
  C   1.90530304062287     -0.47025265356600     -0.61527437732239
  N   2.87217568417796     -0.22187882229310     -1.23099251087819
