12
Coordinates from ORCA-job run
  C   -0.52312544210312      0.10911852157548     -0.32736702479066
  C   0.73416875609258     -0.76427065604508     -0.34532975649774
  F   -1.31764391892790     -0.38310024452145     -1.38127453384025
  H   0.42359128614037     -1.79866785804450     -0.16690807435144
  H   1.17563856072051     -0.72214831681764     -1.34343577922702
  N   -1.16458774558876      0.05727663167928      0.92298258886406
  H   -1.39892136496196     -0.89091290599424      1.18801505239311
  H   -1.98375683336892      0.64944318460436      0.96258248220813
  C   -0.20779394304188      1.51037152158458     -0.66637790614626
  N   0.04341906309199      2.61976058236541     -0.95540013012159
  C   1.71030190262536     -0.35299609916972      0.65742624378806
  N   2.50970967932172     -0.03587436121648      1.45508683772163
