12
Coordinates from ORCA-job run
  C   -0.45466214572736      0.16802472708711     -0.14731529105731
  C   0.74297019386031     -0.69122838990986      0.26509101577622
  F   -0.68555378890797     -0.08212512173388     -1.50678650791775
  H   0.44946537767140     -1.74214039719021      0.17753470593668
  H   0.98212630755460     -0.48810440303163      1.31095976226260
  N   -1.56839582771892     -0.14012284476345      0.66650532080033
  H   -2.36226298652141      0.44951533896832      0.45064455098748
  H   -1.83041830857039     -1.11328218543414      0.56793766838550
  C   -0.14339455958036      1.60598718254237     -0.02872327948872
  N   0.10573235885200      2.74849868089779      0.07043244878608
  C   1.91015049243538     -0.45110694220006     -0.57804556734070
  N   2.85424288665272     -0.26391564523236     -1.24823482713040
