12
Coordinates from ORCA-job run
  C   -0.44470418744093      0.14721604192283     -0.26187753523913
  C   0.70491035970193     -0.79675055414464      0.09082359865590
  F   -0.54349113470881      0.21792067823255     -1.63333868814487
  H   0.44342548213055     -1.77385126745494     -0.32275396830818
  H   0.79165447810255     -0.89139555118508      1.17728764446814
  N   -1.67451314671362     -0.40371199011063      0.22331358208557
  H   -2.44777683458881      0.20408589888820     -0.02265146429956
  H   -1.65492818802451     -0.51053867343007      1.23023130570051
  C   -0.16329361000785      1.52505003291351      0.21954672396152
  N   0.01312571014398      2.59633879310402      0.66833514185216
  C   1.97516515237619     -0.33882473779283     -0.46308209775565
  N   2.99842591902934      0.02546132905708     -0.90583424297641
