12
Coordinates from ORCA-job run
  C   -0.53265372314599      0.10956447307789     -0.31258314889695
  C   0.72374025478522     -0.76379574541737     -0.36719273934624
  F   -1.35548488690210     -0.37955866226928     -1.34612080998293
  H   1.13595233954921     -0.72141647318026     -1.37774283382016
  H   0.41873390675680     -1.79825770788574     -0.17984439904071
  N   -1.13948309432167      0.05400110596949      0.95462390707319
  H   -1.95508018232743      0.64829659471527      1.02132838951076
  H   -1.36724003085243     -0.89438970994687      1.22368238721909
  C   -0.22646256383263      1.51189380556001     -0.65532112234003
  N   0.01780361109879      2.62231199449559     -0.94619058180353
  C   1.72869206832716     -0.35191547303173      0.60638000956981
  N   2.55048230086504     -0.03473420208700      1.38098094185771
