12
Coordinates from ORCA-job run
  C   -0.54647630166640      0.13526887969352     -0.40345114657142
  C   0.63901884140996     -0.82877832438366     -0.49497523572417
  F   -1.34482135603202     -0.11072576119068     -1.50385990807599
  H   1.16436498271389     -0.65708687233698     -1.43710322999951
  H   0.22263290782998     -1.83927658916706     -0.50217386308567
  N   -1.31722517458212     -0.13183241800170      0.76522322031156
  H   -0.74182500663736     -0.14120764960888      1.59862000155171
  H   -2.05490836940923      0.55295218526235      0.87819407480868
  C   -0.08514122978745      1.54273842217618     -0.52849721280082
  N   0.27583959268864      2.65972914351118     -0.57510258937153
  C   1.54760354153236     -0.66426828254832      0.63394682333100
  N   2.24093757193977     -0.51651273340592      1.56917906562617
