12
Coordinates from ORCA-job run
  C   -0.56838445783687      0.03450426984661     -0.39525868103356
  C   0.71772733180375     -0.79449904042922     -0.44021029629516
  F   -1.35862444668488     -0.40015725168209     -1.44176295920864
  H   1.19538468554333     -0.65536744668174     -1.41261202102431
  H   0.42112056016910     -1.84167180911768     -0.33952456856071
  N   -1.27563447446460     -0.20784479592187      0.81804821903307
  H   -0.68244336130415     -0.07895725598163      1.62869187058070
  H   -2.08234913834028      0.39953117509318      0.89631483583081
  C   -0.27460997246193      1.46728052637738     -0.66063767200657
  N   -0.04582834910039      2.60890066600778     -0.81720887494393
  C   1.62906682284704     -0.42191397987657      0.63573084016842
  N   2.32357479982988     -0.10880505763412      1.52842930745990
