16

C	-0.449485	0.002026	-1.470842
C	0.0	0.0	0.0
Br	0.229966	1.637497	-2.333307
H	1.095036	0.0	0.0
C	0.138724	-1.201385	-2.198738
H	-0.073785	-1.152065	-3.267952
H	1.218535	-1.193277	-2.023321
H	-0.286259	-2.1216	-1.789616
C	-1.905664	0.064943	-1.579461
N	-3.080951	0.086907	-1.630007
C	-0.440147	-1.245742	0.623402
N	-0.778446	-2.240223	1.155889
N	-0.428181	1.179352	0.728164
H	-1.215496	0.992495	1.333716
H	0.36108	1.495703	1.281816
H	2.668808	0.0	0.0
