16

C	-0.394004	-0.017522	-1.466071
C	0.0	0.0	0.0
Br	-2.381488	0.276692	-1.691661
H	1.110969	0.0	0.0
C	0.34941	1.078531	-2.206831
H	0.062134	2.040201	-1.784404
H	0.133479	1.050132	-3.276326
H	1.41987	0.915188	-2.014802
C	-0.135712	-1.321798	-2.070284
N	0.07726	-2.347679	-2.605315
C	-0.508632	-1.151833	0.730052
N	-0.928584	-2.050621	1.362477
N	-0.31992	1.277914	0.615649
H	-1.158139	1.220708	1.178727
H	0.468558	1.533018	1.204688
H	2.595417	0.0	0.0
