16

C	-0.302491	-0.00948	-1.497917
C	0.0	0.0	0.0
Br	-2.273436	0.297497	-1.862241
H	1.107942	0.0	0.0
C	0.494902	1.074795	-2.198971
H	1.543854	0.919848	-1.901942
H	0.376706	1.015396	-3.281977
H	0.17003	2.057333	-1.855191
C	-0.001025	-1.311719	-2.08242
N	0.296338	-2.338481	-2.573656
C	-0.565919	-1.163707	0.6661
N	-1.032002	-2.110393	1.183258
N	-0.334718	1.220936	0.70128
H	0.454217	1.856859	0.623459
H	-1.178608	1.65023	0.33721
H	2.59881	0.0	0.0
