16

C	-0.475068	-0.103622	-1.454797
C	0.0	0.0	0.0
Br	0.261279	1.421018	-2.466765
H	1.108956	0.0	0.0
C	0.031781	-1.391757	-2.092692
H	-0.205092	-1.415976	-3.157404
H	1.114232	-1.431311	-1.943909
H	-0.433165	-2.25083	-1.601722
C	-1.929209	0.014343	-1.546996
N	-3.103641	0.047949	-1.599189
C	-0.431456	-1.188424	0.731735
N	-0.756344	-2.125405	1.367307
N	-0.412701	1.237279	0.637577
H	0.372612	1.568963	1.190618
H	-1.218	1.108635	1.237311
H	2.644468	0.0	0.0
