16

C	-0.405703	-0.144145	-1.454435
C	0.0	0.0	0.0
Br	-2.402436	0.063658	-1.674736
H	1.108527	0.0	0.0
C	0.290023	0.916073	-2.28782
H	-0.025942	1.896473	-1.934313
H	0.060473	0.79863	-3.348101
H	1.366301	0.802396	-2.102545
C	-0.105689	-1.482763	-1.955599
N	0.148402	-2.543394	-2.395667
C	-0.484381	-1.08841	0.836514
N	-0.85688	-1.930612	1.570223
N	-0.322084	1.323007	0.512661
H	-1.143493	1.307162	1.102338
H	0.480865	1.631752	1.054401
H	2.594745	0.0	0.0
