13

C	0.0	0.0	0.0
C	-0.537666	-0.057675	-1.411561
Cl	1.782672	0.0	0.0
H	-0.230007	0.809907	-1.99019
H	-0.273231	-0.933325	0.496563
H	-1.639351	-0.117568	-1.238756
N	-0.552861	1.181335	0.602581
H	-0.334881	1.154704	1.593178
H	-1.578242	0.967587	0.503096
N	-0.087328	-1.255183	-2.145429
O	0.248778	-1.116568	-3.325592
O	-0.108052	-2.337597	-1.556947
F	-2.830133	0.0	0.0
