13

C	0.0	0.0	0.0
C	-0.541123	-0.062506	-1.408622
Cl	1.786106	0.0	0.0
H	-1.643855	-0.114935	-1.229914
H	-0.272247	-0.930074	0.502829
H	-0.233497	0.800956	-1.99352
N	-0.548611	1.186291	0.598104
H	-1.573949	0.971841	0.508782
H	-0.318246	1.170981	1.586732
N	-0.104924	-1.264996	-2.142734
O	0.165723	-1.139356	-3.340068
O	-0.076363	-2.337997	-1.539499
F	-2.828006	0.0	0.0
