17

C	-0.380399	0.175471	-1.481974
C	0.0	0.0	0.0
F	-0.658378	-1.100983	-2.017375
H	1.091327	0.0	0.0
H	-1.30839	0.748207	-1.594554
C	0.76236	0.771153	-2.275399
H	0.833207	1.835469	-2.052943
H	1.69562	0.314256	-1.936017
H	0.589646	0.631582	-3.347093
C	-0.520728	-1.261453	0.650135
H	-1.615014	-1.322523	0.641719
H	-0.1706	-1.309318	1.680151
H	-0.11598	-2.113847	0.106134
N	-0.423477	1.196801	0.748163
O	-0.663845	1.095172	1.954806
O	-0.471604	2.274916	0.14127
F	2.612046	0.0	0.0
