17

C	-0.308601	-0.041678	-1.476413
C	0.0	0.0	0.0
F	-1.667457	-0.360033	-1.721192
H	1.094021	0.0	0.0
H	-0.154589	0.955873	-1.887476
C	0.593006	-1.041156	-2.169421
H	0.547584	-0.922033	-3.255118
H	1.605482	-0.864142	-1.790122
H	0.290569	-2.062438	-1.924316
C	-0.504799	-1.18982	0.785665
H	-0.128891	-1.147243	1.806977
H	-0.113227	-2.098259	0.32398
H	-1.59609	-1.242761	0.809439
N	-0.46542	1.272265	0.602108
O	-0.353855	2.310154	-0.05497
O	-0.896507	1.25351	1.75968
F	2.607477	0.0	0.0
