17

C	-0.384802	0.248117	-1.470235
C	0.0	0.0	0.0
F	-0.658955	-0.998788	-2.069148
H	1.091324	0.0	0.0
H	-1.31332	0.822842	-1.551286
C	0.753574	0.893313	-2.233795
H	0.798593	1.952753	-1.975025
H	0.59266	0.785279	-3.310737
H	1.693959	0.442413	-1.901406
C	-0.518538	-1.2904	0.591048
H	-0.150473	-1.396325	1.610089
H	-1.613245	-1.342807	0.600395
H	-0.131169	-2.114543	-0.005098
N	-0.422887	1.1593	0.807034
O	-0.486702	2.262469	0.249759
O	-0.65096	1.001775	2.010241
F	2.612857	0.0	0.0
