17

C	-0.486804	-0.04524	-1.438073
C	0.0	0.0	0.0
F	0.123899	0.921314	-2.231743
H	1.091264	0.0	0.0
H	-0.153341	-1.012397	-1.830691
C	-1.985803	0.114882	-1.622084
H	-2.301989	1.094674	-1.259041
H	-2.239965	0.045709	-2.68308
H	-2.533269	-0.65884	-1.079866
C	-0.37338	-1.264284	0.753224
H	0.147907	-2.096092	0.270105
H	-1.447868	-1.473506	0.797906
H	0.004925	-1.195893	1.772515
N	-0.539563	1.195435	0.671539
O	-0.308111	2.293099	0.161843
O	-1.213421	1.059469	1.703169
F	2.556601	0.0	0.0
