16

C	0.0	0.0	0.0
C	-0.592374	-0.023026	-1.430746
Cl	1.848831	0.0	0.0
H	0.234475	0.122663	-2.134105
H	-0.201423	-0.939373	0.51383
N	-0.477992	1.086906	0.747522
H	0.097127	1.320869	1.543241
H	-0.703511	1.865559	0.141589
N	-1.530196	1.087496	-1.571716
H	-2.376187	0.789998	-0.986408
H	-1.801779	1.137155	-2.548803
C	-1.250124	-1.386987	-1.650256
H	-0.559846	-2.214987	-1.447893
H	-2.11687	-1.398324	-0.979849
H	-1.597572	-1.471094	-2.686071
F	-3.280804	0.0	0.0
