16

C	0.0	0.0	0.0
C	-0.448196	0.007303	-1.498277
Cl	1.802318	0.0	0.0
H	0.446588	0.166541	-2.107327
H	-0.233542	-0.985841	0.416021
N	-0.540429	1.075105	0.774026
H	-0.355749	0.862226	1.7506
H	-1.559164	0.932356	0.631549
N	-1.372	1.096957	-1.795272
H	-2.21853	0.859506	-1.248705
H	-1.606081	1.017988	-2.780696
C	-1.028566	-1.375693	-1.814395
H	-1.935579	-1.465292	-1.21335
H	-1.283614	-1.441955	-2.878798
H	-0.322566	-2.183236	-1.583526
F	-2.957965	0.0	0.0
