16

C	0.0	0.0	0.0
C	-0.491829	-0.075864	-1.440711
Cl	1.799462	0.0	0.0
H	-1.575048	-0.184406	-1.277754
H	-0.247808	-0.964215	0.454567
N	-0.582792	1.130961	0.655577
H	-1.607549	0.895857	0.504778
H	-0.404864	1.039911	1.651366
N	0.019015	-1.296084	-2.074877
H	0.973423	-1.134922	-2.384295
H	-0.538084	-1.473617	-2.903197
C	-0.205756	1.200557	-2.222243
H	0.872354	1.34944	-2.357091
H	-0.670261	1.139302	-3.213111
H	-0.60966	2.066401	-1.695349
F	-2.879914	0.0	0.0
