16

C	0.0	0.0	0.0
C	-0.418034	0.0273	-1.518972
Cl	1.840298	0.0	0.0
H	0.494062	0.212271	-2.096131
H	-0.230347	-0.977493	0.435554
N	-0.551989	1.100477	0.723203
H	-1.572035	0.893837	0.608109
H	-0.329889	0.973745	1.706112
N	-1.388308	1.043096	-1.891559
H	-2.21961	0.808958	-1.324624
H	-1.044299	1.931851	-1.542928
C	-0.976442	-1.343577	-1.880988
H	-0.252205	-2.137114	-1.659832
H	-1.222601	-1.372309	-2.945746
H	-1.88616	-1.473112	-1.291468
F	-2.91282	0.0	0.0
