16

C	0.0	0.0	0.0
C	-0.409451	-0.042467	-1.518832
Cl	1.855096	0.0	0.0
H	0.504734	0.115634	-2.100818
H	-0.222096	-0.957806	0.481081
N	-0.551874	1.13103	0.669652
H	-1.573016	0.917732	0.559791
H	-0.33406	1.049851	1.658226
N	-1.380649	0.953498	-1.942066
H	-2.214893	0.743126	-1.370763
H	-1.046259	1.85903	-1.62989
C	-0.967955	-1.426835	-1.821481
H	-1.199522	-1.507518	-2.886805
H	-0.258556	-2.214833	-1.546417
H	-1.886261	-1.518354	-1.237285
F	-2.908417	0.0	0.0
