14
Coordinates from ORCA-job run
  C   -0.64720918505241     -0.34856734872857     -0.47930720540696
  C   0.80011388834701      0.00349868241287     -0.11831155244365
  Cl  -1.44052892415505      1.08955290064901     -1.20028946929784
  H   1.23445789918628     -0.90393031086852      0.31838640262259
  H   -0.63214330027035     -1.10143140243047     -1.27053743752128
  C   -1.43447687272108     -0.83480456035169      0.72047226100342
  H   -0.96687010308450     -1.73780273290933      1.12379841611340
  H   -2.45741370020548     -1.07642063648373      0.42943342758356
  H   -1.44936516221548     -0.07242786912184      1.49740210502732
  N   0.84914066468235      1.04506672568391      0.89350056474461
  H   1.79947127882512      1.16605023079076      1.22118129842627
  H   0.54335659567039      1.92454237058407      0.49360959603834
  C   1.57730209586757      0.30395745958912     -1.33936828624776
  N   2.22616482512563      0.54271649118440     -2.28897012064199
