14
Coordinates from ORCA-job run
  C   -0.48676192270830     -0.69531220683377     -0.36923564400181
  C   0.79499744121233      0.09651782671969     -0.06545907758903
  Cl  -1.26245904780104     -0.04595174216455     -1.83944421707442
  H   1.29596146294628     -0.44028870045004      0.75322471543297
  H   -0.21055670882790     -1.72769727726817     -0.60052836950899
  C   -1.45359379979231     -0.63846488147222      0.79578621429689
  H   -2.32965947520587     -1.25624828282338      0.59556667046701
  H   -1.77360332396201      0.39048287200600      0.95676367371158
  H   -0.97010283748253     -1.01184788226327      1.70462137052451
  N   0.48968176139040      1.47190071310646      0.31769642925956
  H   0.70408018121322      1.62772024415586      1.29198234268997
  H   0.99934067844168      2.14344911699744     -0.23765210803888
  C   1.71928058464225      0.05043686265548     -1.20520280247769
  N   2.48239500593379      0.03530333763447     -2.09711919769167
