14
Coordinates from ORCA-job run
  C   -0.39261006985097     -0.61037689748073      0.37581935583929
  C   0.71865923987361      0.24839118051733     -0.23763654362082
  Cl  0.01059274329250     -2.33080105175405      0.04974127236879
  H   0.74343460419045      0.02981849670421     -1.31756270022113
  H   -0.34417677566372     -0.49137068916553      1.45983981932161
  C   -1.77188773837392     -0.30365163361035     -0.17055898373278
  H   -2.50642492840742     -0.98514660766453      0.25979479288564
  H   -2.05897109646975      0.71925788122710      0.08248725617532
  H   -1.79272360601382     -0.41960030016194     -1.25654278328326
  N   1.98260958837788      0.01101105886974      0.45094240630461
  H   2.70176788976016      0.61394910113350      0.06957540961962
  H   2.26567071184080     -0.94918306672582      0.29490706721910
  C   0.36423130841163      1.66605474030205     -0.08560206545084
  N   0.08082812903260      2.79964778780903      0.02579569657485
