14
Coordinates from ORCA-job run
  C   -0.36809986166181     -0.91676776001681     -0.13005020674008
  C   0.89192515137038     -0.06549650377263     -0.32013262104056
  Cl  -0.83502915540935     -1.60544475739410     -1.71378516487184
  H   1.64319067524401     -0.69523222203526     -0.80524506967603
  H   -0.07836423087010     -1.75599806207856      0.50400259991008
  C   -1.52978558332114     -0.15702709207751      0.47537156646012
  H   -2.39308857625804     -0.81448821789663      0.58436910288060
  H   -1.81814807586314      0.68502349249328     -0.15739607742396
  H   -1.25913325208340      0.20789680711327      1.46930602299199
  N   1.40535591973744      0.32498056247566      0.98922443433562
  H   0.89510790895361      1.12511382559488      1.34352700125674
  H   2.37680356443523      0.59989940004205      0.90943879918741
  C   0.62683242437702      1.07588104167889     -1.21802575728079
  N   0.44443309134931      1.99165948587347     -1.93060462998929
