14
Coordinates from ORCA-job run
  C   -0.37021854536753     -0.53205826867481      0.39518809639322
  C   0.75510317625980      0.21594670889964     -0.34844714183327
  Cl  -0.00103491850655     -2.28595910331160      0.31640749453069
  H   0.74472405659992     -0.13258634989317     -1.38806842458487
  H   -0.32709635355707     -0.26497567403795      1.45480927678812
  C   -1.74978128702061     -0.27641618634049     -0.17862118257522
  H   -1.78018883677254     -0.54860116126879     -1.23617838604045
  H   -2.01170456780235      0.77899802355389     -0.07766622747440
  H   -2.49734285840389     -0.87037422953337      0.34830047548464
  N   2.10654449025561      0.05126974207945      0.15654292602194
  H   2.15904110186035      0.34558323190797      1.12496325755515
  H   2.36937084117498     -0.92507218590460      0.10582210093536
  C   0.43026956681140      1.65037911782370     -0.35484485687359
  N   0.17231413446848      2.79486633470012     -0.31720740832732
