14
Coordinates from ORCA-job run
  C   -0.35189587477444     -0.88863052789145     -0.08829583233609
  C   0.85334021490835      0.02735562063404     -0.34741409877835
  Cl  -0.76284186095974     -1.72647036504986     -1.61533482712773
  H   1.60124006477996     -0.55067752296469     -0.90836175859134
  H   -0.01949175607246     -1.67018245339654      0.60068541632088
  C   -1.55787656312954     -0.16168913435848      0.46501862254917
  H   -1.26492633664081      0.38148421859761      1.36457520594926
  H   -2.34721220337854     -0.87265137595722      0.71273023461818
  H   -1.94911691813620      0.54557299735500     -0.26841292620785
  N   1.33739572998669      0.53060257667157      0.93934765277605
  H   1.88388174647698     -0.19210366659383      1.39346157303331
  H   1.94092841526446      1.33208690632629      0.80134830018499
  C   0.46573962342065      1.16067761424798     -1.19434592738624
  N   0.17283571825463      2.08462511237959     -1.85600163500423
