14
Coordinates from ORCA-job run
  C   -0.38684776427656     -0.71623080703564      0.26658296346766
  C   0.71321408644362      0.17110430201831     -0.33146858617228
  Cl  -0.15262644059016     -2.38208389066922     -0.33214570777769
  H   0.67227738552318      0.05492339455772     -1.41973147435487
  H   -0.24708602773177     -0.76106785671811      1.35064189471319
  C   -1.78775395275262     -0.24463516973412     -0.07620238947137
  H   -2.52523214129470     -0.93975745875332      0.32593334866328
  H   -1.97726996216589      0.74444880261947      0.34570108611211
  H   -1.92025098802088     -0.19840402411804     -1.15959737611866
  N   2.03049038106666     -0.24727229495688      0.11651669343419
  H   2.74927539004475      0.20897348538430     -0.43103212459097
  H   2.16921793197601      0.01198346783895      1.08633969043223
  C   0.42096829282408      1.58676787266876     -0.01655340577364
  N   0.24162380895429      2.71125017689782      0.27401538743680
