14
Coordinates from ORCA-job run
  C   -0.71425686386158     -0.20501345472230     -0.46889165712667
  C   0.78457656509723     -0.10954549413842     -0.16340465070392
  Cl  -1.30498564697549      1.39472866501378     -1.02551341385181
  H   1.09061870151680     -1.10732699910955      0.17372383873687
  H   -0.85126412812195     -0.87833255773123     -1.31798998599044
  C   -1.51436496884409     -0.67052182336741      0.73050267888534
  H   -2.57429385606463     -0.72726517281706      0.48001548466481
  H   -1.17612885981732     -1.66629647196788      1.03189479811703
  H   -1.37554227742705      0.01296713043850      1.56634478883108
  N   1.03903405880293      0.81938979296379      0.92443463770712
  H   2.01002574799090      0.76577857959542      1.20663062954284
  H   0.85759590437991      1.76682783399561      0.61373952684548
  C   1.54589926461294      0.17934251270772     -1.39727874746880
  N   2.18308635871141      0.42826745913901     -2.35220792818893
