14
Coordinates from ORCA-job run
  C   -0.38444919581858     -0.91680719407663     -0.10874663667296
  C   0.88093093761216     -0.08844027797624     -0.35393106806743
  Cl  -0.91468219553199     -1.61778208275259     -1.66744344904722
  H   1.60652513888778     -0.73742973358099     -0.85236385919909
  H   -0.08647988281250     -1.75294888980293      0.52545499799062
  C   -1.51335447563433     -0.13153853500347      0.52522209478011
  H   -2.38324499421553     -0.77333298531302      0.66931647490798
  H   -1.80810564883060      0.70866811444277     -0.10694167443769
  H   -1.20426390328740      0.23900353849475      1.50580729646674
  N   1.44288061210385      0.31711530877533      0.93044016768571
  H   0.95596593023242      1.13144430648185      1.28552447124276
  H   2.41507773088638      0.57601706417739      0.81381504135726
  C   0.60059458514563      1.04659003148070     -1.25627090490184
  N   0.39060536126272      2.00044133465308     -1.90888295210497
