14
Coordinates from ORCA-job run
  C   -0.67078094360789     -0.21833908380877     -0.44018579138597
  C   0.84559065226606      0.03568426109384     -0.30771975277009
  Cl  -1.50709162242222      1.33326405867671     -0.75353390451294
  H   1.30267262668052     -0.94485266550987     -0.12120587656969
  H   -0.84317980646452     -0.83446835881335     -1.32619140984725
  C   -1.25576227362828     -0.88025994177632      0.79176839576071
  H   -0.74954181374641     -1.83124661279991      0.98243764908155
  H   -1.15026160272354     -0.23796879042583      1.66749040245518
  H   -2.31838460388073     -1.07905201418733      0.64962858274197
  N   1.28247282281203      0.92630798025751      0.74962094008670
  H   1.08842630628805      0.52474222300063      1.65719245324327
  H   0.81041571999199      1.81929973949774      0.67627970238340
  C   1.37911317154052      0.50974123923929     -1.59375126435065
  N   1.78531136689442      0.87614796555565     -2.63183012631622
