15

C	-0.355096	0.010658	-1.5079
C	0.0	0.0	0.0
Cl	-0.029121	-1.680948	-2.146317
H	1.096968	0.0	0.0
N	-1.765675	0.230465	-1.716034
H	-2.023555	-0.03671	-2.658168
H	-1.938391	1.223963	-1.59759
N	0.4854	0.990689	-2.095019
H	0.402986	0.982424	-3.104176
H	1.460651	0.849926	-1.82415
C	-0.552616	-1.135071	0.726716
N	-0.981649	-2.044377	1.332538
C	-0.470067	1.251785	0.594029
N	-0.884272	2.249753	1.054198
Br	3.369551	0.0	0.0
