15

C	-0.348802	0.044237	-1.503251
C	0.0	0.0	0.0
Cl	0.159327	-1.683116	-2.159356
H	1.09524	0.0	0.0
N	-1.733901	0.237408	-1.734035
H	-1.915594	0.365301	-2.722378
H	-2.253474	-0.571859	-1.416402
N	0.44304	1.048422	-2.084697
H	1.419593	0.928023	-1.81111
H	0.373644	1.041593	-3.094569
C	-0.562275	-1.155341	0.687367
N	-1.056235	-2.073749	1.227988
C	-0.458374	1.233123	0.643923
N	-0.808598	2.21087	1.191458
Br	3.355297	0.0	0.0
