15

C	-0.291527	-0.003348	-1.515702
C	0.0	0.0	0.0
Cl	-2.084905	0.430618	-1.794894
H	1.101265	0.0	0.0
N	0.476983	1.059836	-2.07423
H	0.348092	1.115826	-3.076115
H	1.459988	0.896022	-1.849393
N	-0.003597	-1.294453	-2.035784
H	-0.051525	-1.285125	-3.047162
H	-0.627833	-2.006375	-1.672761
C	-0.51757	-1.1879	0.667739
N	-0.935581	-2.157246	1.183124
C	-0.476165	1.214874	0.654932
N	-0.862984	2.168459	1.219677
Br	3.359805	0.0	0.0
