15

C	-0.353173	0.265411	-1.484508
C	0.0	0.0	0.0
Cl	-0.021225	-1.294693	-2.398379
H	1.100731	0.0	0.0
N	-1.764156	0.513489	-1.655531
H	-1.941315	1.470441	-1.366075
H	-2.018263	0.414142	-2.630732
N	0.486004	1.332205	-1.897653
H	1.461646	1.148583	-1.654684
H	0.403705	1.493525	-2.893831
C	-0.555504	-1.240457	0.523386
N	-1.007079	-2.22146	0.98338
C	-0.468597	1.132611	0.798609
N	-0.874771	2.039451	1.42499
Br	3.371104	0.0	0.0
