15

C	-0.354071	0.2399	-1.482099
C	0.0	0.0	0.0
Cl	0.18366	-1.377498	-2.363644
H	1.100589	0.0	0.0
N	-1.743683	0.432745	-1.681483
H	-2.245401	-0.410858	-1.430087
H	-1.937887	0.636996	-2.655667
N	0.417798	1.32437	-1.927805
H	1.399651	1.172417	-1.692403
H	0.328752	1.464566	-2.926222
C	-0.563909	-1.237355	0.524442
N	-1.076371	-2.20615	0.946288
C	-0.457863	1.133094	0.806728
N	-0.811279	2.015567	1.496655
Br	3.353933	0.0	0.0
