15

C	-0.3448	-0.158771	-1.496394
C	0.0	0.0	0.0
Cl	0.178097	1.514185	-2.279101
H	1.093796	0.0	0.0
N	0.444141	-1.207236	-1.997637
H	1.420241	-1.070423	-1.731579
H	0.377459	-1.279559	-3.004911
N	-1.730501	-0.358613	-1.716904
H	-2.244378	0.473095	-1.451533
H	-1.91224	-0.546781	-2.695782
C	-0.4636	-1.177837	0.736619
N	-0.84649	-2.10096	1.353172
C	-0.562412	1.205536	0.595089
N	-1.065152	2.146326	1.086549
Br	3.356499	0.0	0.0
