15

C	-0.208197	-0.00929	-1.539847
C	0.0	0.0	0.0
Cl	-1.977367	-0.017053	-1.91544
H	1.101347	0.0	0.0
N	0.350844	1.161356	-2.171314
H	-0.097105	2.006431	-1.831999
H	1.339937	1.19352	-1.921466
N	0.383366	-1.222413	-2.014252
H	1.340151	-1.268227	-1.659702
H	0.420654	-1.17279	-3.026996
C	-0.525676	-1.177818	0.675322
N	-0.955842	-2.11018	1.245049
C	-0.49213	1.230921	0.60152
N	-0.895403	2.235308	1.058148
Br	3.34028	0.0	0.0
