15

C	-0.206259	-0.033269	-1.539825
C	0.0	0.0	0.0
Cl	-1.976128	-0.035652	-1.916265
H	1.101791	0.0	0.0
N	0.38438	1.166876	-2.04565
H	1.341027	1.222416	-1.692357
H	0.421871	1.090103	-3.056539
N	0.352605	-1.220076	-2.139284
H	-0.093458	-2.056328	-1.77674
H	1.342104	-1.24445	-1.891791
C	-0.492816	-1.214609	0.632359
N	-0.890609	-2.21165	1.109263
C	-0.528455	1.19561	0.640307
N	-0.962589	2.141708	1.184235
Br	3.341347	0.0	0.0
