17

C	-0.26961	0.095328	-1.500891
C	0.0	0.0	0.0
Cl	-2.068217	0.440043	-1.795204
H	1.093832	0.0	0.0
N	0.509871	1.154261	-2.055196
H	0.727898	0.93983	-3.020413
H	1.381762	1.222871	-1.525143
C	0.020733	-1.259734	-2.130659
H	-0.08353	-1.176025	-3.215756
H	-0.650891	-2.041006	-1.774986
H	1.056825	-1.516474	-1.883354
C	-0.540416	-1.19601	0.605325
N	-0.892696	-2.215478	1.074304
N	-0.407105	1.19163	0.768716
O	-1.190371	1.0489	1.713984
O	0.123266	2.25402	0.447076
H	2.525924	0.0	0.0
