17

C	-0.468925	-0.018053	-1.467396
C	0.0	0.0	0.0
Cl	0.201017	1.463576	-2.237451
H	1.089896	0.0	0.0
N	0.201422	-1.170721	-2.052388
H	-0.430892	-1.960915	-2.066317
H	0.504952	-0.965528	-2.993459
C	-1.967511	-0.041918	-1.724594
H	-2.462226	0.843199	-1.337726
H	-2.394328	-0.929726	-1.246808
H	-2.122544	-0.111808	-2.805475
C	-0.497793	-1.171607	0.68933
N	-0.93447	-2.136676	1.203515
N	-0.442315	1.202136	0.779352
O	0.332872	1.597414	1.643912
O	-1.541211	1.713623	0.531657
H	2.592468	0.0	0.0
