14

C	0.0	0.0	0.0
C	-0.498495	-0.082797	-1.43525
F	1.400135	0.0	0.0
H	-1.603043	-0.129734	-1.368909
H	-0.301634	-0.913594	0.518396
N	-0.460551	1.225463	0.568098
H	-1.482825	1.196477	0.523114
H	-0.208893	1.231065	1.550222
N	-0.049453	-1.372192	-2.073914
O	-0.118942	-2.378528	-1.377006
O	0.309342	-1.343599	-3.247632
C	-0.056026	1.045962	-2.241724
N	0.285148	1.962252	-2.891158
Cl	-3.450095	0.0	0.0
