14

C	0.0	0.0	0.0
C	-0.504554	-0.217519	-1.423267
F	1.372874	0.0	0.0
H	-1.607828	-0.268126	-1.351889
H	-0.314448	-0.860077	0.598762
N	-0.473079	1.272605	0.446359
H	-1.494821	1.228205	0.402719
H	-0.221118	1.380234	1.422474
N	-0.038975	-1.554652	-1.937818
O	0.372962	-1.626165	-3.093368
O	-0.142944	-2.499281	-1.161902
C	-0.07003	0.837784	-2.32828
N	0.270285	1.687068	-3.062962
Cl	-3.456356	0.0	0.0
