14

C	0.0	0.0	0.0
C	-0.500075	0.006591	-1.436198
F	1.399888	0.0	0.0
H	-1.60502	-0.037675	-1.368955
H	-0.301493	-0.942176	0.463484
N	-0.459819	1.190718	0.639921
H	-0.204623	1.142387	1.619778
H	-1.482127	1.163457	0.595022
N	-0.062185	-1.243867	-2.155522
O	-0.120774	-2.289346	-1.516979
O	0.27364	-1.147259	-3.33208
C	-0.052418	1.179867	-2.173523
N	0.282508	2.127294	-2.780212
Cl	-3.444381	0.0	0.0
