14

C	0.0	0.0	0.0
C	-0.511459	-0.050861	-1.429997
F	1.399865	0.0	0.0
H	-1.617255	-0.072148	-1.344108
H	-0.301918	-0.921274	0.503102
N	-0.453611	1.216891	0.594317
H	-0.193552	1.20576	1.574171
H	-1.475139	1.197555	0.553796
N	-0.113762	-1.339169	-2.101102
O	0.142939	-1.306039	-3.300765
O	-0.130832	-2.350136	-1.406594
C	-0.052058	1.07999	-2.224188
N	0.313128	2.000367	-2.855216
Cl	-3.447254	0.0	0.0
