17
Coordinates from ORCA-job run
  C   0.71828145189727      0.06885215303512      0.01072289584912
  C   -0.75788180301121      0.30931869340812      0.37476356434900
  F   1.28815563275702      1.37291104717021     -0.00699189615259
  H   -0.74990400252679      0.88265734816675      1.30847588402129
  C   1.46605395904171     -0.71045740676542      1.06948602109281
  H   2.52757716989141     -0.73909593758372      0.81262012166418
  H   1.08642648974008     -1.72953019593918      1.13934010927296
  H   1.36657008093886     -0.21683701119233      2.03721527620563
  N   0.83011219496768     -0.55747512107383     -1.25415170779875
  H   0.48302167592881      0.03831289120998     -1.99441785420470
  H   1.79243292778505     -0.79827787315342     -1.45458708671915
  C   -1.42356199077592     -0.96707354992506      0.63724432617383
  N   -1.97662582692548     -1.98085303562709      0.84763549220428
  C   -1.51765251799405      1.10780276365302     -0.68894700462388
  H   -2.50417303676764      1.38665149043784     -0.31553636805919
  H   -1.66175898525315      0.51681742109672     -1.59504306565878
  H   -0.96607341969365      2.01827632308228     -0.92682870761604
