17
Coordinates from ORCA-job run
  C   0.76612548668263      0.26451537963086      0.12777034268969
  C   -0.72505594648690      0.64209324257932      0.16779797743132
  F   1.37506187602001      1.07066326295314      1.12037758307460
  H   -0.77696949019079      1.71265181518855     -0.06901392891987
  C   1.05247678369690     -1.17206083442157      0.50258391625360
  H   2.13398237970198     -1.31050636718082      0.57161620958159
  H   0.65751369372552     -1.85744979850519     -0.24685977146362
  H   0.62099531314062     -1.40225111010772      1.47720126688509
  N   1.28632364933369      0.57092837810641     -1.15917226033393
  H   2.25490797523608      0.28330941480674     -1.22728707581364
  H   1.23543886616535      1.56837263034474     -1.33239387020934
  C   -1.24569053340827      0.47822197051317      1.52678221453638
  N   -1.69171143082399      0.30831273066712      2.59917735410949
  C   -1.57731185087258     -0.14494437077515     -0.83116690680361
  H   -1.62566280123160     -1.19926887527109     -0.55526952945578
  H   -1.14498709788230     -0.05879493568837     -1.82731684818963
  H   -2.59643687280637      0.24520746715986     -0.84482667337233
