17
Coordinates from ORCA-job run
  C   0.69453833582745      0.14361153301935      0.23328041830521
  C   -0.76126610283220      0.35382715184084     -0.22081747906641
  F   0.66994377914362      0.05702440669373      1.63322537084468
  H   -0.76267208635128      0.36812746945251     -1.31819888358351
  C   1.27604874030096     -1.17497656283118     -0.24792395309196
  H   1.26571841206498     -1.22607108909455     -1.33898637409643
  H   2.31183288856066     -1.24220109144164      0.09443589379832
  H   0.73728201327282     -2.02860532916432      0.16305443450052
  N   1.47073941682653      1.28538230531494     -0.11982353283354
  H   2.45477053684291      1.08189089881712     -0.21570944168540
  H   1.12839871196804      1.79334179842590     -0.92050369315327
  C   -1.24149925985662      1.66357974627849      0.23360967931041
  N   -1.67940291340531      2.69419673185385      0.58542941652691
  C   -1.71270421524182     -0.74176960322381      0.26983938380599
  H   -1.47315202588000     -1.69954082764756     -0.19332290227190
  H   -2.74187584427941     -0.48830005085171      0.01177158583943
  H   -1.63870038696132     -0.83951748744196      1.35264007685095
