17
Coordinates from ORCA-job run
  C   0.77449264756632      0.24302765290938      0.12008164749108
  C   -0.70570219218468      0.65808659294464      0.18671938231871
  F   1.41820521116882      1.02146514415541      1.11286928725768
  H   -0.73304814436120      1.73299068251025     -0.03400788032147
  C   1.02970522966027     -1.20466155071812      0.47383480214246
  H   0.60859728392798     -1.43496518497829      1.45289164735718
  H   2.10822265669274     -1.37182140465201      0.52303408853836
  H   0.60481992432659     -1.87094412863896     -0.27641050850380
  N   1.28351219723036      0.55165109647506     -1.17082890869780
  H   2.24366931645680      0.24133173244863     -1.25615621268206
  H   1.25487585519103      1.55205165671124     -1.33175015010379
  C   -1.21175397091534      0.48767760309677      1.55041546785284
  N   -1.64717038759240      0.31188443035588      2.62620869048953
  C   -1.59223246839212     -0.09179272184919     -0.81106075123330
  H   -1.17435488560909      0.00101553029394     -1.81279559803135
  H   -2.60193207300357      0.32231046061605     -0.80107935877377
  H   -1.66090620016251     -1.14930759168068     -0.55196564510050
