17
Coordinates from ORCA-job run
  C   0.72955708259294      0.10815209667643      0.21840752659640
  C   -0.73521341719041      0.32965576534254     -0.24198725315373
  F   0.68619152647009      0.13761555005882      1.61285224365178
  H   -0.73052160140535      0.29942866616364     -1.33860210759687
  C   1.26571636688106     -1.24465790266365     -0.20260312807025
  H   2.31126176504074     -1.30489800837516      0.10042431367595
  H   1.19739464681145     -1.38055214466271     -1.28511453509006
  H   0.71494015297589     -2.04478755251257      0.28985530868356
  N   1.64379716375376      1.13462037630229     -0.18275712047533
  H   1.91190914146433      1.03692739877367     -1.15227108085771
  H   1.26509995411622      2.06060885323608     -0.02258561606137
  C   -1.14775556342374      1.68045826467290      0.14863744213767
  N   -1.45834746465014      2.76768285849347      0.46524055349285
  C   -1.72776580427414     -0.70423638105457      0.29809443725090
  H   -2.74646898192938     -0.44409210091807      0.00572586092204
  H   -1.67529174679413     -0.73780708285721      1.38620473092440
  H   -1.50550322043918     -1.69511865667588     -0.09952157603022
