17
Coordinates from ORCA-job run
  C   0.66894848600927      0.27455749586774      0.06136974596410
  C   -0.84725836641554      0.13279274367776      0.30639161342172
  F   0.94854353294561      1.63834043525275      0.15526792164184
  H   -1.03060401109661      0.47838365002620      1.33019955520199
  C   1.49719697059032     -0.40188709345909      1.13975527522673
  H   2.55472951160857     -0.19740218446192      0.95655663184489
  H   1.23929246257924     -0.01364394402871      2.12776108002612
  H   1.34131539438989     -1.48220305154901      1.12824717250207
  N   0.97457117577716     -0.10827724468281     -1.29076323420320
  H   0.68792123219939     -1.06465810686135     -1.46467789070862
  H   1.97354786292742     -0.04191445773875     -1.44831842972333
  C   -1.21099344735984     -1.28285623993222      0.23925672618944
  N   -1.47561115776667     -2.42325761449242      0.14207194276673
  C   -1.68120642844763      0.96618948830705     -0.66991759568086
  H   -2.74154994632417      0.88713446240595     -0.42324785002481
  H   -1.52265758002916      0.63000790838852     -1.69322957635323
  H   -1.37618569158724      2.00969375328031     -0.59772308809159
