17
Coordinates from ORCA-job run
  C   0.68294665763653      0.06345589792465      0.28548360658364
  C   -0.72844877109361      0.45532541898857     -0.18590835819236
  F   0.59236992637157     -0.24076511406523      1.64625359665548
  H   -0.66622894690865      0.68641974868585     -1.25727499679681
  C   1.20070640733000     -1.19701050218772     -0.38818911181264
  H   2.21277693641473     -1.39410301236290     -0.02638027628632
  H   0.58712396829065     -2.06547438699032     -0.14797188957036
  H   1.23889534740868     -1.06743251330061     -1.47240201638421
  N   1.54213969227500      1.20373638344590      0.17077860313940
  H   1.39716122421278      1.71373302520117     -0.68926135988932
  H   2.51685017531939      0.94477755560258      0.25103826461879
  C   -1.16154325246256      1.67693039751446      0.50110313698773
  N   -1.57578747660436      2.63848234569650      1.03141804364824
  C   -1.76502103952433     -0.65223871012329      0.02914858649411
  H   -1.75314644855310     -0.97338853885798      1.07082367922461
  H   -2.76341574038219     -0.28303193674182     -0.20906550862507
  H   -1.55837865973052     -1.50941605842983     -0.61259399979489
