17
Coordinates from ORCA-job run
  C   0.71475140629842      0.09409327794452      0.03258193309858
  C   -0.78026361025897      0.29692757135577      0.33733076645621
  F   1.24143827720866      1.41551085660975     -0.01345768495165
  H   -0.82400480499985      0.90458782560322      1.24799077632041
  C   1.45035035988105     -0.62100117658863      1.14379547303911
  H   2.52090671266065     -0.61954446423400      0.92548346171149
  H   1.29834133092022     -0.09874312175905      2.08944180173926
  H   1.10444040222309     -1.65024242474678      1.23621456120623
  N   0.89123614266329     -0.57215365768888     -1.20409134656947
  H   0.55197508503142     -0.01451461382588     -1.97695600268208
  H   1.86695148299379     -0.78861041186337     -1.36291187474454
  C   -1.41310486173933     -0.99031820504332      0.62661324701992
  N   -1.94102834922856     -2.01302682311943      0.85788548151567
  C   -1.52825552073670      1.02763230986794     -0.78202801645972
  H   -1.62496808271840      0.39549994745037     -1.66621877016306
  H   -0.99645729346232      1.94406327732605     -1.04052078932963
  H   -2.53430867673647      1.29083983271171     -0.45215301720672
