17
Coordinates from ORCA-job run
  C   0.71550072666903      0.09039327127084      0.02775661453316
  C   -0.77592516697498      0.29576297228226      0.34828768579754
  F   1.24789297834487      1.40983646327329     -0.00485705389611
  H   -0.80913527658443      0.89169171076452      1.26713990569500
  C   1.45744913395613     -0.64303154120213      1.12269852649151
  H   1.31555222363961     -0.13335620376316      2.07683379120763
  H   1.10799167138776     -1.67211242041600      1.20368722374489
  H   2.52614525651741     -0.64256654205628      0.89515341266846
  N   0.87806278675885     -0.55982905925625     -1.21928353494084
  H   0.53492310618396      0.00993841153858     -1.98154280249480
  H   1.85133320969255     -0.77887501896767     -1.38964824782635
  C   -1.41159762551483     -0.99244687279659      0.62585484942098
  N   -1.94169145516859     -2.01623927976008      0.84715468578648
  C   -1.53049762649249      1.04445562566197     -0.75472425016555
  H   -1.63765261887405      0.42475314796504     -1.64651608646776
  H   -0.99686728393097      1.96206173713512     -1.00548867425383
  H   -2.53248403960983      1.30756359832655     -0.41250604530042
