17
Coordinates from ORCA-job run
  C   0.71567301262629      0.01713170559621      0.28134038572191
  C   -0.69515244417443      0.41662660248811     -0.22512033800333
  F   0.56788235743947     -0.19916615556642      1.65192296890881
  H   -0.60843928643750      0.58132951230038     -1.30629158693243
  C   1.20653673526379     -1.27240131568333     -0.34389740661284
  H   2.22136396395350     -1.45649739898403      0.00955721617577
  H   0.57693958568280     -2.10821871461572     -0.04207170123347
  H   1.21282686763854     -1.20832822163946     -1.43517010211261
  N   1.71324542331014      1.03376491609376      0.13439884148910
  H   2.04911937423567      1.09271323968551     -0.81690722447797
  H   1.37579275631819      1.93979914194739      0.43705937240622
  C   -1.06012451413402      1.70211798533971      0.37646570872962
  N   -1.33238575322502      2.73473877790318      0.86456672989100
  C   -1.78218048177363     -0.62593270911215      0.05243896342824
  H   -1.81658491601646     -0.85341980022023      1.11784422069696
  H   -1.58438610837935     -1.54450063220355     -0.50124517434061
  H   -2.75912657232798     -0.24975693332935     -0.25589087373438
