17
Coordinates from ORCA-job run
  C   0.82216932490658      0.29546285775677      0.21978791180673
  C   -0.68193838389477      0.65820839872553      0.20637490634046
  F   1.35645707928098      1.10186378027749      1.22982544316207
  H   -0.72050086667015      1.74195963536787      0.03549736828092
  C   1.10404390296065     -1.14332345607226      0.59291842341997
  H   2.18550395674841     -1.27717624824336      0.63926899909299
  H   0.69092281460702     -1.84004240630511     -0.13932340592675
  H   0.68012433014669     -1.36593871313550      1.57227969000571
  N   1.49988401482381      0.63707362054789     -0.99053143013696
  H   1.48690735472865     -0.10740260625363     -1.67126200586325
  H   1.16355241220856      1.49787728650928     -1.40170479369342
  C   -1.28258301693414      0.40736445167624      1.51769393403856
  N   -1.78239945020789      0.16513319813076      2.55217366150103
  C   -1.47761093617720     -0.06064305165725     -0.88530257797614
  H   -1.03435972012503      0.12822063648648     -1.86423430930869
  H   -1.50277415203677     -1.13716152142957     -0.70914116807201
  H   -2.50739866436542      0.29952413761839     -0.90232064667121
