17
Coordinates from ORCA-job run
  C   0.77782309586448      0.23074840581397      0.12043349101462
  C   -0.69629983935469      0.66479699036032      0.19791044619205
  F   1.43512272802113      0.98592252257583      1.12243222268977
  H   -0.71013688701459      1.74247204458818     -0.01023168333110
  C   1.01413136860004     -1.22538280633864      0.45240513280578
  H   0.59034993305579     -1.46488619405710      1.42826849029653
  H   2.09046364256109     -1.40688094972210      0.49868822070417
  H   0.58035583259630     -1.87486023403427     -0.30760629895457
  N   1.28739724151565      0.55126998674935     -1.16746036629760
  H   2.24239066558502      0.22748169753459     -1.26068959648556
  H   1.27376007913704      1.55449106971899     -1.31250286292506
  C   -1.19934116779852      0.48526785578923      1.56149080953206
  N   -1.63311729099434      0.30412821524594      2.63704668883757
  C   -1.59623764896075     -0.06082198403855     -0.80573565618845
  H   -1.18041822247208      0.03930102776537     -1.80762183523820
  H   -2.60029702552568      0.36644873294803     -0.78709114446571
  H   -1.67794650481588     -1.12049638089915     -0.55973605818630
