17
Coordinates from ORCA-job run
  C   0.69470474748271      0.02797428290738      0.16707991007788
  C   -0.72963508740057      0.45266011715952     -0.23827601690512
  F   0.63782286928421     -0.25263444704736      1.55647984422477
  H   -0.70096428834685      0.65865267288421     -1.31364229061899
  C   1.14317306016121     -1.24912707403555     -0.51134837823934
  H   1.09859632425991     -1.14409848241991     -1.59617049538588
  H   0.52826131553988     -2.09037393548043     -0.19519676916101
  H   2.17443835228348     -1.46533586507663     -0.22287424138949
  N   1.60198648230757      1.08190017017539     -0.11001613097093
  H   1.36117938540854      1.91928283660972      0.40778727710179
  H   2.54697685257714      0.81140988452585      0.13198379409245
  C   -1.05867277044242      1.71182118746600      0.43688312884576
  N   -1.31050343112961      2.71808419628347      0.98688590207538
  C   -1.79646739379914     -0.60136493395481      0.06951946749769
  H   -1.64663364790504     -1.49040381768459     -0.54401314115955
  H   -2.79043313326778     -0.20697343839998     -0.14666207250970
  H   -1.75382963701324     -0.88247335391229      1.12158021242428
