17
Coordinates from ORCA-job run
  C   0.74383840853427      0.31335261516283      0.15537506785408
  C   -0.75527351923121      0.65135986099044      0.23494331242287
  F   1.36410144547402      1.12287924261934      1.10875020864449
  H   -0.80592490028335      1.73435200932324      0.07909513991758
  C   1.07344255957277     -1.12438506893200      0.49762868063100
  H   0.68655974185282     -1.38725050755812      1.48314378401460
  H   2.15896348065813     -1.23971826103421      0.50415541119527
  H   0.65246334582480     -1.80933308932093     -0.24151224607273
  N   1.24012562751973      0.73924405170600     -1.14139003946899
  H   1.52405410230354     -0.05824579826847     -1.69616535997708
  H   2.05530134431875      1.32011121165580     -0.98974225106434
  C   -1.28297888452519      0.35471146909986      1.56823386409933
  N   -1.71728812824347      0.08135153455060      2.62424084567842
  C   -1.57917660455601     -0.05010008377298     -0.84578599698914
  H   -1.16201684873790      0.18988048918337     -1.82398916277449
  H   -1.58328706587354     -1.13247950032176     -0.70394765719570
  H   -2.61390410460817      0.29426982491698     -0.81303360091517
