14

C	0.0	0.0	0.0
C	-0.569998	0.008675	-1.405961
Br	1.915731	0.0	0.0
H	-1.702004	-0.058582	-1.072708
H	-0.365623	0.841269	0.579598
N	-0.455573	-1.221638	0.766585
O	-0.843693	-2.199443	0.145417
O	-0.350072	-1.144975	1.987264
N	-0.031559	-1.067954	-2.23992
H	-0.768842	-1.731031	-2.429758
H	0.328425	-0.70664	-3.112305
C	-0.328773	1.306713	-2.007176
N	-0.132122	2.33228	-2.551298
F	-2.654406	0.0	0.0
