14

C	0.0	0.0	0.0
C	-0.457807	0.047737	-1.47773
Br	1.946545	0.0	0.0
H	0.430775	-0.003378	-2.11486
H	-0.348597	0.86911	0.53817
N	-0.393936	-1.195521	0.807246
O	-0.574202	-0.999189	2.002434
O	-0.394841	-2.286013	0.249622
N	-1.082054	1.354498	-1.665399
H	-1.33907	1.442413	-2.643711
H	-1.936937	1.213964	-1.098596
C	-1.316268	-1.068169	-1.925861
N	-1.89435	-1.870344	-2.563448
F	-2.420829	0.0	0.0
