14

C	0.0	0.0	0.0
C	-0.46525	0.429446	-1.412839
Br	1.934119	0.0	0.0
H	0.419722	0.538609	-2.048761
H	-0.355408	0.695946	0.745715
N	-0.396967	-1.365404	0.467125
O	-0.586436	-1.486102	1.670764
O	-0.388327	-2.274606	-0.354023
N	-1.086346	1.741234	-1.249459
H	-1.345251	2.082335	-2.169991
H	-1.94156	1.454024	-0.741532
C	-1.333768	-0.529293	-2.126347
N	-1.922539	-1.134595	-2.945
F	-2.431561	0.0	0.0
