14

C	0.0	0.0	0.0
C	-0.446542	0.198321	-1.487425
Br	1.947701	0.0	0.0
H	0.45877	0.225412	-2.104572
H	-0.350981	0.80857	0.625362
N	-0.388453	-1.261473	0.708003
O	-0.590358	-1.161889	1.911568
O	-0.363897	-2.30382	0.066002
N	-1.169064	1.445232	-1.683263
H	-1.955959	1.301035	-1.029235
H	-0.582552	2.207815	-1.358696
C	-1.254512	-0.896862	-2.042398
N	-1.785231	-1.721084	-2.688353
F	-2.387825	0.0	0.0
