16

C	-0.431707	-0.058501	-1.438526
C	0.0	0.0	0.0
F	0.10083	0.954819	-2.17855
H	1.095877	0.0	0.0
H	-0.191693	-1.020835	-1.887326
N	-1.939222	0.089096	-1.558577
O	-2.401253	1.203387	-1.8009
O	-2.610225	-0.918185	-1.324636
N	-0.372786	-1.253049	0.657541
H	-1.230298	-1.162953	1.189568
H	0.385927	-1.487165	1.282173
C	-0.482172	1.25918	0.700997
H	0.042565	1.340017	1.656555
H	-0.244746	2.149032	0.112892
H	-1.564928	1.252022	0.892547
F	2.628904	0.0	0.0
