16

C	-0.423077	0.046106	-1.441697
C	0.0	0.0	0.0
F	-1.794624	0.157992	-1.604206
H	1.094043	0.0	0.0
H	0.059511	0.856325	-1.986305
N	-0.02817	-1.209471	-2.168306
O	-0.79346	-2.170298	-2.101821
O	1.049581	-1.192722	-2.751927
N	-0.469845	-1.180906	0.719316
H	-1.329742	-1.541741	0.322255
H	0.24168	-1.896028	0.635972
C	-0.471538	1.273601	0.689095
H	-1.562324	1.322511	0.779208
H	-0.116434	2.163002	0.157705
H	-0.035906	1.282494	1.688829
F	2.635918	0.0	0.0
