16

C	-0.49646	0.004208	-1.429495
C	0.0	0.0	0.0
F	-0.028047	-1.079514	-2.123085
H	1.095644	0.0	0.0
H	-1.591194	0.006398	-1.514346
N	-0.069933	1.236207	-2.189441
O	0.957861	1.191693	-2.850326
O	-0.815363	2.212773	-2.071691
N	-0.414875	-1.251713	0.642136
H	0.234688	-1.96764	0.345146
H	-1.344885	-1.540179	0.352464
C	-0.510294	1.189129	0.793982
H	-0.093576	2.126847	0.422974
H	-0.175809	1.047982	1.823741
H	-1.606968	1.272847	0.792002
F	2.632155	0.0	0.0
