16

C	-0.571337	-0.021172	-1.39268
C	0.0	0.0	0.0
F	-0.11304	-1.103425	-2.092388
H	1.100887	0.0	0.0
H	-1.664908	-0.046476	-1.403638
N	-0.198466	1.207781	-2.183908
O	0.767522	1.16081	-2.931475
O	-0.926875	2.187917	-2.006933
N	-0.504922	-1.26438	0.600772
H	0.15532	-1.97674	0.300992
H	-0.348344	-1.17902	1.6005
C	-0.506729	1.177377	0.810011
H	-1.60077	1.189672	0.895662
H	-0.075461	1.105527	1.813286
H	-0.17463	2.125097	0.387584
F	2.657599	0.0	0.0
