16

C	-0.291976	-0.029746	-1.480879
C	0.0	0.0	0.0
F	0.138545	1.097585	-2.116437
H	1.096146	0.0	0.0
H	0.146876	-0.90966	-1.9555
N	-1.782284	-0.11435	-1.748162
O	-2.408392	0.920456	-1.954748
O	-2.28728	-1.238954	-1.651639
N	-0.364895	-1.246329	0.677417
H	-1.152696	-1.714933	0.245192
H	0.445055	-1.852648	0.634152
C	-0.601451	1.210714	0.681226
H	-0.17784	1.27223	1.685041
H	-1.691946	1.138353	0.77363
H	-0.356836	2.129336	0.143098
F	2.628153	0.0	0.0
