16

C	-0.497569	0.067018	-1.4156
C	0.0	0.0	0.0
F	-1.820032	0.461206	-1.521501
H	1.093452	0.0	0.0
H	0.109273	0.737764	-2.026975
N	-0.402167	-1.285768	-2.070563
O	0.727253	-1.636288	-2.3894
O	-1.430926	-1.932606	-2.227936
N	-0.438637	-1.233149	0.649353
H	0.337346	-1.558768	1.210925
H	-1.2374	-1.077967	1.251461
C	-0.403814	1.270468	0.739796
H	-0.096268	2.163876	0.187313
H	0.122461	1.283896	1.69682
H	-1.48416	1.330673	0.918336
F	2.633585	0.0	0.0
