16

C	-0.466428	0.049743	-1.429701
C	0.0	0.0	0.0
F	-1.740782	0.55947	-1.590655
H	1.097396	0.0	0.0
H	0.21671	0.635801	-2.048816
N	-0.472747	-1.3353	-2.018583
O	-1.552585	-1.868393	-2.247777
O	0.630608	-1.827089	-2.216955
N	-0.448166	-1.225595	0.66071
H	-1.209027	-1.044954	1.302536
H	0.342011	-1.572795	1.190216
C	-0.411602	1.276114	0.721883
H	-0.091238	2.1635	0.167195
H	0.097357	1.295713	1.688505
H	-1.49513	1.341738	0.880698
F	2.639694	0.0	0.0
