16

C	-0.543306	-0.019051	-1.408083
C	0.0	0.0	0.0
F	0.086118	-0.9493	-2.177976
H	1.095026	0.0	0.0
H	-1.618608	-0.214176	-1.444911
N	-0.375819	1.315127	-2.095194
O	-1.297357	2.118185	-1.924883
O	0.639841	1.525075	-2.744087
N	-0.433438	-1.28336	0.588826
H	-1.017192	-1.115348	1.40037
H	0.415231	-1.73666	0.908062
C	-0.470196	1.199131	0.804396
H	-1.564644	1.275985	0.870414
H	-0.086225	2.134214	0.393103
H	-0.057832	1.099371	1.812264
F	2.638542	0.0	0.0
