16

C	-0.444308	0.017945	-1.433519
C	0.0	0.0	0.0
F	-1.826712	-0.015546	-1.569259
H	1.094045	0.0	0.0
H	-0.065672	0.880282	-1.981709
N	0.06222	-1.180891	-2.191163
O	-0.554728	-2.235849	-2.057829
O	1.067022	-1.022307	-2.876464
N	-0.450375	-1.181011	0.734714
H	-1.291585	-1.574428	0.329272
H	0.282705	-1.875287	0.668033
C	-0.485421	1.272227	0.682139
H	-1.57672	1.306888	0.775326
H	-0.048229	1.293727	1.680932
H	-0.144015	2.162558	0.144184
F	2.631521	0.0	0.0
