16

C	-0.442477	-0.049368	-1.434985
C	0.0	0.0	0.0
F	0.088936	0.962855	-2.177039
H	1.095885	0.0	0.0
H	-0.212697	-1.011821	-1.888368
N	-1.948054	0.106861	-1.539631
O	-2.402986	1.231567	-1.741848
O	-2.622799	-0.90399	-1.336275
N	-0.360914	-1.262193	0.645205
H	-1.210279	-1.178525	1.190149
H	0.405972	-1.504807	1.258228
C	-0.485547	1.249202	0.716259
H	-0.260746	2.145253	0.133585
H	0.047479	1.324646	1.666802
H	-1.56607	1.234839	0.917561
F	2.62584	0.0	0.0
