16

C	-0.281201	-0.023299	-1.485742
C	0.0	0.0	0.0
F	0.114368	1.12578	-2.102246
H	1.096156	0.0	0.0
H	0.1961	-0.877977	-1.965387
N	-1.761008	-0.16178	-1.76795
O	-2.430917	0.851508	-1.94609
O	-2.216443	-1.309195	-1.709695
N	-0.363029	-1.251057	0.666876
H	-1.157962	-1.710593	0.238255
H	0.441754	-1.863747	0.604324
C	-0.611933	1.202957	0.686375
H	-1.70419	1.130311	0.766004
H	-0.361285	2.126842	0.160782
H	-0.198982	1.254207	1.69525
F	2.629609	0.0	0.0
