15

C	-0.446496	-0.036339	-1.461627
C	0.0	0.0	0.0
F	0.098816	-1.09177	-2.085823
H	1.094172	0.0	0.0
C	-1.900932	-0.010561	-1.660542
N	-3.060324	0.025799	-1.849393
N	0.103064	1.233917	-2.162379
O	-0.367292	2.288184	-1.756923
O	0.913231	1.059866	-3.052637
N	-0.437194	-1.259879	0.71022
O	-1.111799	-2.07576	0.086722
O	-0.064068	-1.359159	1.869774
C	-0.525982	1.122711	0.754977
N	-0.959201	1.992625	1.416216
Cl	3.074365	0.0	0.0
