15

C	-0.436033	0.03892	-1.464574
C	0.0	0.0	0.0
F	0.003929	-1.058024	-2.101787
H	1.093769	0.0	0.0
C	-1.876778	0.219263	-1.68038
N	-3.023572	0.372517	-1.888929
N	0.246552	1.256306	-2.138984
O	0.862301	1.034333	-3.163793
O	0.050856	2.328389	-1.58723
N	-0.464511	-1.287902	0.638567
O	-1.320087	-1.948221	0.055394
O	0.045679	-1.549508	1.716434
C	-0.53286	1.082467	0.807953
N	-0.994973	1.906791	1.507003
Cl	3.082821	0.0	0.0
