15

C	-0.442849	0.008583	-1.462234
C	0.0	0.0	0.0
F	-0.005164	-1.103519	-2.075845
H	1.093768	0.0	0.0
C	-1.883751	0.184971	-1.680498
N	-3.027835	0.338724	-1.899887
N	0.238149	1.210745	-2.160589
O	-0.043154	2.300918	-1.684147
O	0.937319	0.963884	-3.124514
N	-0.467753	-1.273275	0.664413
O	0.070188	-1.535876	1.730153
O	-1.354316	-1.921991	0.110496
C	-0.526684	1.101732	0.785068
N	-0.966212	1.944159	1.477104
Cl	3.084524	0.0	0.0
