15

C	-0.451233	-0.007042	-1.433031
C	0.0	0.0	0.0
F	-0.289328	1.245406	-1.956675
H	1.096448	0.0	0.0
C	0.248057	-0.971401	-2.29032
N	0.864772	-1.701392	-2.97383
N	-1.970726	-0.26717	-1.570982
O	-2.372936	-0.474905	-2.710732
O	-2.654909	-0.132288	-0.566023
N	-0.302392	-1.277232	0.679476
O	-0.40878	-1.246916	1.912659
O	-0.760785	-2.190374	-0.033267
C	-0.476091	1.14737	0.733765
N	-0.817036	2.11557	1.307102
Cl	2.826586	0.0	0.0
