15

C	-0.45254	0.010782	-1.459702
C	0.0	0.0	0.0
F	-0.053896	-1.121889	-2.063316
H	1.093776	0.0	0.0
C	-1.8865	0.231327	-1.681411
N	-3.024282	0.409172	-1.915674
N	0.262132	1.186195	-2.168589
O	0.922169	0.916831	-3.153556
O	0.040595	2.281941	-1.676402
N	-0.473218	-1.275875	0.657739
O	-1.453615	-1.832867	0.171571
O	0.148129	-1.630676	1.645616
C	-0.526028	1.097909	0.790103
N	-0.929269	1.970441	1.466444
Cl	3.103131	0.0	0.0
