15

C	-0.618208	0.07005	-1.391739
C	0.0	0.0	0.0
F	-1.972042	-0.023907	-1.305011
H	1.09437	0.0	0.0
C	-0.261824	1.323648	-2.06228
N	-0.059084	2.334737	-2.62579
N	-0.140615	-1.062856	-2.329399
O	-0.999231	-1.8156	-2.754254
O	1.051162	-1.042075	-2.578532
N	-0.400053	-1.280732	0.680067
O	-0.68012	-1.229208	1.870701
O	-0.348507	-2.291215	-0.01289
C	-0.483456	1.136315	0.771613
N	-0.854918	2.083833	1.358864
Cl	3.070783	0.0	0.0
