15

C	-0.474306	0.001765	-1.444247
C	0.0	0.0	0.0
F	-0.039024	-1.126816	-2.049695
H	1.09354	0.0	0.0
C	-1.921407	0.147335	-1.664597
N	-3.072267	0.265325	-1.86988
N	0.202377	1.200394	-2.139752
O	-0.344373	2.283973	-1.936134
O	1.196655	0.958782	-2.815481
N	-0.453331	-1.296882	0.632381
O	0.368627	-1.923971	1.284655
O	-1.615993	-1.637125	0.422165
C	-0.54308	1.102927	0.767121
N	-0.985085	1.986776	1.402427
Cl	3.062086	0.0	0.0
