15

C	-0.621482	0.052619	-1.390543
C	0.0	0.0	0.0
F	-1.975083	-0.036612	-1.299183
H	1.094261	0.0	0.0
C	-0.263336	1.296496	-2.07839
N	-0.058134	2.298594	-2.656885
N	-0.148804	-1.092757	-2.314567
O	-1.011545	-1.841115	-2.739223
O	1.044833	-1.084422	-2.556105
N	-0.398511	-1.271772	0.697599
O	-0.366628	-2.289555	0.014193
O	-0.656625	-1.206572	1.892433
C	-0.48223	1.145438	0.758647
N	-0.86228	2.101715	1.325691
Cl	3.069974	0.0	0.0
