15

C	-0.439277	-0.007266	-1.454976
C	0.0	0.0	0.0
F	-0.249058	1.241806	-1.965814
H	1.095661	0.0	0.0
C	0.250955	-0.984596	-2.297089
N	0.770212	-1.748644	-3.022222
N	-1.958452	-0.246362	-1.602398
O	-2.350865	-0.452774	-2.743643
O	-2.643341	-0.126403	-0.595958
N	-0.408768	-1.259674	0.688504
O	-0.672613	-2.217492	-0.036126
O	-0.390294	-1.25823	1.910133
C	-0.483087	1.164558	0.718172
N	-0.839523	2.130019	1.283878
Cl	3.050432	0.0	0.0
