15

C	-0.509904	-0.011701	-1.428296
C	0.0	0.0	0.0
F	-1.843352	-0.293201	-1.491398
H	1.093362	0.0	0.0
C	-0.259512	1.27166	-2.095869
N	-0.089211	2.300191	-2.638294
N	0.220072	-1.085824	-2.27745
O	1.408772	-0.866605	-2.460827
O	-0.463751	-1.994634	-2.725849
N	-0.351608	-1.272264	0.707263
O	-0.019235	-2.301514	0.061369
O	-1.291562	-1.259186	1.509196
C	-0.548211	1.13284	0.704276
N	-1.002161	2.083288	1.230002
Cl	2.849687	0.0	0.0
