12
Coordinates from ORCA-job run
  C   -0.54367025324250      0.43693370446265      0.32602476544103
  C   0.97967270966164      0.55400164849642      0.29728497774935
  F   -0.93044878586838      0.73801265325179      1.63090772322474
  H   1.40739583024197     -0.18029255597976      0.98596730079281
  H   -0.98490213563133      1.20180542499304     -0.32004272284509
  H   1.27106456749120      1.54738718092944      0.64797155986796
  C   -1.05257399671280     -0.93819852974506     -0.03219182125008
  H   -0.62019560435500     -1.68390964671280      0.63860887706737
  H   -0.79187702057844     -1.19340669267866     -1.06109448801942
  H   -2.13814330561115     -0.96901575099316      0.07038642650451
  C   1.50734738821744      0.33407285138357     -1.04587963256889
  N   1.89633060638735      0.15360971259253     -2.13794296596427
