13

C	0.0	0.0	0.0
C	-0.463594	-0.145884	-1.409721
F	1.350351	0.0	0.0
H	-0.333425	0.810071	-1.914072
H	-0.483581	0.799068	0.554199
H	-1.546307	-0.412694	-1.339054
N	-0.183727	-1.340403	0.906051
O	-1.184056	-2.035483	0.888324
O	0.812691	-1.580381	1.597938
N	0.42336	-1.107992	-2.134147
O	0.803871	-0.806399	-3.270919
O	0.70004	-2.17205	-1.578623
F	-2.48228	0.0	0.0
