15

C	-0.462926	0.021059	-1.453543
C	0.0	0.0	0.0
Br	-0.072295	1.865054	-2.075185
H	1.088126	0.0	0.0
H	-0.340637	0.86757	0.562026
C	0.325244	-0.936309	-2.339604
H	0.064323	-1.958513	-2.07032
H	1.386956	-0.771726	-2.136782
H	0.097277	-0.760275	-3.392379
C	-1.910497	-0.134794	-1.600113
N	-3.075643	-0.244073	-1.715771
N	-0.444145	-1.177947	0.731002
O	-0.812422	-2.181505	0.102004
O	-0.335272	-1.13388	1.960112
H	2.621449	0.0	0.0
