15

C	-0.403502	0.027495	-1.445245
C	0.0	0.0	0.0
Br	-2.403314	0.140836	-1.641728
H	1.093755	0.0	0.0
H	-0.333986	0.900805	0.512505
C	0.21424	1.27248	-2.064033
H	1.29385	1.207263	-1.893257
H	-0.171346	2.163618	-1.565938
H	-0.004157	1.3284	-3.129346
C	0.000331	-1.140452	-2.22373
N	0.310506	-1.988811	-2.973249
N	-0.474201	-1.135862	0.770627
O	-0.585225	-2.226983	0.203893
O	-0.650049	-0.954349	1.982159
H	2.581457	0.0	0.0
