15

C	-0.49887	0.020252	-1.434485
C	0.0	0.0	0.0
Br	-0.00217	-1.75228	-2.183203
H	1.105705	0.0	0.0
H	-0.329913	-0.893482	0.52726
C	-2.011787	0.160097	-1.571521
H	-2.50226	-0.622715	-0.9897
H	-2.303043	1.140033	-1.190652
H	-2.315197	0.073097	-2.617012
C	0.167368	1.010815	-2.28462
N	0.59418	1.782225	-3.062298
N	-0.418083	1.146345	0.74728
O	-0.56397	2.227804	0.139352
O	-0.464624	1.037304	1.985662
H	2.473324	0.0	0.0
