18

C	-0.03457	0.112981	0.040263
C	-0.568183	0.23653	-1.412601
Cl	1.777447	-0.107715	-0.023326
H	-1.633065	0.470881	-1.295111
C	-0.324097	1.335787	0.887769
H	0.135593	2.24017	0.491857
H	0.036371	1.139677	1.897821
H	-1.408456	1.473917	0.922168
N	-0.604253	-1.051615	0.673761
H	-1.587229	-1.141628	0.317835
H	-0.147187	-1.87382	0.291704
N	-0.489866	-0.914976	-2.232602
H	0.35914	-1.438964	-2.063261
H	-1.327654	-1.459718	-1.979996
N	0.045664	1.425245	-2.108473
O	1.006468	1.237496	-2.849383
O	-0.446895	2.53251	-1.868287
H	-2.871617	-1.403519	-0.829849
