18

C	-0.059553	-0.006454	-0.013093
C	-0.394817	0.099976	-1.5154
Cl	1.753722	-0.253396	0.157795
H	0.392893	0.659075	-2.02913
C	-0.365051	1.316892	0.678829
H	0.105701	2.162265	0.170272
H	-1.44889	1.442583	0.692001
H	0.005172	1.267714	1.706705
N	-0.722202	-1.148586	0.539155
H	-1.755364	-0.964281	0.46353
H	-0.515895	-1.179803	1.534253
N	-1.67566	0.66442	-1.691796
H	-2.384614	0.274672	-1.026104
H	-2.004297	0.52966	-2.639341
N	-0.246174	-1.30565	-2.148583
O	-1.264164	-1.958146	-2.349458
O	0.89207	-1.65659	-2.458291
H	-3.288254	-0.269485	0.282776
