18

C	-0.03531	0.018348	0.06253
C	-0.530059	0.038689	-1.381529
Cl	1.865519	-0.254385	-0.00756
H	-1.647603	0.074632	-1.281141
C	-0.18668	1.322312	0.824419
H	0.135629	1.153999	1.855854
H	-1.246907	1.589419	0.815209
H	0.398934	2.140187	0.40946
N	-0.666563	-1.075444	0.676257
H	-1.612488	-1.204334	0.244286
H	-0.782239	-0.901766	1.667241
N	-0.18905	-1.132414	-2.090941
H	-0.804822	-1.253111	-2.882928
H	0.778011	-1.119936	-2.382623
N	-0.102499	1.311362	-2.094918
O	0.736699	1.226554	-2.99515
O	-0.656636	2.362627	-1.766525
H	-3.072539	-0.739965	-0.595428
