13
Coordinates from ORCA-job run
  C   0.83045639935780      0.71632849936056      0.05859274567953
  C   -0.21736913342491     -0.02091089279712      0.88296688718198
  Br  0.17613834920972      2.34448546597195     -0.72510326358155
  H   0.29419976562304     -0.88808547846749      1.31070337020219
  H   1.68794779304335      0.98171662163363      0.67562789476543
  H   -0.49860109470780      0.63245039091149      1.71282910567559
  N   1.36519443204291     -0.23408877427270     -0.99318245463272
  O   1.98550247430198     -1.18113651420747     -0.51483013849779
  O   1.06008275803908     -0.09267889571956     -2.16843849812847
  C   -1.43636898957860     -0.47099994150146      0.08902322040332
  H   -2.01532476484449      0.37599622492548     -0.27921003093948
  H   -1.14656498445890     -1.08204729217267     -0.76918225699254
  H   -2.08529300460320     -1.08102941366465      0.72020341886450
