13
Coordinates from ORCA-job run
  C   0.83313809385102      0.72680338060095      0.05134134948419
  C   -0.20084686479553      0.00357932101931      0.90168112697366
  Br  0.18801716642034      2.38763893692467     -0.67849456409056
  H   -0.52452626746830      0.69905382910204      1.68032190912503
  H   1.73580400729886      0.95314883567507      0.61572113436518
  H   0.32384179527170     -0.82051446540912      1.39538821873464
  N   1.28094711065344     -0.22030172428020     -1.04152223854533
  O   2.04124326248476     -1.09765477273877     -0.63752050450337
  O   0.82867959310082     -0.11430014275092     -2.17173012957828
  C   -1.39520303912610     -0.52401776317211      0.11598041505636
  H   -1.89594430187362      0.27347918031603     -0.43436386346382
  H   -1.09668489916207     -1.29484605174273     -0.59692185384081
  H   -2.11846565665531     -0.97006856354422      0.80111900028311
