13
Coordinates from ORCA-job run
  C   0.84265182485056      0.71392064901631      0.07469966891060
  C   -0.21177020375004     -0.01053382403576      0.89890848027105
  Br  0.23036421139271      2.39676649402819     -0.63137323718924
  H   -0.53496820271049      0.67493537740462      1.68660856153301
  H   1.74155265596681      0.91540406348138      0.65431677502891
  H   0.29545044484301     -0.85092645015666      1.38330821440704
  N   1.29005026448383     -0.21917957125185     -1.03034323375863
  O   2.03446892734874     -1.11370708097060     -0.63450204459608
  O   0.85047391443589     -0.08716210237645     -2.16283868055175
  C   -1.40393667463730     -0.50612989009269      0.08958581798025
  H   -2.14148542303759     -0.95492430544324      0.75747614178586
  H   -1.10790018372451     -1.26720784558163     -0.63473671616740
  H   -1.88695155546162      0.30874448597839     -0.45110974765361
