18

C	0.0	0.0	0.0
C	-0.311582	-0.092841	-1.551849
F	1.449694	0.0	0.0
H	0.673741	-0.091637	-2.02457
N	-0.426179	1.155349	0.712833
H	-1.454049	1.05533	0.659609
H	-0.14209	1.989333	0.215366
N	-0.451428	-1.196601	0.630981
H	-1.480668	-1.074722	0.543867
H	-0.230046	-1.061202	1.613707
N	-0.914012	1.176409	-2.092256
O	-1.946502	1.126875	-2.751356
O	-0.272053	2.215235	-1.898086
C	-1.126238	-1.283847	-2.005354
H	-0.641724	-2.189956	-1.644025
H	-2.119032	-1.187118	-1.566538
H	-1.186643	-1.309087	-3.0957
F	-2.736792	0.0	0.0
