16

C	0.0	0.0	0.0
C	-0.487984	-0.022982	-1.445586
Cl	1.803872	0.0	0.0
H	-1.576824	-0.171094	-1.350783
H	-0.026731	-0.901287	-1.914156
C	-0.390061	1.231738	0.695664
N	-0.545105	2.245925	1.269478
C	-0.471611	-1.236502	0.746768
H	-0.095836	-2.122315	0.225341
H	-1.571046	-1.197108	0.726416
H	-0.094374	-1.23995	1.772458
C	-0.18858	1.241489	-2.236987
H	0.866814	1.522422	-2.187012
H	-0.44968	1.095583	-3.288992
H	-0.789203	2.070099	-1.856343
H	-3.150339	0.0	0.0
