16

C	0.0	0.0	0.0
C	-0.562658	-0.027894	-1.41563
Cl	1.804874	0.0	0.0
H	-0.138392	0.812401	-1.975423
H	-1.646743	0.141178	-1.252441
C	-0.343591	1.291555	0.620677
N	-0.515379	2.339679	1.123123
C	-0.530647	-1.13377	0.856408
H	-1.63068	-1.046057	0.799421
H	-0.186349	-1.031747	1.888251
H	-0.193423	-2.093959	0.460742
C	-0.350685	-1.344459	-2.148581
H	-0.627998	-1.225979	-3.200032
H	0.689274	-1.682721	-2.110082
H	-0.994421	-2.121419	-1.731801
H	-3.276964	0.0	0.0
