11

C	-0.559471	-0.129487	-1.396401
C	0.0	0.0	0.0
F	-0.54602	1.098277	-2.075271
H	1.092348	0.0	0.0
H	-1.599883	-0.473219	-1.382655
H	0.047389	-0.830353	-1.973952
H	-0.393936	0.917734	0.458415
N	-0.392296	-1.226283	0.735728
H	-1.098868	-1.019886	1.428943
H	0.440737	-1.527401	1.22668
F	2.758469	0.0	0.0
