11

C	-0.549384	-0.188943	-1.381919
C	0.0	0.0	0.0
F	-0.235537	-1.464973	-1.873779
H	1.092983	0.0	0.0
H	-0.105202	0.536241	-2.068939
H	-1.640373	-0.116832	-1.406293
H	-0.351922	0.98648	0.338025
N	-0.595801	-1.027622	0.892854
H	-0.238555	-1.90718	0.531164
H	-0.123573	-0.919261	1.78397
F	2.786043	0.0	0.0
