15

C	0.0	0.0	0.0
C	-0.790535	-0.296387	-1.240509
Cl	1.73148	0.0	0.0
H	-0.626121	0.460355	-2.000967
H	-1.871107	-0.316912	-0.946321
N	-0.418044	1.393814	0.507408
O	-0.313698	1.58328	1.709004
O	-0.730616	2.207714	-0.349311
N	-0.41415	-0.9738	1.173723
O	-1.591188	-0.908128	1.467187
O	0.451091	-1.668626	1.675115
N	-0.414003	-1.6053	-1.823544
O	-0.249704	-2.545546	-1.048869
O	-0.323933	-1.663548	-3.048561
Cl	-4.004826	0.0	0.0
