15

C	0.0	0.0	0.0
C	-0.208246	-0.439083	-1.47512
Cl	1.747706	0.0	0.0
H	0.217208	0.363688	-2.070546
H	0.389013	-1.340601	-1.579365
N	-0.415343	1.441423	0.297136
O	-0.421842	1.804388	1.460101
O	-0.552567	2.144754	-0.692938
N	-0.421626	-1.061713	1.021384
O	-0.544845	-0.740332	2.189238
O	-0.438372	-2.195974	0.565979
N	-1.478927	-0.800826	-2.190435
O	-1.82	-1.975825	-2.135709
O	-1.917374	0.043141	-2.965921
Cl	-2.914096	0.0	0.0
