15

C	0.0	0.0	0.0
C	-0.243483	0.179193	-1.517742
Cl	1.744446	0.0	0.0
H	0.231473	1.12282	-1.77664
H	0.281621	-0.651098	-1.982882
N	-0.435647	1.205176	0.832973
O	-0.996123	2.10331	0.2241
O	-0.101358	1.189807	2.00868
N	-0.495033	-1.330952	0.549053
O	-0.518564	-2.222037	-0.287123
O	-0.700005	-1.427133	1.742562
N	-1.555819	0.211127	-2.246958
O	-1.960695	-0.862412	-2.669238
O	-1.974479	1.320206	-2.556082
Cl	-3.269719	0.0	0.0
