15

C	0.0	0.0	0.0
C	-0.613012	0.334393	-1.319789
Cl	1.731704	0.0	0.0
H	-0.339697	-0.422814	-2.055526
H	-1.709108	0.389319	-1.139342
N	-0.264724	1.236493	1.219445
O	-1.393892	1.491752	1.547929
O	0.762404	1.755995	1.604472
N	-0.504316	-1.296472	0.58208
O	-0.636228	-2.21102	-0.221804
O	-0.652306	-1.337241	1.793059
N	-0.103446	1.626302	-1.830066
O	-0.113036	2.592859	-1.064195
O	0.257644	1.67147	-3.004217
Cl	-3.454512	0.0	0.0
