15

C	0.0	0.0	0.0
C	-0.470345	0.049612	-1.489782
Cl	1.73126	0.0	0.0
H	-1.522514	-0.116257	-1.792481
H	-0.14229	0.952635	-2.014035
N	-0.401152	1.373107	0.829816
O	-0.195533	1.295591	2.024433
O	-0.82258	2.324011	0.202632
N	-0.437202	-1.432423	1.111863
O	0.527819	-2.084242	1.611273
O	-1.609344	-1.773216	1.455856
N	0.041474	-1.191692	-2.22653
O	-0.053295	-2.244578	-1.602003
O	0.231669	-1.085719	-3.434903
Cl	-2.343935	0.0	0.0
