18

C	0.0	0.0	0.0
C	-0.409568	0.022796	-1.488041
F	1.330919	0.0	0.0
H	-1.408722	0.438139	-1.564405
N	-0.778086	1.055633	0.696438
O	-0.729722	2.157285	0.051704
O	-0.760199	1.00166	1.953001
N	-0.296305	-1.324088	0.753602
O	-1.273793	-1.986269	0.427757
O	0.498429	-1.606589	1.641994
N	-0.493734	-1.35573	-2.062681
O	0.461026	-2.10724	-1.864117
O	-1.465734	-1.619872	-2.767849
C	0.585851	0.787514	-2.348011
H	1.558763	0.296839	-2.357799
H	0.19861	0.847531	-3.367859
H	0.675449	1.790608	-1.934765
H	-2.132247	0.0	0.0
