13
Coordinates from ORCA-job run
  C   -0.61902472220891      0.59691537795334     -0.02420181146084
  C   0.90022557719652      0.62181699815274     -0.06679211058571
  Br  -1.17821299496672      2.18081449781406      0.97235867403534
  H   1.33763427355831      0.54348258391574      0.92702671014353
  H   -1.01001451695850      0.73319532949340     -1.03241521763098
  H   1.26880190433970      1.50640952940564     -0.58640426326939
  C   -1.17488483124678     -0.65880298627296      0.61759891034555
  H   -0.77973157932793     -0.78854410566498      1.62719594549146
  H   -2.26274874811858     -0.61227609467263      0.67384477552344
  H   -0.90375574843915     -1.53340482573679      0.01956015127726
  N   1.36809230542225     -0.56404820395757     -0.84634367728288
  O   1.01002078732757     -0.61695037815188     -2.02147779951723
  O   2.04159829342221     -1.40760772227812     -0.25995028706954
