13
Coordinates from ORCA-job run
  C   -0.40346758393385      0.36348253090915      0.34355569136379
  C   0.65754303392986     -0.35258782656763     -0.46333099779213
  Br  0.22055671400482      0.55947638124535      2.18457842687795
  H   0.31560852546494     -0.47470602889199     -1.49534892174059
  H   -0.51263536369549      1.38098725417242     -0.03116508563174
  H   0.92773205522724     -1.31622785350378     -0.03478170619732
  C   -1.72179172133276     -0.38739259481003      0.31550127452751
  H   -2.47289356014464      0.13231004115264      0.91065033333093
  H   -1.60636830956272     -1.39634322645789      0.71628905235381
  H   -2.08588007351931     -0.45669382323189     -0.71426087249092
  N   1.91531992614899      0.44959467102888     -0.54728545322352
  O   1.79492143101233      1.62079674707258     -0.89645428682423
  O   2.96935492640058     -0.12169627211782     -0.28594745455355
