13
Coordinates from ORCA-job run
  C   -0.49052591532125      0.67731369724663      0.20145473099264
  C   0.99643183001124      0.36894531807676      0.27097997758140
  Br  -0.90688247269206      1.78467063506704      1.75538428329290
  H   1.25157370231250     -0.21290999843979      1.15500411435620
  H   -0.68760855797243      1.30614099311702     -0.66670428089837
  H   1.59368561438428      1.27930221629984      0.21747774751522
  C   -1.35559812499062     -0.56742597481389      0.18816049861385
  H   -1.15673879060804     -1.14889192785718     -0.71649373180635
  H   -1.15174843420259     -1.19355400511925      1.05917568688293
  H   -2.41268031943052     -0.30030105486628      0.19223739289670
  N   1.36059762154175     -0.45870493132882     -0.91851984356818
  O   1.76870480955335     -1.60037154492141     -0.72073437635567
  O   1.18978903741439      0.06578657753933     -2.01742219950328
