13
Coordinates from ORCA-job run
  C   -0.51560030556654      0.35857505705605      0.13578569061519
  C   0.77727414109962     -0.33401962373273     -0.23629154131873
  Br  -0.22588521203352      1.42676659316076      1.74531248582580
  H   0.62433391867851     -0.94173623982284     -1.13304918470132
  H   -0.77380910794169      1.07696793595125     -0.64196085862641
  H   1.17155468777680     -0.94394823844189      0.57473108836706
  C   -1.63339502796615     -0.64169341619887      0.36605189948599
  H   -2.55542533529845     -0.13029890176236      0.64318955048736
  H   -1.37604622900592     -1.33910254375659      1.16562949549642
  H   -1.81670099398886     -1.20935316571245     -0.55147185529594
  N   1.84282756253190      0.65082028308235     -0.59261605820949
  O   2.94087122019411      0.51319267128721     -0.06243822170671
  O   1.53900068152019      1.51282958889010     -1.41287249041921
