13
Coordinates from ORCA-job run
  C   -0.62698732113849      0.58723762092708     -0.03764258961916
  C   0.88552176879249      0.61893381287531     -0.18527927024401
  Br  -1.14014804519775      2.25400460039671      0.84175173139582
  H   1.20682670359611      1.45428031137289     -0.80759155926062
  H   -1.08605988703669      0.62467060339895     -1.02548079588350
  H   1.38960690663373      0.63603448069416      0.77950088629477
  C   -1.12181689689691     -0.60621211540848      0.75521287934609
  H   -0.87958525031961     -1.53152519162844      0.22492800440991
  H   -0.65855772891020     -0.63712985364814      1.74348504418184
  H   -2.20404026341276     -0.56207929470931      0.88027350028176
  N   1.31589191340652     -0.63109445419521     -0.88193390887388
  O   0.88106087243966     -0.79556303305809     -2.02025632900673
  O   2.03828722804389     -1.41155748701743     -0.26696759302229
