14

C	-0.412438	-0.028889	-1.470851
C	0.0	0.0	0.0
F	0.301362	0.890102	-2.201621
H	1.092387	0.0	0.0
C	-0.118966	-1.367633	-2.027869
N	0.052878	-2.435898	-2.487012
C	-1.853344	0.238839	-1.658649
N	-2.99444	0.442605	-1.853165
C	-0.46208	-1.159327	0.721097
N	-0.784586	-2.140875	1.285997
N	-0.404065	1.220296	0.665925
O	-0.681717	2.202025	-0.041295
O	-0.289295	1.235844	1.898591
H	2.338833	0.0	0.0
