14

C	-0.345271	0.050198	-1.489415
C	0.0	0.0	0.0
F	-0.154748	-1.228446	-1.989566
H	1.092478	0.0	0.0
C	-1.759194	0.409674	-1.726333
N	-2.903242	0.596988	-1.925869
C	0.53182	0.963885	-2.259239
N	1.125691	1.680441	-2.977068
C	-0.493348	-1.183178	0.651792
N	-0.838274	-2.180717	1.173756
N	-0.378646	1.207379	0.669847
O	-0.404686	1.207572	1.909043
O	-0.474462	2.22245	-0.052445
H	2.307648	0.0	0.0
