14

C	-0.378829	0.081665	-1.47656
C	0.0	0.0	0.0
F	-0.139286	-1.168054	-2.026048
H	1.094638	0.0	0.0
C	-1.812102	0.380693	-1.668206
N	-2.961504	0.556868	-1.837109
C	0.433437	1.058277	-2.231477
N	1.013922	1.776155	-2.957763
C	-0.479955	-1.200897	0.632107
N	-0.818151	-2.212206	1.129967
N	-0.377991	1.18489	0.70985
O	-0.521385	2.216623	0.019696
O	-0.357245	1.152162	1.948366
H	2.309612	0.0	0.0
