14

C	-0.334103	0.087142	-1.489151
C	0.0	0.0	0.0
F	-0.141356	-1.178989	-2.019427
H	1.094666	0.0	0.0
C	-1.742416	0.455945	-1.729204
N	-2.876648	0.674374	-1.940533
C	0.551471	1.01257	-2.230809
N	1.155937	1.696305	-2.969952
C	-0.503207	-1.194567	0.623026
N	-0.859475	-2.204648	1.111997
N	-0.364994	1.195794	0.694456
O	-0.440113	2.228369	-0.005314
O	-0.383321	1.170159	1.934088
H	2.29983	0.0	0.0
