14

C	-0.39295	0.051467	-1.462687
C	0.0	0.0	0.0
F	-1.768313	0.14308	-1.631758
H	1.093155	0.0	0.0
C	0.227121	1.167576	-2.205905
N	0.667318	2.049693	-2.843321
C	0.050982	-1.204732	-2.104386
N	0.377487	-2.193728	-2.64802
C	-0.463879	-1.205704	0.640532
N	-0.782593	-2.228622	1.127891
N	-0.394302	1.175243	0.742478
O	-0.547366	2.23101	0.109675
O	-0.402098	1.077789	1.976478
H	2.336265	0.0	0.0
