14

C	-0.353313	0.054017	-1.473458
C	0.0	0.0	0.0
F	-1.709828	0.26768	-1.678091
H	1.095473	0.0	0.0
C	0.384944	1.095256	-2.215955
N	0.913389	1.851586	-2.943358
C	-0.013567	-1.247223	-2.086678
N	0.214503	-2.276309	-2.605562
C	-0.513767	-1.177578	0.652295
N	-0.91063	-2.170693	1.145354
N	-0.368073	1.203404	0.706962
O	-0.375756	2.257123	0.052091
O	-0.4864	1.128382	1.936051
H	2.328002	0.0	0.0
