16

C	-0.418452	0.088798	-1.483172
C	0.0	0.0	0.0
Br	-2.341559	0.554898	-1.611324
H	1.094297	0.0	0.0
C	0.41536	1.067651	-2.305246
H	0.17172	0.94742	-3.362005
H	1.469244	0.83527	-2.126048
H	0.221636	2.089245	-1.992192
C	-0.298321	-1.246366	-2.067192
N	-0.197616	-2.299538	-2.580365
C	-0.537154	-1.181585	0.654599
N	-0.946961	-2.155587	1.169006
N	-0.393708	1.22539	0.779059
O	-0.110182	2.306532	0.276745
O	-0.923523	1.063302	1.873768
Cl	3.135593	0.0	0.0
