16

C	-0.439688	-0.056685	-1.477696
C	0.0	0.0	0.0
Br	0.052811	1.640119	-2.332177
H	1.092238	0.0	0.0
C	0.331426	-1.188258	-2.156693
H	1.399309	-1.034329	-1.985248
H	0.027701	-2.144929	-1.721799
H	0.112336	-1.198254	-3.225103
C	-1.880547	-0.227466	-1.654871
N	-3.019876	-0.433597	-1.861013
C	-0.504473	-1.171612	0.706628
N	-0.894107	-2.1354	1.25492
N	-0.538444	1.226231	0.683141
O	0.267703	2.063618	1.064305
O	-1.763057	1.290813	0.788233
Cl	3.211905	0.0	0.0
