17
Coordinates from ORCA-job run
  C   -0.68212100695896      0.38424175426056     -0.15725683853339
  C   0.84522098465700      0.40820647531137      0.04101209158198
  H   -0.85558446797786      0.70608647270592     -1.19854787426472
  H   1.16004180887347      1.45961988736111      0.00326825490528
  N   -1.27482454561950      1.28686201119618      0.82469209970178
  H   -1.03694718858662      2.24873917554783      0.60993879155873
  H   -2.28508031828458      1.21176183491361      0.80157195563780
  C   -1.27737624458974     -1.00231942189534      0.02947537626534
  H   -0.85288868124274     -1.72553552654084     -0.66866811446541
  H   -1.10831281054159     -1.34812489717321      1.05153444882657
  H   -2.35652659254152     -0.97309062605610     -0.14698196198548
  C   1.61178954977062     -0.36165241466521     -1.03915545851755
  H   2.68738558866437     -0.21950066423310     -0.92074059854064
  H   1.32423974613958     -0.00177048864465     -2.03022804767520
  H   1.40732413805981     -1.43149168754469     -0.98287182135722
  C   1.19352127958886     -0.09553552694535      1.37236897208981
  N   1.50013876058943     -0.54749635759810      2.41158872477232
