17
Coordinates from ORCA-job run
  C   -0.68650661825332      0.46551448467830     -0.01700661563824
  C   0.77059207887795      0.34970268114653     -0.51910164529878
  H   -1.04997669028208      1.44859167739053     -0.33622884546248
  H   0.75444192750730      0.30475261040875     -1.61552003780707
  N   -0.68413169388344      0.46343551584792      1.44387010877913
  H   -0.76688807022908     -0.48280712689185      1.79658433921393
  H   -1.47031916567725      0.99039680408157      1.80071943851769
  C   -1.58362799270370     -0.60130194240069     -0.64352281823899
  H   -1.55025150726815     -0.57159685970799     -1.73651397316405
  H   -2.61924022116146     -0.44444554027044     -0.33190713297723
  H   -1.28930606193963     -1.60379542494510     -0.32078326297112
  C   1.50445311258076     -0.87933506566296      0.02480624658878
  H   0.99538293068297     -1.79941925035505     -0.26892767271759
  H   1.56128942201223     -0.82859551386836      1.11263014387299
  H   2.52249826089211     -0.92035315608448     -0.36642563063887
  C   1.50141449001464      1.56593253878858     -0.15192165112385
  N   2.09017579883012      2.54232356784474      0.12824900906574
