17
Coordinates from ORCA-job run
  C   -0.71286534118020      0.20897147947663      0.15455926424456
  C   0.74554851701091     -0.11791739670982     -0.26978134350493
  H   -0.72538480702067      1.25732630945754      0.47811298375754
  H   0.75708920387960     -1.15154067925105     -0.64241487190772
  N   -1.19440092742049     -0.58573963779356      1.27552193022773
  H   -0.64555419262903     -0.42622107574147      2.11010304729997
  H   -1.15637068837801     -1.57439955583090      1.05296633534211
  C   -1.67506289692302      0.04017909380429     -1.01259601166805
  H   -1.67257560430469     -0.99901524975857     -1.35961119895629
  H   -1.40863256386645      0.67995547108133     -1.85558453220038
  H   -2.68622314443354      0.28479566293997     -0.68543983320195
  C   1.75060149242552      0.01423183064898      0.87830099633839
  H   1.52937227282374     -0.70979387810648      1.66371222766549
  H   2.76850051644842     -0.16960666813179      0.53054490550079
  H   1.71272964737412      1.02011961480377      1.30426937493644
  C   1.14883670877846      0.75113094655237     -1.37783718799856
  N   1.46539180741533      1.47752373255874     -2.24482608587513
