15
Coordinates from ORCA-job run
  C   -0.71824158309934     -0.27765638447566     -0.54817710677838
  C   0.76449953836943      0.00189737248757     -0.25031323404049
  F   -0.84420514045963     -0.35594364622675     -1.94255990540203
  H   1.31102095887854     -0.88090208283074     -0.60673428722968
  N   -1.13527348529967     -1.46464658455249      0.09840582082963
  H   -2.12461481785306     -1.63182420254853     -0.03686464634315
  H   -0.60765168267404     -2.25923117583059     -0.24454285633602
  C   -1.56617578240923      0.84671980937577     -0.10688075599877
  N   -2.23614939960849      1.74023244171861      0.25473262309881
  C   1.03108046997742      0.22041242718447      1.24045945438734
  H   0.68985763414769     -0.64345455383517      1.80937956017198
  H   2.09911337705021      0.36535245200435      1.40880655640069
  H   0.50503973696586      1.10797910886079      1.59652340046497
  C   1.22128798975674      1.14852494237438     -1.03812335638454
  N   1.61041218625757      2.08254007629399     -1.63311126684036
