15
Coordinates from ORCA-job run
  C   -0.67982570865886     -0.47695480918516     -0.39271016831430
  C   0.67349024852069      0.25915408757118     -0.33963244039079
  F   -0.42930570554292     -1.77917864998910     -0.78366679928301
  H   1.06787848330324      0.25631953206508     -1.36172748946004
  N   -1.28836407771760     -0.52455569256940      0.89693422642184
  H   -2.19446229456293     -0.97518362982411      0.84574911979519
  H   -1.40361884667291      0.40504331751513      1.28392511468989
  C   -1.53741610802242      0.11237652297271     -1.45436513409150
  N   -2.24096408936149      0.60141864771204     -2.25850292176221
  C   1.66034858969568     -0.43757827687436      0.60113104187539
  H   1.80108926278077     -1.46899214816939      0.27962673827432
  H   2.62192916504304      0.07695682509947      0.57018622957440
  H   1.28584434495075     -0.43676047614386      1.62335453955608
  C   0.43771248538923      1.64663186905523      0.06033144489793
  N   0.22566425085576      2.74130288076452      0.42936649821681
