15
Coordinates from ORCA-job run
  C   -0.79107408416649     -0.24161391653428     -0.45720698146760
  C   0.71914680938662      0.03204668709458     -0.35958411409010
  F   -1.12261979760312     -0.20648645645114     -1.81938248613411
  H   1.20777862429769     -0.81186842160239     -0.86369204749701
  N   -1.10666891371942     -1.48298065688695      0.14277094766541
  H   -0.63395757262354     -2.23986856218498     -0.33738298023420
  H   -2.10489188792608     -1.65215718749621      0.14109586675575
  C   -1.56559093406365      0.83118872591833      0.19638645306854
  N   -2.17805659385658      1.68147957336950      0.72544406564247
  C   1.20348288957194      0.13330286638339      1.08829711381051
  H   0.94473444731017     -0.77508146126129      1.63065182594536
  H   2.28557702843831      0.27083443091693      1.10884395693764
  H   0.74065656547647      0.98677316349369      1.58689469786609
  C   1.05307079689623      1.24428070511673     -1.10984562627886
  N   1.34841262258145      2.23015051012411     -1.67429069198990
