15
Coordinates from ORCA-job run
  C   -0.82081606283674     -0.24992563512193     -0.07379376464993
  C   0.54269880481786      0.46578610294154     -0.01027949258804
  F   -0.77186005538311     -1.31089449608477      0.84718369309509
  H   0.52792975337088      1.23394241418688     -0.79087354715114
  N   -1.88324231451236      0.64348037045623      0.17037403041659
  H   -2.78284016760536      0.18674873786660      0.09076420091893
  H   -1.79559061054257      1.07957090031240      1.08095293953889
  C   -0.99436516343313     -0.86597783665260     -1.40492988777816
  N   -1.11599794149445     -1.35401316490162     -2.46543055360889
  C   1.71972526131638     -0.48826585491732     -0.22270399442184
  H   1.64174984525056     -0.96989208871954     -1.19921664409955
  H   2.65845853724830      0.06599350824851     -0.18644328715311
  H   1.73354805449339     -1.25472996373422      0.55120622556934
  C   0.64072882634728      1.14322212342490      1.28475069691834
  N   0.69987323296307      1.67595488269494      2.32943938499348
