15
Coordinates from ORCA-job run
  C   -0.81276777173843     -0.30231838594320      0.05436870509852
  C   0.52120652060760      0.46206061954296      0.03743372743179
  F   -0.76303577859438     -1.26252480076695      1.04444996880438
  H   0.47488379396532      1.18363742727208     -0.78820675766694
  N   -1.89616018296649      0.57128255513475      0.35997072446790
  H   -1.90147418134519      1.39168531090568     -0.23199716860689
  H   -2.78571729438561      0.09271088601082      0.28702558148485
  C   -0.96780782128024     -1.03509707468699     -1.23183331036554
  N   -1.12520510651010     -1.54936001647443     -2.27629818064948
  C   1.71697268369971     -0.47238109922041     -0.16975906358276
  H   1.64175683336330     -0.98364805721228     -1.13103838382039
  H   2.64312752678202      0.10313958274532     -0.15531196102335
  H   1.75580411059746     -1.21453114137115      0.62731338336608
  C   0.66147051517749      1.21117094463943      1.28869366673736
  N   0.83794615262753      1.80517324942434      2.28518906832444
