15
Coordinates from ORCA-job run
  C   -0.68027334035506     -0.24455678170137     -0.65444136063295
  C   0.78512737241743      0.07476993070214     -0.33154442776261
  F   -0.83971419973852     -0.19696335004208     -2.02140322207678
  H   1.35715024482320     -0.68262631394769     -0.87832595398897
  N   -0.99712016542758     -1.58635116413394     -0.25073275186973
  H   -1.04270677490821     -1.66030051074629      0.75838621472514
  H   -1.90719964283572     -1.83393770103795     -0.62504574281245
  C   -1.57860115721566      0.78732215174703     -0.07348665053197
  N   -2.29418964810253      1.56335508364354      0.44274447226457
  C   1.09487261952928     -0.00306901653258      1.16538895161666
  H   2.13218088811913      0.28140644193352      1.34460439908993
  H   0.96252886585275     -1.02295179273799      1.52976652677201
  H   0.45529777921736      0.67647732629281      1.73316827629910
  C   1.12748659732838      1.39326631075992     -0.86837311071473
  N   1.42516056129583      2.45515938580095     -1.27070562037719
