15
Coordinates from ORCA-job run
  C   -0.79481629382371     -0.44500616744753     -0.05919050625371
  C   0.45386846673991      0.46210021931001      0.09757085822560
  F   -0.52098989308444     -1.60136306661739      0.65418813381498
  H   0.28374321325336      1.34066454818812     -0.53637424087176
  N   -2.02876765111323      0.08457203358189      0.40544411973503
  H   -1.92776485968891      0.58374881376977      1.28018767570059
  H   -2.51357249779128      0.64107913591602     -0.28274610716274
  C   -0.93569408479392     -0.80538545597519     -1.48595580532219
  N   -1.02299276235820     -1.04941276644954     -2.63066707250803
  C   1.75711373331159     -0.23038612556569     -0.30631855606608
  H   2.59599822314321      0.45979989854096     -0.20591814629884
  H   1.93718085348416     -1.09743359895686      0.32790927765213
  H   1.70245727292021     -0.55634913657834     -1.34680883406645
  C   0.50259909246065      0.92342350637858      1.48621846245578
  N   0.51263718734059      1.28794816190519      2.60246074096568
