15
Coordinates from ORCA-job run
  C   -0.66558767196256     -0.49485539822620     -0.39472040547008
  C   0.65685977620509      0.29555264259795     -0.33766743909184
  F   -0.36731496923217     -1.77546426288871     -0.81973747969654
  H   1.03786271485033      0.33864556968389     -1.36403951517338
  N   -1.25625653096669     -0.59848219445793      0.90022735695554
  H   -2.14083660554653     -1.08989535182332      0.84854745790167
  H   -1.41062090573147      0.31626493280161      1.30832890587218
  C   -1.55694355214519      0.08583667524067     -1.43315666384092
  N   -2.27574274475742      0.56251716883513     -2.23125555823377
  C   1.68435729070150     -0.38466127778873      0.57098099125708
  H   1.32090019169468     -0.43313722929713      1.59610414816976
  H   2.62120107887024      0.17410451952240      0.54749918637844
  H   1.86868194314285     -1.39794021518993      0.21540237069078
  C   0.36872842414793      1.66081949480613      0.10235873725098
  N   0.11471156072945      2.73969492618413      0.49112790703006
