15
Coordinates from ORCA-job run
  C   -0.73884892842107     -0.36784920205697     -0.42515455532855
  C   0.64466584099666      0.30406036925123     -0.33962262118747
  F   -0.49681640783394     -1.64973645971317     -0.96301865323083
  H   1.06861822894005      0.24818432049857     -1.34790505668322
  N   -1.38644060394274     -0.41076058577019      0.82384021779661
  H   -2.32681875809005     -0.77685113314685      0.75275068429079
  H   -0.85771546958301     -0.94337621757277      1.50154482914641
  C   -1.59478015915676      0.32923406593647     -1.40416986052351
  N   -2.25077959097722      0.87792252999832     -2.20836668720922
  C   1.57788518898796     -0.41499645655714      0.63991124912270
  H   1.60766942933262     -1.48103612516636      0.41253868121467
  H   2.58676143766023     -0.01150768748134      0.54507622624250
  H   1.26046937060383     -0.26396049970055      1.67304930531659
  C   0.49422609997188      1.71449980577703      0.01787491986925
  N   0.41190432151159      2.84517327570372      0.32265132116329
