15
Coordinates from ORCA-job run
  C   -0.85777082593189     -0.30682370023881     -0.05748995922035
  C   0.52379070807380      0.38767056256436      0.06759364963745
  F   -0.83014087380248     -1.37645238450789      0.82344112823723
  H   0.54443013984442      1.18198215643323     -0.68825244889409
  N   -1.99863519460317      0.48598769381964      0.23961789571471
  H   -1.85595878921844      1.07747339224652      1.04863860444276
  H   -2.33996415679910      1.01440475016518     -0.54940301551652
  C   -0.99056727188296     -0.84139351347406     -1.42951080931763
  N   -1.06190784261419     -1.23033731050491     -2.53448557257940
  C   1.70069223948139     -0.56674887007426     -0.14410650092386
  H   1.63876933626529     -1.02574488208380     -1.13267815569970
  H   2.64309453262371     -0.02134595343902     -0.07679047237353
  H   1.69330866843388     -1.35078606312898      0.61196283057098
  C   0.58573620898900      1.02906470269199      1.38238632667603
  N   0.60512312114074      1.54304941953082      2.43807649924593
