15
Coordinates from ORCA-job run
  C   -0.83108541517884     -0.26540129890921     -0.36394514444782
  C   0.68683959195969     -0.02280297856938     -0.41783449901736
  F   -1.27432805975464     -0.35768591102496     -1.69125959882248
  H   1.11571807452359     -0.92439571045115     -0.87427258096067
  N   -1.11739348371266     -1.43196463032399      0.38250922743453
  H   -2.11507013007069     -1.57545501900516      0.47773070251643
  H   -0.69823627121162     -2.24488702119950     -0.05372559858973
  C   -1.52816395966086      0.88793124630713      0.23726578190597
  N   -2.07379094429711      1.81008821163160      0.71654830082686
  C   1.29287608864304      0.20633802833254      0.96832675842341
  H   0.88440723436185      1.11290621130897      1.41852010269995
  H   2.37437365622001      0.32299243104477      0.88563860534649
  H   1.06952969137139     -0.64031257823669      1.61614550368506
  C   0.97753790631171      1.10159778121951     -1.30957245285438
  N   1.23878602049511      2.02005123787552     -1.99207510814619
