15
Coordinates from ORCA-job run
  C   -0.77246202628525     -0.40554484283662      0.04047977533874
  C   0.46536243586241      0.50678466991758      0.06711456670330
  F   -0.56883951526184     -1.45590241402757      0.91439611216223
  H   0.31244824011106      1.28773158031680     -0.68866912410254
  N   -1.93261652481594      0.29708490352060      0.47018681490822
  H   -2.01762116833114      1.20634420170221      0.03633975330064
  H   -2.77648602549974     -0.24034418650207      0.31710549613800
  C   -0.89693921838166     -1.01027864797452     -1.31333677376483
  N   -1.03514557600126     -1.42813864292104     -2.40279062446070
  C   1.75166295324468     -0.26184398002453     -0.24997823372428
  H   1.69954609889100     -0.69898061183634     -1.24867772463120
  H   1.90396906187545     -1.05640669768218      0.47992715793533
  H   2.60562341787577      0.41534379132118     -0.21243182256026
  C   0.56067230366253      1.15614414690719      1.37699737199859
  N   0.70082554305391      1.68900673011932      2.41333725475876
