15
Coordinates from ORCA-job run
  C   -0.75019301775553     -0.21489980134766     -0.58674161327135
  C   0.73949962821967      0.11083222624270     -0.41830582583718
  F   -1.07101277645295     -0.08341593482069     -1.91940942003077
  H   1.25080379927205     -0.59946474991947     -1.07699364472453
  N   -1.00246998629060     -1.58443649726327     -0.23636412478727
  H   -1.95181216364188     -1.82214662396080     -0.50444296947837
  H   -0.91419213581609     -1.72549918528110      0.76267550402013
  C   -1.58562942685693      0.76030961769948      0.16282358569576
  N   -2.24589070901990      1.47156665922397      0.82552446669049
  C   1.22685020911897     -0.05499261465072      1.02313325960799
  H   2.27379225162981      0.24083799414764      1.09683577532987
  H   1.15456241203470     -1.09874574273943      1.33280737045414
  H   0.64962358070639      0.57223391722062      1.70620717909080
  C   0.99936883747094      1.46739424002436     -0.90431904579564
  N   1.22769949738132      2.56142649542434     -1.26343049696406
