15
Coordinates from ORCA-job run
  C   -0.79021577181985     -0.33192735372395     -0.08083950516782
  C   0.49643386375460      0.51332823472415     -0.01259878502857
  F   -0.66225243911560     -1.35482711688137      0.87468758948910
  H   0.42558266890467      1.25249929931901     -0.81770228369784
  N   -1.93892937660312      0.46187852962312      0.11210108143286
  H   -2.78855195921904     -0.08097576586697      0.02404508470970
  H   -1.91685134730609      0.92630381427550      1.01272219239285
  C   -0.87255965065517     -0.99930334560131     -1.39627799055042
  N   -0.93675307036536     -1.49941159242290     -2.45611441449845
  C   1.76426456409474     -0.32785055659843     -0.17141759062910
  H   2.64465014892936      0.31449176772136     -0.12709934007164
  H   1.75821221760049     -0.83732714263034     -1.13680983602223
  H   1.83065177856438     -1.07090965816046      0.62233184492363
  C   0.49958852713152      1.23568339835503      1.26175670454268
  N   0.48772984610446      1.79834748786759      2.29221524817523
