15
Coordinates from ORCA-job run
  C   -0.74306005660311     -0.34091804921248     -0.43668457753400
  C   0.66025493090243      0.28529422211990     -0.33085738562297
  F   -0.53626893283941     -1.62680550307370     -0.97969432045165
  H   1.09425587443612      0.22165683062024     -1.33440681158443
  N   -1.40649997047136     -0.36988931877194      0.80444158620053
  H   -0.90367984363847     -0.92406120210895      1.48458110019030
  H   -2.35770329988188     -0.70372771244297      0.71987457761796
  C   -1.56667870857532      0.38815496119643     -1.42013684288984
  N   -2.21984630426277      0.95351125546602     -2.21494558627772
  C   1.55800930607793     -0.46863187007967      0.65540280500288
  H   1.55681907670957     -1.53375459706966      0.42188051404460
  H   1.23250843557424     -0.31352826587843      1.68542583690616
  H   2.58030666367013     -0.09692179834288      0.57566760866856
  C   0.55046696002276      1.69810325489998      0.03247472180177
  N   0.50211586887914      2.83051779267810      0.33797677392788
