15
Coordinates from ORCA-job run
  C   -0.77769460053483     -0.23301739432082     -0.47906565462558
  C   0.73102945571577      0.03304326618108     -0.34222095734438
  F   -1.07507119500632     -0.18763521598552     -1.84876444860713
  H   1.22893443844195     -0.80811833053510     -0.84161108552470
  N   -1.11370855434300     -1.47676512046698      0.10482949015169
  H   -2.11242124470521     -1.64073896661566      0.07740975866502
  H   -0.63294054424394     -2.23272720026602     -0.36874714105963
  C   -1.56515432624864      0.83742211405961      0.16244439288376
  N   -2.21359747055426      1.66458727450960      0.68522201424253
  C   1.17831500603004      0.11981725417351      1.11880238017217
  H   2.25888293143574      0.26130309859567      1.16829880120864
  H   0.69943018262687      0.96584313501182      1.61512387227909
  H   0.90936671561897     -0.79514630181998      1.64496897540645
  C   1.08689669604980      1.25135766424272     -1.07205304776393
  N   1.39773250971706      2.23977472323604     -1.62363735008394
