15
Coordinates from ORCA-job run
  C   -0.73661357258334     -0.35786498357157     -0.43507560380492
  C   0.65073983508294      0.30367694762791     -0.33236250367844
  F   -0.49920804476954     -1.63540922834464     -0.98541053651304
  H   1.08180240833553      0.25612346823876     -1.33804452390283
  N   -1.39342981609861     -0.41000251932295      0.80866695571740
  H   -0.87421564717621     -0.95509903572799      1.48377838658328
  H   -2.33663470298467     -0.76640083250239      0.72682343090594
  C   -1.58227934851701      0.35486798626652     -1.41168142805117
  N   -2.24622390718243      0.90896491054389     -2.20553071661202
  C   1.57192540993160     -0.43178454763951      0.64625277953871
  H   2.58366436869342     -0.03255239941042      0.56490269677779
  H   1.24645410456587     -0.29146708347951      1.67839348431978
  H   1.59801640623508     -1.49521142035608      0.40648207849081
  C   0.50644776953868      1.71125324215642      0.03901446066183
  N   0.43055473692867      2.83990549552158      0.35279103956687
