15
Coordinates from ORCA-job run
  C   -0.71587446630322     -0.29855938925217     -0.59146944418800
  C   0.76797110742498      0.02610673063921     -0.37576546200761
  F   -0.94397646151207     -0.38796895024394     -1.94670504312658
  H   1.30161001979632     -0.79402881663102     -0.86813718800107
  N   -1.02873456625288     -1.58600608993577     -0.03684004983223
  H   -1.01934377607491     -1.55712544557165      0.97553446025389
  H   -1.96133715691697     -1.85275701338221     -0.33471393292231
  C   -1.57046413256064      0.80341063702011     -0.07672956934101
  N   -2.24842368987743      1.64002613746351      0.39359643406503
  C   1.15234863893542      0.09812853411232      1.10405558859298
  H   2.20094009352723      0.38104581881796      1.20137002440111
  H   1.02594141785902     -0.87595068202452      1.57910312365381
  H   0.55107109315638      0.84408708566178      1.62864876095105
  C   1.09927440229981      1.27576857224284     -1.06310639569553
  N   1.38999747649894      2.28482287108358     -1.58784130680352
