15
Coordinates from ORCA-job run
  C   -0.79848852142222     -0.31174761174529     -0.08010462552496
  C   0.50490115722299      0.50706869914919      0.00377225614199
  F   -0.66208080280558     -1.39520730140059      0.80439695331703
  H   0.42628034238814      1.29496588352223     -0.75281120332828
  N   -1.92678612302047      0.48705419189223      0.19634724884162
  H   -2.78807450942978     -0.03532470492288      0.09749667510242
  H   -1.87211224662776      0.89093694202639      1.12448826774377
  C   -0.92912702264258     -0.89373487078914     -1.43145680259879
  N   -1.01394763358905     -1.35403854449797     -2.50773680229831
  C   1.75243904411393     -0.34405312504151     -0.24057808316693
  H   2.64524898313576      0.27990573934644     -0.18292549388118
  H   1.82685211829479     -1.13468503833285      0.50505115932641
  H   1.71093521255493     -0.79437075480887     -1.23415214890977
  C   0.55342729348639      1.14974726727321      1.31894155323341
  N   0.57053270834052      1.65348322832940      2.37927104600157
