15
Coordinates from ORCA-job run
  C   -0.67703162137318     -0.47437481051159     -0.40319836499280
  C   0.67187001415299      0.26892984303294     -0.33422567830504
  F   -0.41929227528537     -1.76589033474543     -0.82219741038058
  H   1.06720776642820      0.28827610360007     -1.35589237566168
  N   -1.28469334643194     -0.55283835337972      0.88545423472744
  H   -1.40315043337505      0.36766177246034      1.29271754549203
  H   -2.18933603291813     -1.00521106162586      0.82519064743305
  C   -1.53813235332776      0.13444858964107     -1.45100043544099
  N   -2.24495318000168      0.63912519196327     -2.24258244836753
  C   1.66240829154588     -0.43945391156058      0.59365748269846
  H   2.62160164133651      0.07993071975010      0.57085439636192
  H   1.28905740847882     -0.45816909641253      1.61617986784368
  H   1.80769194490184     -1.46449216983418      0.25424830625923
  C   0.42760826144369      1.64727895191639      0.09133761244806
  N   0.20914391442518      2.73377856570573      0.48045661988473
