15
Coordinates from ORCA-job run
  C   -0.79802169379048     -0.26815369683525     -0.49601208561254
  C   0.70586301761778      0.03451987195290     -0.48335286056995
  F   -1.21941071069181     -0.30128749760104     -1.80625584310698
  H   1.15194353782090     -0.76894151113544     -1.07940914778339
  N   -1.04654034201280     -1.57365689913907      0.04906933273739
  H   -2.01748689463144     -1.81805814423632     -0.11593202420762
  H   -0.88644528493858     -1.58487030048335      1.04914674522650
  C   -1.55353446025896      0.81930262522282      0.18017040386765
  N   -2.13997572501849      1.63465221726309      0.79005534536391
  C   1.30060157560943      0.04224106188922      0.92719777459928
  H   2.35477491396558      0.31752517414282      0.88303886323296
  H   0.78854186204454      0.76728256836309      1.56382675328261
  H   1.23497505940610     -0.95081644127884      1.37437724122909
  C   0.95236282106004      1.30912804993085     -1.16061894225764
  N   1.17135232381819      2.34113292194450     -1.67530155600128
