15
Coordinates from ORCA-job run
  C   -0.66671777058378     -0.48651240454907     -0.40476575756250
  C   0.65911763025406      0.29726229784895     -0.33331111265523
  F   -0.37243556210309     -1.76261719808396     -0.84642906552261
  H   1.04385771621520      0.35057041591016     -1.35775329218976
  N   -1.26143407898215     -0.60527926747413      0.88689327441683
  H   -2.14844025670456     -1.09120882503410      0.82617397012074
  H   -1.41165509516744      0.30427321807070      1.30791413748365
  C   -1.55229289392088      0.11188689970854     -1.43784126883656
  N   -2.26549182209310      0.60318781768295     -2.23201180207276
  C   1.68005634704440     -0.39829961519675      0.57112667784414
  H   1.31282574001108     -0.45640302633576      1.59437758357170
  H   1.86034253825816     -1.40845634736140      0.20471420185630
  H   2.61980952768447      0.15587838614455      0.55712949969968
  C   0.37535007327636      1.65788755088677      0.12381496853255
  N   0.12710790681128      2.72783009778252      0.53996798531379
