15
Coordinates from ORCA-job run
  C   -0.78531360124495     -0.37837742669384      0.04442327366042
  C   0.47793522042455      0.49891898864218      0.05355098493243
  F   -0.62972848262825     -1.39060455562058      0.97122111360847
  H   0.35958099541718      1.25163798416571     -0.73634510736993
  N   -1.93228595193289      0.37682149346096      0.41828841551870
  H   -2.78656331122136     -0.15020550255373      0.28752696084351
  H   -1.99140051985235      1.25786179806671     -0.07442044835825
  C   -0.90096076871569     -1.04478063832799     -1.28083234367446
  N   -1.01946596091781     -1.52621153829902     -2.34612400045301
  C   1.74657520811718     -0.31812670400222     -0.20883964392354
  H   1.70042781690217     -0.79181038784277     -1.19098758567696
  H   1.86188566533003     -1.08796514461393      0.55367090478045
  H   2.61939219770231      0.33502378461907     -0.17998782526963
  C   0.57034023239517      1.19972759558836      1.33682687857963
  N   0.70758126022468      1.76909025341112      2.35402842280219
