15
Coordinates from ORCA-job run
  C   -0.85612755654626     -0.27021124859480     -0.48685641073823
  C   0.64497477349612      0.07704317936768     -0.48792084714173
  F   -1.29324892749379     -0.11903189608718     -1.80469519753273
  H   1.12025069624962     -0.70883873052301     -1.08947547819557
  N   -1.08285919263886     -1.58347124193742     -0.03864900204076
  H   -1.85887475018189     -1.73018315371140      0.58330820144987
  H   -0.27347472700392     -2.13790095324442      0.17912167679722
  C   -1.61565218140635      0.71258647093765      0.31460279507470
  N   -2.20326852856621      1.47163282818072      0.99111083975480
  C   1.25384060016552      0.12624590026207      0.91596045241689
  H   0.77735295660411      0.90675736445745      1.51176438794966
  H   1.13447278085729     -0.82745660835528      1.43164159807668
  H   2.31952390557106      0.34893697227923      0.85023256380417
  C   0.86184855003388      1.34919626900339     -1.17830193544194
  N   1.07124160085968      2.38369484796532     -1.69184364423304
