15
Coordinates from ORCA-job run
  C   -0.82400628912713     -0.38332071057960     -0.07487504522362
  C   0.48507558310214      0.43273898510342      0.08563146000361
  F   -0.69655677547667     -1.48117711262785      0.76194556152015
  H   0.43271400538685      1.25455438111940     -0.63863605720759
  N   -2.03520938389506      0.28544374373983      0.24798237832961
  H   -1.94952004826553      0.85635443819247      1.07951561454237
  H   -2.42489479264085      0.80936271724647     -0.52151039752567
  C   -0.90485430393351     -0.87228315465204     -1.46776004097759
  N   -0.94346347667166     -1.22114052923691     -2.58767547272657
  C   1.74729196085033     -0.39782052733125     -0.15602902630829
  H   1.72945394141433     -0.82398774301592     -1.16093442854071
  H   1.81328927821507     -1.20624341947355      0.57090861933040
  H   2.63412072022611      0.23088957255776     -0.06502218420318
  C   0.48411837934100      1.02397328204273      1.42509430394908
  N   0.45444120147460      1.49265607691505      2.50136471503803
