15
Coordinates from ORCA-job run
  C   -0.81798304390736     -0.39868793691499     -0.07194500448623
  C   0.47957489541626      0.43636471708015      0.09163855739726
  F   -0.65245043641979     -1.52402649035030      0.71907343994142
  H   0.39668056772417      1.28250281948226     -0.60125498863308
  N   -2.03465246638539      0.23380121708220      0.30251239686908
  H   -2.44309190294481      0.78768375751164     -0.43587461495490
  H   -1.93977257837076      0.77121522053076      1.15502519658105
  C   -0.92046731314708     -0.83352811382465     -1.48110665278221
  N   -0.97863033702554     -1.13155830963885     -2.61480569252857
  C   1.75088313885826     -0.36109280663020     -0.20603234563036
  H   1.72215901808474     -0.74520749025193     -1.22774378207857
  H   2.62862920594208      0.27880547779563     -0.10391919794676
  H   1.84361181934702     -1.19807903384988      0.48509075044600
  C   0.49365570119878      0.98173600071915      1.45029033689415
  N   0.47085373162943      1.42107097125902      2.53905160091170
