15
Coordinates from ORCA-job run
  C   -0.78801610857006     -0.22532324236836     -0.53025199780956
  C   0.71784628666536      0.06082423859376     -0.46331567393537
  F   -1.17893612760617     -0.16563175438371     -1.84912216322880
  H   1.17012661871767     -0.70464292004067     -1.10311896574936
  N   -1.06027299857009     -1.56229824948378     -0.08123375448892
  H   -2.02653694917211     -1.78805753137315     -0.29344825499888
  H   -0.93280370475265     -1.64147894564408      0.92044568352149
  C   -1.54964927088814      0.82128856833477      0.20110379696302
  N   -2.14211274514607      1.59843284613194      0.85380787097145
  C   1.27941042989404     -0.03385231073421      0.95733572395364
  H   2.33819689636243      0.22696406446991      0.95552062973037
  H   1.18928423617750     -1.05315448346491      1.33598179935217
  H   0.76276041666200      0.65531568642695      1.62910819385355
  C   0.99061977622372      1.37588352110354     -1.04661312613922
  N   1.23108324400254      2.43673051243201     -1.48819976199558
