15
Coordinates from ORCA-job run
  C   -0.74610134754775     -0.47211793260973     -0.43848463806060
  C   0.62705585687038      0.24717890283063     -0.35882885216407
  F   -0.45424501662099     -1.75433459824115     -0.88023930810352
  H   1.03876888797704      0.26471328775269     -1.37410005915116
  N   -1.49488524271656     -0.57308265566484      0.76594475107025
  H   -0.91670574603886     -0.81789608510740      1.55813933373259
  H   -2.03482860473340      0.25806390412508      0.96183118981038
  C   -1.58098927987188      0.18454967518107     -1.46564778504164
  N   -2.22591919834145      0.73437032085341     -2.27791922630164
  C   1.60798316454659     -0.47330397299415      0.57028993449971
  H   1.72397776989718     -1.51014724583408      0.25636450166011
  H   1.27207436263007     -0.44457425394055      1.60859284090266
  H   2.58127574966396      0.01721344343548      0.52805500732306
  C   0.40081085976397      1.62469400336752      0.07796254486878
  N   0.20172778452167      2.71367320684602      0.47003976495507
