15
Coordinates from ORCA-job run
  C   -0.80001542720543     -0.34123325400760     -0.52923978878965
  C   0.70750383468622     -0.04934404707014     -0.39431524681471
  F   -1.04622238233188     -0.47664973973346     -1.89961417482063
  H   1.20872584473351     -0.96360890348526     -0.73865298310266
  N   -1.17052333669131     -1.50153852850461      0.16474453217491
  H   -2.00687916999662     -1.47994720420327      0.71970656238429
  H   -0.43913429753510     -2.09488790273845      0.51429654460857
  C   -1.59626128873311      0.81864414042468     -0.07805293045380
  N   -2.21649100782047      1.73178576393765      0.32211895867535
  C   1.12658923598011      0.28727057455377      1.03866790770615
  H   0.87000019983474     -0.52374261202901      1.72106618344937
  H   0.63113339847913      1.19886837730728      1.37739765840725
  H   2.20455882678304      0.44757936134663      1.08243769140998
  C   1.09336216446801      1.02993291238031     -1.30457666871348
  N   1.43165340534917      1.91687106182153     -1.99498424612094
