15
Coordinates from ORCA-job run
  C   -0.76760498165493     -0.27418735244601     -0.53605099455698
  C   0.73033259021098      0.04504528322452     -0.44434003666511
  F   -1.12065722050769     -0.30293377444439     -1.86673501573540
  H   1.21510263380332     -0.75023771495082     -1.02079928463530
  N   -1.02881402913499     -1.58639416461070     -0.01349953848590
  H   -1.98547075659268     -1.84229297493970     -0.23480020702655
  H   -0.92510983784881     -1.60293315731320      0.99388229858395
  C   -1.56936815004108      0.80077085938125      0.10535366099714
  N   -2.19907919544567      1.61508549021131      0.67201908563383
  C   1.25041970207236      0.05110279915010      0.99523600307234
  H   0.70067598915021      0.77007320262730      1.60682995060200
  H   2.30359932259545      0.33345494903341      1.00772495522637
  H   1.16844649906739     -0.94409375131097      1.43494548593018
  C   0.99700200239497      1.32603518386806     -1.10145119065481
  N   1.23152543193117      2.36150512251988     -1.60231517228579
