15
Coordinates from ORCA-job run
  C   -0.78980384362994     -0.20585929100022     -0.53764444774909
  C   0.71736340654734      0.07150639507743     -0.46077760385391
  F   -1.17958435682830     -0.10093202569667     -1.85410598384988
  H   1.16590940480026     -0.67616875854233     -1.12382320782515
  N   -1.06759172261407     -1.55590548371504     -0.13345384616038
  H   -0.93707709700920     -1.66972526215432      0.86449249870621
  H   -2.03568319952513     -1.76957045499913     -0.34979562233041
  C   -1.54669931606448      0.81981460635473      0.22728911636439
  N   -2.12445925171243      1.58693411654617      0.90444827583410
  C   1.27830065473701     -0.06957421993738      0.95627936966552
  H   0.76549198604451      0.60204213943981      1.64842552649638
  H   1.18274946835483     -1.09922763154663      1.30440603825337
  H   2.33856717490369      0.18512220258971      0.96196923021951
  C   0.99588754011755      1.40311869691696     -1.00219763813164
  N   1.23562915187831      2.47842497066688     -1.40751170563897
