15
Coordinates from ORCA-job run
  C   -0.85068752847603     -0.28493861440425     -0.48552383324733
  C   0.68509691702255     -0.23258966713531     -0.36850283405049
  F   -1.12755108012217     -0.59526571765904     -1.81982644344441
  H   1.02184386720008     -1.26108160066130     -0.55413276630299
  N   -1.40597817572763     -1.24486427157120      0.37544959566668
  H   -0.77183677468123     -1.85285589692938      0.86272356559399
  H   -2.22639651241615     -0.98986722613323      0.89611763298114
  C   -1.43533206341915      1.05001276127380     -0.24086757374753
  N   -1.88933654392120      2.10769475075895     -0.00853182270152
  C   1.16792998729242      0.25372655823349      1.00015063516749
  H   2.25804457564319      0.24245194326609      1.03442050804395
  H   0.79214476197264     -0.38681765760499      1.79887639864136
  H   0.83059457059161      1.27540137189739      1.18367942931952
  C   1.23931578158113      0.60821182654460     -1.43072874276996
  N   1.71214821745997      1.30978144012443     -2.24430374914996
