15
Coordinates from ORCA-job run
  C   -0.73774109989574     -0.46209429893825     -0.46196623760668
  C   0.62652521359122      0.26855273159629     -0.34321955406868
  F   -0.42869263623023     -1.72015164093670     -0.95865876335755
  H   1.04461492548886      0.33241707916057     -1.35397681994171
  N   -1.49050079413816     -0.62297612113064      0.73299524921447
  H   -0.91331467795571     -0.88247346685738      1.52096134878202
  H   -2.05464526144502      0.18537354984401      0.95354136831197
  C   -1.57430699605098      0.22936961954656     -1.46451257401721
  N   -2.21535981460205      0.80073688409139     -2.26486820941373
  C   1.60947831939376     -0.47836898343160      0.56253917695134
  H   2.57810620265496      0.02281630327401      0.54522161142147
  H   1.73743666429593     -1.50103195002653      0.20916036725267
  H   1.26788348774069     -0.49331847426988      1.59931363390646
  C   0.38187400272977      1.62478160741751      0.14704595996936
  N   0.16864246442270      2.69636716066064      0.57742344259580
