13
Coordinates from ORCA-job run
  C   1.01900163109064      0.10377652217308     -0.03894286305767
  C   -0.33342924187338      0.06857486450405      0.05865290121074
  C   1.74923414623038     -1.11136827023187     -0.24478413322484
  N   2.36836930409929     -2.10090870158484     -0.39885426705167
  C   1.81399871321299      1.29339235884088      0.01950584052664
  N   2.54516776659131      2.21415594766134      0.06534470163267
  C   -1.19558667632852     -1.13655818870485     -0.04930487976669
  H   -0.59203252240197     -2.03975180940121     -0.12721780017547
  H   -1.84348996222752     -1.20995415502239      0.82802434640678
  H   -1.83286260321167     -1.05277600761024     -0.93186409030895
  N   -1.04942689406205      1.34186528880061      0.23441745563555
  O   -2.08351732969890      1.45996384866593     -0.41941163995595
  O   -0.56742633142058      2.16958830190954      1.00343442812885
