13
Coordinates from ORCA-job run
  C   1.02787253368197      0.12981811711167     -0.02557430570437
  C   -0.32755419938613      0.05042833657828     -0.06174227838499
  C   1.83441438778898      0.86445820910638     -0.95236020916261
  N   2.56650388095807      1.42459701969499     -1.68368242311710
  C   1.73828526715557     -0.59557301763850      0.98494647992819
  N   2.32210850168796     -1.19697559529463      1.81106617187205
  C   -1.18905976721634     -0.74302424668868      0.85319726178078
  H   -1.83455621063828     -1.39661134254076      0.26466329835098
  H   -1.83403352892195     -0.06878265533333      1.42459684583591
  H   -0.59436324695901     -1.34303714079959      1.54226008394037
  N   -1.04679913968700      0.77793135866322     -1.12347718848696
  O   -0.58706905563123      1.85440555760019     -1.49572769775955
  O   -2.07374942283261      0.24336539954073     -1.53916603909268
