13
Coordinates from ORCA-job run
  C   1.03104329854074      0.08694733609840      0.02680925706701
  C   -0.32533161511798      0.07260964328458      0.03334624703397
  C   1.74739635302398     -1.15056984131736     -0.06055082068533
  N   2.33094818021520     -2.17040742860244     -0.13050877980237
  C   1.83000331700968      1.27406332212253      0.06797913275558
  N   2.55319024158083      2.20275244604145      0.07382926859746
  C   -1.20475170556827     -1.11999621687752     -0.06108854314233
  H   -1.76342650051149     -1.09001590778319     -0.99901930248247
  H   -1.93303962906601     -1.10770677595584      0.75451935970939
  H   -0.62362685460623     -2.04018151455137     -0.01203851334853
  N   -1.03042864578681      1.36343328535962      0.09037537199267
  O   -2.00183186122505      1.46717863051796     -0.65580048345108
  O   -0.61014457848862      2.21289302166320      0.87214780575601
