13
Coordinates from ORCA-job run
  C   1.02525477503473      0.05541292681703     -0.07312471132705
  C   -0.32722909356479      0.08802539835129      0.01686667501554
  C   1.68402944406769     -1.18409023840227     -0.36086325742945
  N   2.23187765836507     -2.19612544705947     -0.60906075402765
  C   1.88201001913399      1.18719025256002      0.11491011541115
  N   2.66152189272868      2.05618512655727      0.26326359928813
  C   -1.25986087726658     -1.05749856046495     -0.12934464204773
  H   -2.05953659168018     -0.80070309594653     -0.83011864483401
  H   -0.73304523088676     -1.94013206473306     -0.49299956397515
  H   -1.72294146467636     -1.28615365664093      0.83236641278665
  N   -0.96221799113237      1.37574515323840      0.34072918397297
  O   -1.86726302609713      1.32445016050774      1.17162191809691
  O   -0.55459951402599      2.37669404521545     -0.24324633093032
