13
Coordinates from ORCA-job run
  C   1.02333777046509      0.07255478598948      0.16090293918700
  C   -0.32582820856518      0.02855325223148      0.03619813778908
  C   1.70659120293634      0.38481761110996      1.37948987211140
  N   2.32650605426663      0.61204211691454      2.35379882943596
  C   1.84675661812191     -0.24586540603063     -0.96699922920079
  N   2.51518546795230     -0.50622517279316     -1.89974090245263
  C   -1.10218614993486     -0.32944256994940     -1.17741823028924
  H   -0.44333948881167     -0.52979551224354     -2.02200919042807
  H   -1.77931837214372      0.49050185065117     -1.43486018368098
  H   -1.71352523358434     -1.20979579904401     -0.97213881348390
  N   -1.14002137066357      0.33779896994882      1.22381575011474
  O   -2.06525889552520     -0.44058468899119      1.44355869761113
  O   -0.84789939451372      1.33644056220648      1.87640232328630
