13
Coordinates from ORCA-job run
  C   1.02350465369074      0.04234746141062     -0.17291624444023
  C   -0.31334375256614      0.07248822291961      0.04289798341867
  C   1.68040338927133     -1.19980161872079     -0.44954917251399
  N   2.22538063498202     -2.21997919175398     -0.66460616019760
  C   1.85512976287011      1.20548215437685     -0.09886682551094
  N   2.57901823009506      2.13229510650240     -0.05304346185886
  C   -1.26589613172486     -1.06471742782068      0.00578102909349
  H   -0.80386009279771     -1.94871844790992     -0.43042257592225
  H   -1.61115006663749     -1.29574398764787      1.01667592273644
  H   -2.14136109974764     -0.78463148213757     -0.58472270844829
  N   -0.91682091485340      1.37198967432952      0.37815319040236
  O   -1.53142075691859      1.40259352619448      1.44037845697497
  O   -0.77858385566343      2.28739601025732     -0.42875943373377
