13
Coordinates from ORCA-job run
  C   1.03163084789761      0.08320327199703      0.05002295491844
  C   -0.32272699570812      0.08053306934628     -0.02645435914638
  C   1.82335611957393      1.23233514364455      0.36889947811519
  N   2.53846527238537      2.12544989583390      0.64569298252144
  C   1.75029449887984     -1.13702193855060     -0.16634414901339
  N   2.33232080674607     -2.14431035088691     -0.34530053503375
  C   -1.19844325688451     -1.08602360792120     -0.30398738068946
  H   -1.80385940803241     -1.30797740313142      0.57741959058237
  H   -1.88486497613384     -0.84560735970455     -1.12070668804897
  H   -0.61030631999094     -1.96281629373591     -0.57286706389145
  N   -1.03293574095683      1.34378845042853      0.23291783833058
  O   -2.04008875880569      1.24878983550666      0.93138863170277
  O   -0.58184208897047      2.36965728717366     -0.27068130034737
