13
Coordinates from ORCA-job run
  C   1.02684383549565      0.09936850534821      0.07995297137431
  C   -0.32760227399741      0.06741233495153      0.01587151466107
  C   1.76469730996496     -1.12705738447586      0.01895352435863
  N   2.36845857913079     -2.13648672105914     -0.02723738990630
  C   1.80558769538320      1.29656119548162      0.17700756799153
  N   2.51468725216448      2.23438303629226      0.23304060796371
  C   -1.18582032032776     -1.13444716959122     -0.13643547182705
  H   -1.68825159561291     -1.10609810913521     -1.10581105686790
  H   -1.96143697681248     -1.13536979613298      0.63426372504513
  H   -0.59772725037614     -2.04825921962780     -0.05776953530978
  N   -1.05150655708524      1.34879602640999      0.04994255675767
  O   -1.98080567581090      1.45050102537840     -0.74826848282520
  O   -0.68812402211623      2.19169627616020      0.86648946858418
