13
Coordinates from ORCA-job run
  C   1.02419552476670      0.09916049722272      0.10926118198712
  C   -0.32545291798224      0.07526184149282     -0.02302878790049
  C   1.76199923752009      1.17450345214099      0.69953159425621
  N   2.43567614604709      2.00447312314763      1.19227744941870
  C   1.79597696311920     -1.02338585654680     -0.33414843745972
  N   2.42846433178476     -1.94491516376780     -0.70340965862454
  C   -1.14824511175528     -1.02904821204556     -0.57778738757701
  H   -1.76804789653004     -1.45746152378455      0.21290059827721
  H   -0.51962890074946     -1.80702948772882     -1.00978185481297
  H   -1.82133791431916     -0.63906722118693     -1.34624281732576
  N   -1.08897252965541      1.23257224963703      0.47163979339336
  O   -0.65995594653379      2.35495168614804      0.21580704488375
  O   -2.11367098571247      0.96098461527125      1.09398128148415
