13
Coordinates from ORCA-job run
  C   1.03211455419570      0.12988978193320      0.01593893490897
  C   -0.30570160235223     -0.03335118546205     -0.11709486298575
  C   1.80698384698508      1.00662707083796     -0.80691393174721
  N   2.46725218519945      1.75279867880525     -1.43298880374344
  C   1.72085210061645     -0.52245036505259      1.08944173063326
  N   2.27405436338874     -1.04459691825520      1.98796830586582
  C   -1.20424026852913     -0.84466092876700      0.74388203868717
  H   -1.82465613584405     -0.18185399937248      1.35180418481443
  H   -1.87491754939470     -1.44420993410034      0.12512899624650
  H   -0.63033200832588     -1.50325059122846      1.39853630287828
  N   -0.98023955167452      0.71231765551720     -1.18900521265166
  O   -1.90541203113557      1.43460254986304     -0.82994326770817
  O   -0.57675790312933      0.53913818528146     -2.33675441519820
