13
Coordinates from ORCA-job run
  C   1.03236253402160      0.07582513793603      0.00922329678273
  C   -0.32382703185082      0.08270323285252     -0.01674280506088
  C   1.84441855278049      1.22409435262392      0.27609370385917
  N   2.57725842829130      2.11491376493511      0.51050230583926
  C   1.73411487205191     -1.15382434538734     -0.20977477321263
  N   2.30533119013291     -2.16660891050317     -0.39266649530014
  C   -1.21775223787769     -1.08209294870769     -0.23702344106218
  H   -0.64629370551874     -1.96913372978533     -0.50824506785193
  H   -1.93150700516679     -0.85389535244880     -1.03356260175573
  H   -1.79250376884070     -1.28021774060524      0.67021219381615
  N   -1.01385402179337      1.35667537909621      0.24461978622109
  O   -1.99391765859516      1.28357556328112      0.98300611510466
  O   -0.57383014763494      2.36898559671266     -0.29464221737957
