13
Coordinates from ORCA-job run
  C   1.03201032952472      0.06680175111751      0.04583047431281
  C   -0.32445346840896      0.07118306719127      0.04130986367590
  C   1.84626945699850      1.21647661039716      0.29959786056992
  N   2.58276416983507      2.11773789519618      0.47544877408667
  C   1.73230849228659     -1.14762444049556     -0.24939357713496
  N   2.30081552724293     -2.14999639517034     -0.48907279371710
  C   -1.21894124047639     -1.07430095816946     -0.26243985236349
  H   -0.65050664518674     -1.99752014513988     -0.36985070028129
  H   -1.77002741741685     -0.87529261554052     -1.18408121008937
  H   -1.95317346390315     -1.19233375016717      0.53924698245212
  N   -1.01313942222155      1.34240717565255      0.31796582247936
  O   -1.97682591780432      1.58824273682491     -0.40453216319934
  O   -0.58910040046984      2.03621906830335      1.23897051920876
