13
Coordinates from ORCA-job run
  C   1.03058199590411      0.07680646097409      0.05170868938945
  C   -0.32584951090637      0.06899695944385      0.03795146611459
  C   1.83323115502586      1.23959806573787      0.28155710698110
  N   2.56078355151008      2.15147420068817      0.43846236052273
  C   1.74388138832540     -1.13832692727917     -0.20805854472304
  N   2.32469708675781     -2.13983659982706     -0.42061372583902
  C   -1.20799294678792     -1.09160836099559     -0.24364914894672
  H   -0.62976872761569     -2.01120679778500     -0.32739671683352
  H   -1.75547030626612     -0.91948861606862     -1.17272501685149
  H   -1.94518635467802     -1.19854945788159      0.55672977369547
  N   -1.02723206298122      1.34058881774658      0.27806385338773
  O   -0.61464318875467      2.06124346503348      1.18358512652305
  O   -1.98803207953323      1.56030879021299     -0.45661522342033
