13
Coordinates from ORCA-job run
  C   1.00867822493478      0.15214652285245     -0.13979140863689
  C   -0.33859857424865      0.03382569518907     -0.02627878753764
  C   1.85503842673622     -0.56447849230057      0.76705261542138
  N   2.55730437841820     -1.11960080091387      1.53125528961592
  C   1.68488656144080      0.94916808712716     -1.11637764715457
  N   2.33901389193529      1.56817174394644     -1.87472221786278
  C   -1.07515945713246     -0.80939960838919      0.94778417480211
  H   -0.39969244008961     -1.21521387368687      1.70117407498555
  H   -1.84996793157867     -0.21407607512573      1.43627045086537
  H   -1.57351216057219     -1.63016325802622      0.42674834379717
  N   -1.18584679723927      0.77345535046845     -0.97790105033994
  O   -2.18370695401923      0.17082304117736     -1.36804575175340
  O   -0.83843716858520      1.90434166768151     -1.30716808620228
