13
Coordinates from ORCA-job run
  C   1.03122616475168      0.08922334501924     -0.00403030923590
  C   -0.32391632608912      0.06736923548225      0.05254111336600
  C   1.82986539826121      1.27004000490898      0.12560859447769
  N   2.55276001236434      2.19604680299410      0.19924205545578
  C   1.74481940208658     -1.13041774072324     -0.24045321238821
  N   2.32508911268981     -2.13617507382817     -0.43329161895261
  C   -1.20504699527102     -1.11407927549304     -0.12838006726390
  H   -0.62160575192812     -2.03162440906399     -0.19673013500348
  H   -1.79903574391344     -0.99100740773424     -1.03674830717485
  H   -1.90100113483062     -1.18952823557428      0.71161640981911
  N   -1.02786324037898      1.34235700279063      0.26623608492406
  O   -2.02754686837704      1.51598564120205     -0.42775976608357
  O   -0.57874402936530      2.11081011001970      1.11314915805987
