13
Coordinates from ORCA-job run
  C   1.03236050352362      0.06602683240665      0.01697805526715
  C   -0.32375710810711      0.07758248100512      0.04162481068604
  C   1.85581435500026      1.23383022991377      0.10301204497699
  N   2.60091863547320      2.14432160691402      0.14148957157673
  C   1.72264623206983     -1.17950400442202     -0.13906812011849
  N   2.28468374464032     -2.20603968858145     -0.26504770126544
  C   -1.22758037922184     -1.09211733247705     -0.09830873028382
  H   -1.79538627187860     -1.00778867439953     -1.02746486950501
  H   -0.66413258024666     -2.02456879291750     -0.09953152803696
  H   -1.94718545507047     -1.10466252416402      0.72485432882700
  N   -1.00223885491241      1.37754950766986      0.17107420877495
  O   -1.98197647302320      1.53547571170784     -0.55440432254707
  O   -0.55316634824695      2.18089464734429      0.98479225164791
