17

C	-0.380626	-0.052558	-1.492126
C	0.0	0.0	0.0
Cl	-0.008386	1.658586	-2.174834
H	1.102761	0.0	0.0
N	0.434473	-1.037257	-2.084621
H	1.414598	-0.898535	-1.841284
H	0.321955	-1.067583	-3.089201
C	-1.854285	-0.270179	-1.756009
H	-2.436484	0.480897	-1.223448
H	-2.065422	-0.195128	-2.825748
H	-2.131449	-1.266615	-1.406367
C	-0.457494	-1.241678	0.629731
N	-0.81513	-2.230539	1.152698
N	-0.608153	1.133888	0.703426
H	-0.409148	1.014064	1.691407
H	-0.096498	1.960488	0.412416
Cl	3.356709	0.0	0.0
