17

C	-0.244323	0.052993	-1.511418
C	0.0	0.0	0.0
Cl	-2.012493	0.238875	-1.88138
H	1.105707	0.0	0.0
N	0.421314	1.258573	-1.967576
H	0.378995	1.303622	-2.979836
H	1.401373	1.182336	-1.687975
C	0.241917	-1.220962	-2.183809
H	1.298833	-1.353062	-1.932944
H	-0.322823	-2.093339	-1.852041
H	0.134849	-1.125692	-3.267552
C	-0.518779	-1.231458	0.592737
N	-0.926906	-2.221285	1.075174
N	-0.54468	1.171565	0.692317
H	0.109038	1.400963	1.434222
H	-0.493919	1.933423	0.021547
Cl	3.333108	0.0	0.0
