17

C	-0.492556	-0.025405	-1.454468
C	0.0	0.0	0.0
Cl	-0.294853	-1.681902	-2.116482
H	1.094843	0.0	0.0
N	-1.923464	0.268463	-1.460891
H	-2.021486	1.278907	-1.454348
H	-2.330858	-0.08195	-2.320202
C	0.358661	0.918861	-2.287082
H	1.409129	0.628438	-2.236454
H	0.259599	1.922622	-1.866502
H	0.016012	0.920402	-3.324784
C	-0.509195	-1.140012	0.772696
N	-0.929341	-1.991853	1.464339
N	-0.431895	1.278565	0.577762
H	-1.340879	1.165868	1.005243
H	0.23308	1.545004	1.292263
Cl	3.354117	0.0	0.0
