17

C	-0.519812	0.066825	-1.455803
C	0.0	0.0	0.0
Cl	-0.181026	-1.518923	-2.234845
H	1.09387	0.0	0.0
N	-1.946989	0.300831	-1.558864
H	-2.442924	-0.452186	-1.090664
H	-2.126966	1.159858	-1.04646
C	0.245093	1.14204	-2.200681
H	1.316679	0.944388	-2.136032
H	0.037032	2.108701	-1.735625
H	-0.082479	1.161824	-3.241029
C	-0.533322	-1.16708	0.702833
N	-1.0468	-2.038448	1.302291
N	-0.411567	1.245793	0.680152
H	-1.091222	1.055408	1.404172
H	0.412821	1.636148	1.121994
Cl	3.327098	0.0	0.0
