17

C	-0.388369	-0.031099	-1.489643
C	0.0	0.0	0.0
Cl	-0.003003	1.682613	-2.158013
H	1.102686	0.0	0.0
N	0.411659	-1.019701	-2.097098
H	1.395133	-0.891194	-1.85967
H	0.292074	-1.039127	-3.102097
C	-1.866429	-0.231062	-1.743867
H	-2.152489	-1.227519	-1.399613
H	-2.436144	0.522174	-1.200558
H	-2.085003	-0.144799	-2.811113
C	-0.459572	-1.247263	0.617107
N	-0.828566	-2.222416	1.157878
N	-0.604053	1.126405	0.719513
H	-0.407384	0.99125	1.70613
H	-0.086961	1.954545	0.441919
Cl	3.355418	0.0	0.0
