17

C	-0.401546	-0.022056	-1.494774
C	0.0	0.0	0.0
Cl	0.020489	1.610313	-2.159368
H	1.10257	0.0	0.0
N	0.382046	-0.982546	-2.233877
H	0.107646	-1.915475	-1.941979
H	1.364642	-0.858135	-1.988497
C	-1.884207	-0.238745	-1.714585
H	-2.45244	0.492996	-1.141405
H	-2.164111	-1.241387	-1.379332
H	-2.111725	-0.143727	-2.776782
C	-0.436559	-1.271628	0.584491
N	-0.785688	-2.297789	1.038038
N	-0.608189	1.103678	0.752929
H	-0.13448	1.946968	0.445318
H	-0.348265	0.980836	1.72655
Cl	3.353537	0.0	0.0
