14
Coordinates from ORCA-job run
  C   0.43236512919357     -0.14870549841889     -0.67019586355889
  C   -0.64826905977040     -0.21269203010178      0.41592052044176
  Br  0.79054918068447     -1.98043576620519     -1.27244141796238
  H   -0.25481612666636     -0.82751726687337      1.24163124431837
  H   0.00846294506511      0.35933552069611     -1.53840956275092
  C   1.72767704288965      0.48833205051308     -0.20620611540629
  H   2.47274259394641      0.45990243693114     -1.00167137776674
  H   1.55264823595670      1.53240643172998      0.06499440432627
  H   2.13246330686485     -0.03820985102847      0.66092520606160
  N   -1.91047152175013     -0.68725804848932     -0.14019329608285
  H   -1.79460864838791     -1.64793105453297     -0.44110607011036
  H   -2.63020833235492     -0.66722287385189      0.57275379438844
  C   -0.85756934687727      1.14404551833312      0.94336892647639
  N   -1.01996539879378      2.22495043129844      1.37162960762562
