14
Coordinates from ORCA-job run
  C   0.64575828902790     -0.62700458166961     -0.42182368209771
  C   -0.70962230395458     -0.56766869093760      0.29225837727159
  Br  1.82236864263957     -1.83339337344118      0.56541397839529
  H   -1.07575925242746     -1.59256093841884      0.39981457143098
  H   0.47018227037450     -1.10550558924096     -1.38623883789408
  C   1.30447911421857      0.72678589359410     -0.59427753733751
  H   2.26014657378356      0.62317313723170     -1.10912907296253
  H   0.66491645632157      1.37158409915436     -1.20343766787381
  H   1.48506749422421      1.20231978488425      0.37209564306575
  N   -1.65391808419939      0.16176395961290     -0.54981838088297
  H   -2.60291161548309     -0.05922093500427     -0.27319277573360
  H   -1.53142194014181      1.16051406883869     -0.43252551484780
  C   -0.57149419152965      0.00630443902484      1.64599405597779
  N   -0.50879145285390      0.53390872637162      2.69386684348861
