14
Coordinates from ORCA-job run
  C   0.45110386133715     -0.14722141733307     -0.65776987894260
  C   -0.67103928571030     -0.19885493099391      0.38604837686733
  Br  0.76359695064809     -1.97491014836764     -1.29687959318266
  H   -0.33245438630292     -0.85148215272209      1.20704140798641
  H   0.07904930003675      0.39904001880388     -1.52656791360807
  C   1.75101196514841      0.42773460040079     -0.12991733019920
  H   2.52279589000696      0.39330057834898     -0.89938048662833
  H   1.60443085706710      1.46979901963207      0.16533165496946
  H   2.10466883294939     -0.13769399449552      0.73522444145700
  N   -1.92862231096042     -0.60804828402139     -0.22916198779305
  H   -1.83722781538492     -1.56262270326175     -0.55658392067552
  H   -2.67270103520422     -0.58278857694143      0.45809623699818
  C   -0.84828282934216      1.14957035220693      0.94555141347494
  N   -0.98632999428893      2.22317763874416      1.39996757927611
