14
Coordinates from ORCA-job run
  C   0.68467883561368     -0.46674081785781     -0.03814391199330
  C   -0.80594919580330     -0.26683022013798      0.31082264515926
  Br  1.79940109588195      0.21633593371964      1.41485165187474
  H   -1.36688509731253     -0.67816978532665     -0.53955697052192
  H   0.89704606806014     -1.53795703500029     -0.07639106346872
  C   1.06943874690910      0.20509708689361     -1.34267590606551
  H   0.44746978924826     -0.18319626173790     -2.15591023989038
  H   2.11376428149061      0.00693311828811     -1.58510015319992
  H   0.93988191562152      1.28685374065622     -1.28254199881575
  N   -1.27272713281297      1.09025624333873      0.51620957064669
  H   -1.20532527376423      1.62309874211570     -0.34088387900699
  H   -0.72033854346690      1.54704189472674      1.23225870774008
  C   -1.15766615579835     -1.08608940838283      1.48035048196072
  N   -1.42178933386697     -1.75763323129528      2.40571106558100
