14
Coordinates from ORCA-job run
  C   0.55817302126182     -0.61301929006162     -0.38786141909051
  C   -0.75686624351604     -0.54203223682293      0.41508962709707
  Br  1.76699452234758     -1.87300231889151      0.49072469556235
  H   -1.09949159635514     -1.56716658529717      0.58948894683195
  H   0.32594561407623     -1.07278956387279     -1.35248703059059
  C   1.24847956674143      0.72396432568445     -0.57473351592543
  H   0.58449272148116      1.42359991892851     -1.09041033374450
  H   1.53488364213579      1.15124413377999      0.38788378075164
  H   2.14715800451769      0.60832571471141     -1.18137081555938
  N   -1.83705451665284      0.17650333037373     -0.24578972261054
  H   -2.04863509666757     -0.24786112090646     -1.14054388338218
  H   -1.60087015457670      1.14992748678555     -0.38843108853423
  C   -0.51471652287434      0.07305697781513      1.72750876437900
  N   -0.30649296191910      0.60824922777372      2.75093199481535
