14
Coordinates from ORCA-job run
  C   0.40151625946136     -0.08652359927569     -0.62987989028619
  C   -0.66499202688349     -0.28678680660433      0.46806609250421
  Br  0.68269369477440     -1.80799238248808     -1.51972303371486
  H   -0.26534235011313     -1.00999882520686      1.18882682962294
  H   -0.00562077818037      0.56984139011186     -1.40398524345815
  C   1.72525427000259      0.43551561785611     -0.10351653898112
  H   2.12899535921832     -0.23653504976377      0.65726588069012
  H   1.58661786483987      1.42512380791157      0.33901729432997
  H   2.45543253850271      0.51751438019666     -0.90922082950521
  N   -1.97488023731700     -0.75473621694224      0.05255093698472
  H   -1.88707270683766     -1.67191665927223     -0.36726206525934
  H   -2.37108378632879     -0.12580498998943     -0.63649555451327
  C   -0.83299444697167      0.99582242407411      1.17105541877434
  N   -0.97952365416714      2.03647690939232      1.69430070281184
