14
Coordinates from ORCA-job run
  C   0.50140103487180     -0.26956961903751     -0.62509258430582
  C   -0.61504390572200     -0.29764966071304      0.42765627234724
  Br  1.01622859419765     -2.10379706932387     -1.03767351200755
  H   -0.24000401882619     -0.84724741221622      1.29766504467802
  H   0.09749334006163      0.13401929257781     -1.55805719575126
  C   1.72398628077551      0.51401495189714     -0.18093372675572
  H   2.50106861717377      0.46798119252444     -0.94415982910833
  H   2.13116073826654      0.09861887930381      0.74376401051397
  H   1.46592395328499      1.56244013921066     -0.01281456802923
  N   -1.79781379285440     -0.98331499926015     -0.06376698441205
  H   -2.26323235251751     -0.41858721709192     -0.76496409797699
  H   -2.45299285221052     -1.13824367080401      0.69250802755108
  C   -0.89455928846883      1.09128442576261      0.85777052912985
  N   -1.17361634803244      2.19005076717025      1.16809861412678
