14
Coordinates from ORCA-job run
  C   0.80386437523319     -0.05411160314721      0.19820530961194
  C   -0.66394280916763     -0.51167247329014      0.33843721057873
  Br  1.11640008963705      1.51345297376829      1.32279043026720
  H   -0.76222600083763     -1.39450371963769     -0.30817624560190
  H   1.45529731155164     -0.82982520245335      0.60811095789791
  C   1.17810029044472      0.25888891441276     -1.23819339704432
  H   2.23103936215961      0.53188808720208     -1.31157865070806
  H   0.58932790553715      1.09114921015705     -1.62695977395378
  H   1.00632463501807     -0.62200678007990     -1.86545759349416
  N   -1.70049920466768      0.42380559719617     -0.05227021102299
  H   -1.59750499480094      1.29430733139982      0.45610754986567
  H   -1.65133760178644      0.61517571786901     -1.04431811132221
  C   -0.91415984757261     -0.97022761557599      1.71306011983489
  N   -1.09068351074851     -1.34432043782089      2.81124240509108
