14
Coordinates from ORCA-job run
  C   0.65323655960859     -0.60866316450591     -0.43605239298963
  C   -0.68660133363613     -0.58854850706519      0.30923440105060
  Br  1.88720635293580     -1.77974499801139      0.52356870014946
  H   -1.01956636230923     -1.62383160655168      0.42490821802366
  H   0.46935380775013     -1.09294098000179     -1.39601340843300
  C   1.26787503226598      0.76366070831526     -0.62406316054563
  H   2.21493658765752      0.68724427252066     -1.15921685519278
  H   0.59652063061005      1.38800253253882     -1.22020116933293
  H   1.45518053268093      1.24606230996575      0.33761152592813
  N   -1.67131368661740      0.11202152850565     -0.51130637512149
  H   -1.57590187920859      1.11403725320251     -0.39629969086707
  H   -2.60671386935471     -0.13693775722206     -0.21279922146485
  C   -0.53368368791732     -0.00857912427269      1.65845816449618
  N   -0.44952868446569      0.52821753258204      2.70017126429934
