14
Coordinates from ORCA-job run
  C   0.40461761112341     -0.09391151401823     -0.62459617721531
  C   -0.66268031254673     -0.28939758213904      0.47382222548040
  Br  0.73359595292960     -1.83322493858793     -1.46215828193036
  H   -0.24790944954684     -0.97970735020084      1.21796952838932
  H   -0.01476533910233      0.52888705522680     -1.41960201678585
  C   1.71245232966041      0.47571904329032     -0.10793044017155
  H   1.54759449115825      1.47356254479422      0.30579406099280
  H   2.12900651962953     -0.16444813035187      0.67306562408983
  H   2.44418072110476      0.55293589150773     -0.91264585643264
  N   -1.95703509495766     -0.80462523685784      0.06590281811326
  H   -1.84266367148932     -1.73215661155218     -0.32370730522515
  H   -2.36490992417942     -0.20894611985641     -0.64561961570924
  C   -0.86663045420513      1.00901586225364      1.13713336527958
  N   -1.01385337957853      2.06729708649164      1.62357207112491
