14
Coordinates from ORCA-job run
  C   0.84802970631467     -0.13280504530081      0.18364569995755
  C   -0.65352693287572     -0.44051600561030      0.19687251409978
  Br  1.23933274984838      1.27488015309013      1.48821969104411
  H   -0.80103922334513     -1.23537252990037     -0.54558000668031
  H   1.38792030711909     -1.00708637490149      0.55351393085087
  C   1.33783779559477      0.27706080219424     -1.19125105027514
  H   2.40962069366147      0.47750382778271     -1.17283303824962
  H   0.80898198088388      1.16397094391017     -1.53573451840832
  H   1.15039484207225     -0.53722070471985     -1.89876033893158
  N   -1.43281239883596      0.70767898744806     -0.23444470271171
  H   -1.39628127407110      1.42943029488964      0.47627110927537
  H   -2.40196428077050      0.44145595223388     -0.35900999787974
  C   -1.06250100498289     -0.99489127810521      1.50454646032243
  N   -1.43299296061321     -1.42408902301078      2.53354424758632
