14

C	0.0	0.0	0.0
C	-0.543936	-0.076705	-1.444389
Br	1.945177	0.0	0.0
H	-1.653579	-0.083356	-1.299673
N	-0.481655	1.215676	0.582442
H	-1.509812	1.158926	0.566544
H	-0.180382	1.272477	1.549468
C	-0.352757	-1.241124	0.722365
N	-0.554613	-2.211236	1.356567
C	-0.140389	-1.300302	-2.131097
N	0.17147	-2.285203	-2.690036
C	-0.157472	1.101556	-2.217161
N	0.139895	2.018819	-2.887651
Br	-3.578889	0.0	0.0
