18

C	0.0	0.0	0.0
C	-0.302248	0.04061	-1.555014
Br	1.971827	0.0	0.0
H	0.628166	-0.28773	-2.026328
C	-0.471421	1.126739	0.785534
N	-0.578577	2.121067	1.407228
N	-0.339602	-1.296547	0.709176
O	-0.58569	-1.235673	1.904412
O	-0.214874	-2.325029	0.056447
C	-0.532745	1.500299	-1.940357
H	0.282249	2.154772	-1.617712
H	-0.621486	1.575978	-3.02909
H	-1.464998	1.826386	-1.4791
C	-1.39356	-0.830272	-2.181376
H	-1.202836	-0.835092	-3.263982
H	-1.35082	-1.856463	-1.824973
H	-2.372807	-0.428993	-1.947819
F	-2.266832	0.0	0.0
