18

C	0.0	0.0	0.0
C	-0.422453	-0.229768	-1.476082
Br	1.964278	0.0	0.0
H	-1.44463	-0.583257	-1.329956
C	-0.448319	1.255561	0.58228
N	-0.562518	2.346579	1.009578
N	-0.420902	-1.141171	0.913722
O	-0.471128	-0.891144	2.110299
O	-0.579359	-2.238304	0.401883
C	0.415623	-1.221369	-2.279435
H	0.640667	-2.121919	-1.712723
H	-0.179872	-1.515217	-3.149076
H	1.349216	-0.789955	-2.648048
C	-0.511327	1.112075	-2.194165
H	-1.308651	1.705109	-1.74538
H	0.43148	1.669236	-2.153578
H	-0.754992	0.938285	-3.247519
F	-2.418743	0.0	0.0
