18

C	0.0	0.0	0.0
C	-0.334972	0.090515	-1.550632
Br	1.960777	0.0	0.0
H	0.633767	0.116708	-2.055198
C	-0.433215	1.152343	0.779028
N	-0.539287	2.158243	1.381405
N	-0.37082	-1.262212	0.763647
O	-0.557026	-1.131942	1.96505
O	-0.317314	-2.324926	0.162137
C	-1.031487	1.409667	-1.896555
H	-0.503783	2.272537	-1.48057
H	-2.043013	1.3783	-1.499392
H	-1.033538	1.518101	-2.988106
C	-1.095614	-1.085106	-2.163074
H	-2.009606	-1.242712	-1.598902
H	-1.334079	-0.809772	-3.197176
H	-0.493227	-1.994356	-2.185535
F	-2.288596	0.0	0.0
