15

C	0.0	0.0	0.0
C	-0.244494	-0.134075	-1.582438
Br	1.914242	0.0	0.0
H	-0.011169	-1.187252	-1.755587
H	0.555072	0.456433	-2.027151
N	-0.466158	1.336629	0.541491
O	-0.717086	1.4803	1.723253
O	-0.443012	2.231161	-0.29972
N	-0.462578	-1.19247	0.814313
O	-0.739209	-2.20252	0.183662
O	-0.40412	-1.105755	2.032058
N	-1.471024	0.21455	-2.234832
H	-2.195787	-0.056018	-1.545736
H	-1.516899	1.226896	-2.23844
F	-2.428084	0.0	0.0
