15

C	0.0	0.0	0.0
C	-0.267628	-0.273656	-1.564085
Br	1.913952	0.0	0.0
H	0.59057	0.166508	-2.072076
H	-0.177343	-1.36008	-1.618966
N	-0.437169	1.390429	0.422708
O	-0.747133	1.63599	1.572529
O	-0.33387	2.21697	-0.482327
N	-0.450517	-1.105458	0.935185
O	-0.721734	-2.179618	0.41823
O	-0.377775	-0.890141	2.136298
N	-1.44798	0.162503	-2.250653
H	-1.398156	1.173737	-2.2975
H	-2.202901	-0.030612	-1.57161
F	-2.397547	0.0	0.0
