15

C	0.0	0.0	0.0
C	-0.415287	-0.168714	-1.477511
Br	1.909567	0.0	0.0
H	-1.504186	-0.257195	-1.404136
H	-0.147317	0.775839	-1.949867
N	-0.487096	1.336316	0.551269
O	-0.667913	1.462349	1.748345
O	-0.536229	2.241069	-0.27358
N	-0.452783	-1.181165	0.842028
O	-0.358521	-1.104454	2.057912
O	-0.750494	-2.192004	0.218314
N	0.299014	-1.251715	-2.152901
H	0.299739	-1.050283	-3.144078
H	-0.219895	-2.106709	-2.006919
F	-2.456686	0.0	0.0
