15

C	0.0	0.0	0.0
C	-0.472074	0.062968	-1.459433
Br	1.899552	0.0	0.0
H	-1.566789	0.120365	-1.32222
H	-0.184779	-0.893225	-1.896012
N	-0.431555	1.235332	0.777206
O	-0.155734	1.270308	1.971518
O	-0.926527	2.150245	0.135493
N	-0.499087	-1.276727	0.669507
O	-0.848635	-1.262236	1.832392
O	-0.401483	-2.272923	-0.039585
N	0.167281	1.1585	-2.184421
H	-0.47198	1.938602	-2.210966
H	0.358254	0.86524	-3.130658
F	-2.558159	0.0	0.0
