15

C	0.0	0.0	0.0
C	-0.469175	0.124669	-1.482095
Br	1.909722	0.0	0.0
H	0.216331	0.832577	-1.954996
H	-1.474118	0.524073	-1.369819
N	-0.360867	1.280515	0.763952
O	-0.137356	1.304711	1.965995
O	-0.708355	2.236221	0.08708
N	-0.467565	-1.237772	0.760261
O	-0.198191	-2.291721	0.187447
O	-0.978074	-1.144485	1.857382
N	-0.54237	-1.086266	-2.264552
H	-1.278662	-1.651349	-1.855359
H	0.319875	-1.614309	-2.185034
F	-2.465779	0.0	0.0
