15

C	0.0	0.0	0.0
C	-0.191298	-0.000183	-1.582714
Br	1.920326	0.0	0.0
H	0.37086	-0.878563	-1.903355
H	0.36837	0.879724	-1.903068
N	-0.476792	1.268866	0.661722
O	-0.517896	1.323696	1.879372
O	-0.649686	2.212562	-0.101699
N	-0.476638	-1.269568	0.661386
O	-0.655976	-2.211075	-0.102203
O	-0.516747	-1.324307	1.880889
N	-1.457392	-0.001717	-2.253283
H	-1.976631	0.768035	-1.84495
H	-1.973018	-0.775362	-1.847768
F	-2.346693	0.0	0.0
