13

C	0.0	0.0	0.0
C	-0.351642	0.252427	-1.464614
F	1.377794	0.0	0.0
H	0.578472	0.141806	-2.0279
H	-0.376098	-0.965727	0.319937
H	-0.380816	0.795366	0.631528
N	-0.770134	1.660186	-1.793831
O	-0.986428	2.448577	-0.882854
O	-0.760646	1.933726	-2.993709
N	-1.229793	-0.788686	-2.131066
O	-2.006667	-0.456087	-3.004997
O	-0.924951	-1.934489	-1.818471
Br	-3.269125	0.0	0.0
