13

C	0.0	0.0	0.0
C	-0.167655	0.037662	-1.532055
F	1.378158	0.0	0.0
H	0.584155	-0.644088	-1.924566
H	-0.399514	0.880549	0.488723
H	-0.399809	-0.917522	0.422761
N	0.251834	1.383563	-2.056781
O	0.75956	1.374217	-3.17646
O	0.06484	2.375144	-1.36322
N	-1.400014	-0.36552	-2.290953
O	-2.005488	0.496354	-2.906897
O	-1.593169	-1.572575	-2.309151
Br	-3.348388	0.0	0.0
