13

C	0.0	0.0	0.0
C	-0.161252	0.057221	-1.534236
F	1.373446	0.0	0.0
H	0.407636	0.916712	-1.875513
H	-0.401873	-0.906524	0.436149
H	-0.410802	0.884097	0.475982
N	-1.444857	0.134332	-2.312131
O	-1.820481	1.270168	-2.565356
O	-1.921235	-0.913907	-2.717598
N	0.562863	-1.130096	-2.117441
O	0.489693	-2.206588	-1.540352
O	1.159728	-0.916504	-3.171345
Br	-3.410357	0.0	0.0
