15

C	-0.527547	-0.01608	-1.428476
C	0.0	0.0	0.0
Cl	0.058048	1.40903	-2.352529
H	1.093004	0.0	0.0
H	-0.31306	-0.95106	0.453336
C	-0.035084	-1.208286	-2.14867
N	0.21944	-2.201175	-2.724418
N	-1.981	0.037801	-1.440407
H	-2.320688	-0.086607	-2.387837
H	-2.328955	-0.72922	-0.873805
C	-0.511682	1.174253	0.824578
H	-0.060326	1.124681	1.818037
H	-0.204618	2.118401	0.372926
H	-1.598577	1.177139	0.925068
Br	3.637864	0.0	0.0
