15

C	-0.532898	-0.025106	-1.422681
C	0.0	0.0	0.0
Cl	0.119173	1.377312	-2.336065
H	1.093003	0.0	0.0
H	-0.337877	0.948358	0.429577
C	-0.096465	-1.24057	-2.14012
N	0.150953	-2.262434	-2.666225
N	-1.982873	0.102439	-1.436991
H	-2.375568	-0.680403	-0.925914
H	-2.316824	0.048549	-2.392767
C	-0.483624	-1.179799	0.840911
H	-1.561797	-1.160786	1.034338
H	-0.220101	-2.132949	0.37389
H	0.02483	-1.148508	1.80645
Br	3.63959	0.0	0.0
