15

C	-0.321046	-0.056541	-1.487503
C	0.0	0.0	0.0
Cl	-2.072356	-0.546844	-1.744396
H	1.097054	0.0	0.0
H	-0.32067	-0.959471	0.415511
C	-0.231905	1.276395	-2.114917
N	-0.134755	2.336749	-2.613615
N	0.522388	-1.038116	-2.099366
H	0.531226	-0.946961	-3.10733
H	1.470971	-0.934435	-1.7343
C	-0.590558	1.173444	0.756044
H	-1.681664	1.196221	0.681602
H	-0.194949	2.120008	0.382416
H	-0.319435	1.098375	1.811324
Br	3.571727	0.0	0.0
