15

C	-0.335721	0.195444	-1.477722
C	0.0	0.0	0.0
Cl	-0.147401	-1.437621	-2.370435
H	1.092977	0.0	0.0
H	-0.311182	0.930212	0.487451
C	-1.750531	0.536222	-1.690906
N	-2.889662	0.812816	-1.784882
N	0.510414	1.195502	-2.000541
H	1.475874	1.025397	-1.709742
H	0.449506	1.270015	-3.009288
C	-0.614156	-1.200246	0.690499
H	-0.204214	-2.131718	0.301006
H	-0.383155	-1.15414	1.758313
H	-1.704249	-1.222391	0.577946
Br	3.591643	0.0	0.0
