15

C	-0.540613	-0.066555	-1.419646
C	0.0	0.0	0.0
Cl	-0.105241	-1.761569	-2.10169
H	1.092937	0.0	0.0
H	-0.322377	-0.905028	0.520374
C	-2.010529	-0.07645	-1.418839
N	-3.187908	-0.004588	-1.436942
N	-0.052709	0.96072	-2.218731
H	-0.623114	1.323098	-2.955696
H	0.610578	1.587742	-1.795787
C	-0.497673	1.235481	0.755699
H	-0.140122	1.181717	1.787506
H	-1.59072	1.304135	0.770022
H	-0.099534	2.160495	0.328817
Br	3.643219	0.0	0.0
