15

C	-0.28431	-0.156244	-1.498218
C	0.0	0.0	0.0
Cl	-2.016592	-0.644096	-1.792604
H	1.096564	0.0	0.0
H	-0.376112	0.957818	0.36816
C	-0.123098	1.144171	-2.166306
N	-0.000785	2.190541	-2.685905
N	0.561041	-1.121467	-2.172745
H	0.403681	-2.027287	-1.743363
H	1.527269	-0.862794	-1.953968
C	-0.480444	-1.154461	0.866116
H	-1.566946	-1.175763	0.971087
H	-0.031659	-1.060475	1.857357
H	-0.154525	-2.11581	0.461084
Br	3.567002	0.0	0.0
