15

C	-0.564946	0.020397	-1.417551
C	0.0	0.0	0.0
Cl	0.117194	1.444434	-2.275355
H	1.093317	0.0	0.0
H	-0.321201	0.936013	0.472177
C	-0.183978	-1.188788	-2.16179
N	0.072424	-2.191066	-2.71679
N	-2.018145	0.133109	-1.513042
H	-2.29856	0.935356	-0.957027
H	-2.428691	-0.694919	-1.095973
C	-0.483005	-1.200402	0.809197
H	-1.566477	-1.213558	0.962246
H	-0.183637	-2.136766	0.333713
H	-0.00635	-1.173721	1.790345
Br	3.62761	0.0	0.0
