14
Coordinates from ORCA-job run
  C   -0.34107419084119      0.29814844410746      0.22652316474330
  C   0.86663305873342     -0.22979569971215     -0.04495516845993
  C   -1.69694622349800     -0.29487872352764      0.10758205664572
  H   -2.16861088942904     -0.29502379027679      1.09310481135921
  H   -1.66519247482284     -1.30080803948027     -0.29740111382169
  H   -2.30738437607989      0.32974835989544     -0.55314353583450
  N   -0.33671594933547      1.66702287176235      0.78394586001323
  O   0.21206910874786      2.54551614859704      0.12428609463949
  O   -0.91425725372562      1.79969136087786      1.85941807165360
  C   2.11304077786874      0.41468712967441      0.18817678768983
  N   3.15235796280078      0.93547781758705      0.37438442256274
  N   0.99158456835962     -1.61538807827693     -0.55089331521185
  O   0.23141823666871     -1.96216791882555     -1.44746731695318
  O   1.86307764455291     -2.29322988240229     -0.01756081902597
