14
Coordinates from ORCA-job run
  C   -0.39646994470236      0.19631450332236      0.14459854122032
  C   0.77693235230797     -0.44956705986871      0.03626706953586
  C   -1.44513554871404      0.31382638297166     -0.89982241431214
  H   -1.14618104715523     -0.18342209912848     -1.82202743680301
  H   -2.36846079124274     -0.13677271064770     -0.52732671102043
  H   -1.64517009235474      1.36943209727531     -1.10638197408204
  N   -0.71942515163264      0.89465547118521      1.39924095721764
  O   -1.72806798780477      0.50087671446021      1.97457266078340
  O   0.00737040107323      1.82880433968852      1.71929741333843
  C   1.18500951718781     -1.10829900737249     -1.15625453955661
  N   1.49347333003069     -1.65439068178567     -2.15266305487173
  N   1.75349112045386     -0.50756991737517      1.14613276458358
  O   1.30369492430139     -0.65364681020496      2.27531035804592
  O   2.92993891825157     -0.41124122252008      0.81705636592081
