14
Coordinates from ORCA-job run
  C   -0.40938206710550      0.21232790309127      0.12149723585247
  C   0.78758330420164     -0.39903383575484      0.09222529202771
  C   -1.35873431063476      0.31265689492356     -1.02165911201376
  H   -1.66817143860254      1.35162581529945     -1.14359231826551
  H   -2.25383303320828     -0.27793447416322     -0.82628143473431
  H   -0.87549981055233     -0.03039633233940     -1.93021827462707
  N   -0.84022421110195      0.84674861477062      1.37048751438315
  O   -0.00088819682445      1.46520032852125      2.02127755720830
  O   -2.03036975914286      0.72171891325280      1.64374370788876
  C   1.30186327591143     -1.03417028573542     -1.07088618686765
  N   1.65732629079498     -1.57783436543324     -2.05298029091777
  N   1.67668693000313     -0.49242956365585      1.27056095643441
  O   2.74929305450837      0.08847342292943      1.18131480560660
  O   1.26534997175313     -1.18795303570642      2.19251054802469
