14
Coordinates from ORCA-job run
  C   -0.33986462271786      0.31833911086196      0.23684152184539
  C   0.87393959098747     -0.25267622912456      0.11296291404886
  C   -1.67892748827396     -0.26396621148824     -0.04604996443638
  H   -2.39794680631463      0.11367292772219      0.68319756386073
  H   -2.01297627944139      0.04661673249771     -1.03866203195163
  H   -1.65862410065477     -1.35081187635564     -0.01536084139192
  N   -0.36650936621321      1.73341713256614      0.65638047988806
  O   0.36768339876612      2.08365672347406      1.57618417513306
  O   -1.14970692918091      2.44135039816714      0.02796259425175
  C   2.13122676605139      0.34903010411135      0.39274939136825
  N   3.20190215098745      0.80466235367627      0.57386310997126
  N   0.97922758637580     -1.66102488136318     -0.33143595265887
  O   1.76536657293150     -2.35729322803568      0.30133758529325
  O   0.28420952669700     -2.00497305670953     -1.28197054522181
