14
Coordinates from ORCA-job run
  C   -0.36135955254534      0.25997945145008      0.08212642251488
  C   0.73558253129185     -0.51374723909507      0.13971355144197
  C   -1.00330721277218      0.79833626316120     -1.14454390002921
  H   -0.51537394995327      0.42212917814485     -2.04371619399514
  H   -2.06009060292029      0.51763442427882     -1.16452585123227
  H   -0.94830291856022      1.88895856783380     -1.12677228024297
  N   -1.02687051304442      0.63872473750692      1.33940201032503
  O   -1.32369680198562     -0.26600066527763      2.11331968161335
  O   -1.26496309884858      1.83566120371461      1.47156596119659
  C   1.41936474387317     -0.97472364187735     -1.01812853022037
  N   1.97759345404144     -1.33663900951151     -1.98940868340137
  N   1.31184993401390     -0.97427795673210      1.42191186504006
  O   1.51058007167333     -0.12116632690863      2.27710581322047
  O   1.55099391573624     -2.17386898668800      1.48895013376897
