14
Coordinates from ORCA-job run
  C   -0.34235937793660      0.31719962122376      0.20780559856564
  C   0.87023300921516     -0.22679231268100     -0.00770537952712
  C   -1.68398902563293     -0.31563650968447      0.13856839877733
  H   -2.24995662839393      0.13045128354193     -0.68502709049140
  H   -2.21957872246931     -0.10774740619061      1.06573510533185
  H   -1.62243400036862     -1.38720094565016     -0.02832293421296
  N   -0.36074588783467      1.74320715206987      0.60161396023405
  O   0.33953180857279      2.51934882733875     -0.04372551414182
  O   -1.09955159233730      2.02847920856592      1.54023766200569
  C   2.12648946124486      0.42170864576582      0.14606199503156
  N   3.19125934553159      0.91057207994392      0.26370175394782
  N   0.98372474061607     -1.65931348049140     -0.36488852566854
  O   1.80936047699948     -2.30006333189775      0.27618747438611
  O   0.25801639279341     -2.07421283185457     -1.26224250423822
