14
Coordinates from ORCA-job run
  C   -0.34331607970935      0.30745477710057      0.22916903755854
  C   0.87281520515763     -0.25605909579596      0.10249005708198
  C   -1.68889203827332     -0.29771512977219      0.05817026064547
  H   -2.28298817529123      0.34690719475962     -0.59076883121855
  H   -1.63721949597337     -1.30154597415154     -0.35370105339960
  H   -2.18490684755635     -0.35108344843957      1.03251989141527
  N   -0.36135226905021      1.74852698024721      0.56394024892866
  O   0.33937298443266      2.12072439328552      1.50166863886202
  O   -1.09986121706489      2.44701695701688     -0.12496366727070
  C   2.12292235059674      0.41249460805179      0.21710612086348
  N   3.17800166329041      0.92869296927301      0.29847720245613
  N   0.99369444092034     -1.68409039652974     -0.26878292679549
  O   0.27697878885865     -2.48233482064202      0.32558922550729
  O   1.81575068966229     -1.93598901440358     -1.14291420463450
