14
Coordinates from ORCA-job run
  C   -0.33065746477356      0.31431386833648      0.14273985364963
  C   0.86438571227381     -0.30248699239124      0.10503634723139
  C   -1.70993463098918     -0.23820883734809      0.12353202386085
  H   -2.05182055523363     -0.39903824858867      1.15043312726833
  H   -2.38083365948709      0.47801014683727     -0.35722132155661
  H   -1.75252362105999     -1.19171921560777     -0.39945266814685
  N   -0.27667943788105      1.78217072309860      0.27659850399800
  O   0.01905502343597      2.42145883645217     -0.72702485581717
  O   -0.56023699625496      2.21745124816100      1.38637594028193
  C   2.11592573462025      0.37409147269599      0.11715489387046
  N   3.14248910028150      0.94806951645034      0.14859986592045
  N   0.95021991644492     -1.77190010611766     -0.00953718745791
  O   0.08906021630489     -2.42823098248477      0.56961932841537
  O   1.88055066231813     -2.20498142949365     -0.68085385151788
