14
Coordinates from ORCA-job run
  C   -0.34626986934943      0.31075949892833      0.23032864515473
  C   0.87342862640624     -0.19471090181264     -0.03714819074569
  C   -1.66266209321663     -0.38081052031742      0.25287292161677
  H   -2.43066110237160      0.29361099779586     -0.13026156937511
  H   -1.64659377530630     -1.29428196473934     -0.33671049278055
  H   -1.92458606821418     -0.63779891026735      1.28177192639984
  N   -0.40270198687706      1.73613997683328      0.60973497952856
  O   -1.12713564664943      1.98463609583010      1.57052042924006
  O   0.24808206637765      2.54159159708304     -0.05032427916898
  C   2.10548877739012      0.51520685684843     -0.03654486072839
  N   3.15678323250133      1.04566767285024     -0.02171318717297
  N   1.01404848644777     -1.62315074638757     -0.40115739138975
  O   1.76440972367998     -1.85588939366087     -1.34250902701701
  O   0.37936962918155     -2.43897025898407      0.25914009643849
