14
Coordinates from ORCA-job run
  C   -0.33962289279982      0.31919730139144      0.19012743360748
  C   0.86952674971733     -0.25900362767345      0.06220825213833
  C   -1.69343739445498     -0.25871068249800     -0.00765246908254
  H   -2.32864876457815      0.04321408181953      0.82588722986497
  H   -1.66894674218362     -1.34181753611136     -0.08895992947045
  H   -2.12412614470198      0.14286874509456     -0.93056677732330
  N   -0.33732387752676      1.73831158348433      0.60882914214425
  O   0.37293593185818      2.51371006788560     -0.02601580928246
  O   -1.06941813330228      2.01626170611708      1.55443884630303
  C   2.12173977170268      0.35842179970520      0.33516262942489
  N   3.17484105580065      0.83683074275629      0.55533834719947
  N   0.97595899366735     -1.68479880418779     -0.31819956160279
  O   1.79268729096241     -2.34367073903836      0.31625891220712
  O   0.25283415583897     -2.07981463874510     -1.22685624612799
