14
Coordinates from ORCA-job run
  C   -0.42206921696411      0.21347368301877      0.16194342408178
  C   0.77969752104045     -0.39296695335136      0.06753692698114
  C   -1.26821267558917      0.60899636627784     -0.99583995835029
  H   -2.23785891942839      0.11130826226425     -0.93465551504609
  H   -0.78666833708535      0.34649342070141     -1.93742860867879
  H   -1.45317528228929      1.68466189306096     -0.97089584120706
  N   -0.98075524992873      0.52688340484569      1.49170880289636
  O   -0.31255681594021      0.24513552258772      2.48345679127002
  O   -2.09158160380757      1.05500481361586      1.49456203979955
  C   1.36284931872466     -0.71715193481505     -1.18824539967911
  N   1.85132625252819     -0.99019890818344     -2.22506760710739
  N   1.63286321316250     -0.79305707941624      1.21042592557474
  O   2.46678691997720      0.02891680683304      1.56042629640481
  O   1.45835487559983     -1.92749929743946      1.63007272306034
