14
Coordinates from ORCA-job run
  C   -0.34520158354199      0.31193147903403      0.20435092376097
  C   0.87353866382960     -0.25755581261208      0.15511598816918
  C   -1.68340517552875     -0.30116482433121      0.00644917876086
  H   -2.25206209381344      0.31753120275504     -0.68877696216463
  H   -1.61638406973955     -1.31963485393802     -0.36636502643289
  H   -2.21715116657747     -0.31958636257833      0.96193369564275
  N   -0.37288148943213      1.76841478152332      0.45898635441878
  O   0.28417540673521      2.18912009087435      1.40791499179411
  O   -1.07178051383443      2.43053512439172     -0.30301604074142
  C   2.12000621688225      0.41522527480704      0.27971303188872
  N   3.17368923286018      0.93385894663308      0.36530030700650
  N   1.00135154998829     -1.70280358482156     -0.13685065921700
  O   1.84066635266221     -2.00057261946588     -0.97918748245418
  O   0.26743866951005     -2.46729884227151      0.48043169956825
