14
Coordinates from ORCA-job run
  C   -0.34349967510858      0.31548219948507      0.22170795337061
  C   0.87519710406314     -0.24947144155165      0.12766547609002
  C   -1.68044418366477     -0.30530484788598      0.03985263985121
  H   -2.23362001614569      0.25855178471960     -0.71252737900149
  H   -1.60844077905306     -1.35007480039914     -0.24917454633297
  H   -2.23630511418715     -0.24369835390099      0.98046349522010
  N   -0.37840133008243      1.76482907655293      0.51363336079300
  O   0.37636289826670      2.18901578522073      1.38516905428877
  O   -1.18605754927912      2.42104928103568     -0.13912920767562
  C   2.12935101215618      0.41073714426853      0.24147439412988
  N   3.19601839748348      0.90322100093516      0.32103646160819
  N   0.99462125477234     -1.68665325666165     -0.20899408478219
  O   1.76027648079179     -1.95070795120228     -1.12947985540987
  O   0.33394149998719     -2.47697562061601      0.45630223785036
