14
Coordinates from ORCA-job run
  C   -0.34214695347003      0.31542227915550      0.19896465403927
  C   0.87085982122032     -0.23829159656276      0.01372935827346
  C   -1.68939407019452     -0.30071937818888      0.09559469169040
  H   -2.26003648645602     -0.04738925508625      0.98991338160951
  H   -1.63816664545020     -1.37892746504607     -0.02617871197298
  H   -2.21101471020964      0.11863306251891     -0.77064234927604
  N   -0.35364600854737      1.74211884926879      0.59112375194934
  O   0.32983843214163      2.51726449356224     -0.07279364059437
  O   -1.07120398482506      2.02695822424967      1.54603556250519
  C   2.12432918131507      0.40675507329598      0.20279559773058
  N   3.17854751166803      0.90448523872361      0.36785092632716
  N   0.98664505784613     -1.67014309453508     -0.34383133691600
  O   0.25035873524329     -2.08953947738933     -1.23050482739140
  O   1.82503011971837     -2.30662695396633      0.28494294202588
