14
Coordinates from ORCA-job run
  C   -0.34492305031672      0.30673434763146      0.19712361442033
  C   0.87125509029754     -0.24246611229056      0.02041109960842
  C   -1.69333048311937     -0.31125383156779      0.11998936768932
  H   -2.28908560121236      0.04710156350501      0.96035249221613
  H   -2.17932561960533      0.00412104787322     -0.80900663026728
  H   -1.64965927186820     -1.39673317329836      0.12573514116551
  N   -0.35750080103155      1.74790280704768      0.53780427850100
  O   -0.98509205809349      2.05109283902462      1.54788235357248
  O   0.23271240839618      2.51027677129891     -0.22220036159363
  C   2.11465755623453      0.43085696222539      0.17679523998751
  N   3.15755844439147      0.96395352938551      0.29661360705134
  N   1.00269422580952     -1.68233417231367     -0.29242741730919
  O   1.91349471648193     -2.26986537058732      0.28146585599662
  O   0.20554444363587     -2.15938720793411     -1.09353864103857
