14
Coordinates from ORCA-job run
  C   -0.34336484147532      0.31529157823833      0.21777131750067
  C   0.86995356162187     -0.22663083584267     -0.00203254518091
  C   -1.68712031197048     -0.30777569925811      0.10585424808420
  H   -2.20476188906893      0.10372005652240     -0.76652574457170
  H   -2.26470219791079     -0.05414344824334      0.99547164498728
  H   -1.63104643756046     -1.38643455997214     -0.01237052906596
  N   -0.35687942878685      1.72853211713623      0.65794305752393
  O   -1.10500903538625      1.98900647109709      1.59657930397784
  O   0.35788548415793      2.51948777905217      0.04781938926144
  C   2.12675024679444      0.41000618246256      0.19256480626765
  N   3.19116535239531      0.88995496643306      0.34492655750666
  N   0.98240679276455     -1.64499983532286     -0.41163377651175
  O   1.83572399104416     -2.30039269352819      0.17639558541943
  O   0.22799871338082     -2.03662207877452     -1.29576331519877
