14
Coordinates from ORCA-job run
  C   -0.34133368423625      0.32247750941453      0.19797485694657
  C   0.87448409291768     -0.22361875151761      0.00958749393256
  C   -1.67352245741681     -0.33720213641892      0.19446299641276
  H   -1.64788136225854     -1.29851541247928     -0.31300274507345
  H   -2.40042921017420      0.31685757702742     -0.29142032066104
  H   -2.00007723068858     -0.49791610488243      1.22428686833480
  N   -0.37582393013980      1.76225061921559      0.51171911608662
  O   -1.08510169750608      2.06250740339760      1.47025736244469
  O   0.28214879768573      2.52855151456692     -0.18740962769181
  C   2.12205351245941      0.45827679236195      0.03683955520345
  N   3.17735134447516      0.97917727453301      0.07334185544918
  N   0.98972024723680     -1.66997288924952     -0.28463850631247
  O   1.73390268867265     -1.96166724340153     -1.21442112610657
  O   0.34350888897281     -2.44020615256774      0.41842222103471
