14
Coordinates from ORCA-job run
  C   -0.34064156834054      0.31959270335222      0.21597377255428
  C   0.87338599775244     -0.21927629337769     -0.00518444146024
  C   -1.67341053737395     -0.33841687214434      0.20689532896595
  H   -2.40589602957046      0.33858355749900     -0.23694113184045
  H   -1.65554623650090     -1.27472238691461     -0.34600247623816
  H   -1.98870666821755     -0.54785700572630      1.23118317084300
  N   -0.37327503977111      1.75291298314763      0.56742787531917
  O   0.30019604177181      2.53287404624575     -0.10023450524562
  O   -1.10163687408682      2.03242472013997      1.51668782277432
  C   2.12082106520884      0.46332198387198      0.01084470404119
  N   3.18292879123108      0.97071054790082      0.04118971411560
  N   0.98847238880657     -1.65766924114805     -0.33419586979000
  O   0.33833882065125     -2.44429577131817      0.34656531743711
  O   1.73496984843934     -1.92818297152822     -1.26820928147615
