14
Coordinates from ORCA-job run
  C   -0.34108743974730      0.32646216996780      0.20180721245180
  C   0.87272987611685     -0.22333521398191      0.00406166833970
  C   -1.67533797179753     -0.33048136744228      0.20417164844623
  H   -1.97500423718342     -0.55041171499481      1.23135535992507
  H   -1.66488237515791     -1.26189336380061     -0.35707161667025
  H   -2.41398077917748      0.35021666792097     -0.22261622268888
  N   -0.37075817932168      1.76794401310230      0.51803467397966
  O   -1.13014546578202      2.07841408322621      1.43266121789176
  O   0.33609035854157      2.52484965734026     -0.14182289959350
  C   2.12517452841179      0.44942691314039      0.02219325871489
  N   3.19345297522682      0.94390589499220      0.05320436429332
  N   0.98345869410414     -1.67062826041378     -0.28956969883794
  O   1.75947196747534     -1.96799493576003     -1.19103416895582
  O   0.30181804829082     -2.43647454329670      0.38362520270396
