15

C	0.0	0.0	0.0
C	-0.505006	-0.102786	-1.413781
F	1.369192	0.0	0.0
H	-1.560893	-0.376017	-1.357871
H	0.060031	-0.916446	-1.875219
C	-0.43045	1.197114	0.7341
N	-0.566081	2.233257	1.270482
N	-0.350362	-1.244154	0.819801
O	-0.387107	-2.301415	0.203783
O	-0.434586	-1.101566	2.03336
C	-0.333653	1.212729	-2.163919
H	-0.555228	1.062645	-3.222835
H	-1.034711	1.955004	-1.778924
H	0.683237	1.605283	-2.080828
Br	-3.60985	0.0	0.0
