16

C	-0.585437	0.015846	-1.415515
C	0.0	0.0	0.0
Cl	0.088892	1.345728	-2.357568
H	1.091049	0.0	0.0
N	-0.141033	-1.26899	-2.174327
O	0.895255	-1.813602	-1.825339
O	-0.881074	-1.624191	-3.091496
N	-2.000062	0.115229	-1.387634
H	-2.379852	-0.712017	-0.935876
H	-2.354264	0.14901	-2.335694
C	-0.495725	-1.222378	0.66065
N	-0.992047	-2.140115	1.206551
N	-0.406221	1.216772	0.679011
H	-1.360191	1.161729	1.00991
H	0.227558	1.380983	1.450706
Cl	3.300839	0.0	0.0
