16

C	-0.305706	0.083356	-1.495016
C	0.0	0.0	0.0
Cl	-0.150045	-1.561991	-2.275069
H	1.10316	0.0	0.0
N	-1.768267	0.449477	-1.744576
O	-2.60244	-0.144259	-1.078904
O	-1.995492	1.284286	-2.615214
N	0.525298	1.067778	-2.033657
H	0.385452	1.203656	-3.024482
H	1.498977	0.869373	-1.799949
C	-0.533726	-1.172721	0.677017
N	-0.912386	-2.099324	1.290623
N	-0.522049	1.232772	0.616085
H	-0.408804	1.144674	1.620322
H	0.102554	1.975935	0.317844
Cl	3.279596	0.0	0.0
