16

C	-0.568536	0.012392	-1.422457
C	0.0	0.0	0.0
Cl	0.317591	1.30771	-2.347474
H	1.094188	0.0	0.0
N	-0.260574	-1.269608	-2.180441
O	-0.839112	-1.397133	-3.255438
O	0.515728	-2.065736	-1.671065
N	-1.961306	0.161792	-1.406488
H	-2.330141	0.31092	-2.335561
H	-2.179612	0.92719	-0.777492
C	-0.523796	-1.147535	0.738356
N	-0.968948	-2.012542	1.396308
N	-0.482882	1.24595	0.646427
H	-0.567214	1.074618	1.641652
H	0.267141	1.922674	0.537262
Cl	3.281767	0.0	0.0
