16

C	-0.399141	0.023775	-1.489948
C	0.0	0.0	0.0
Cl	-2.24516	0.42068	-1.604203
H	1.094818	0.0	0.0
N	0.206968	1.211271	-2.24163
O	0.54563	2.191977	-1.597401
O	0.266829	1.093013	-3.460071
N	-0.031032	-1.117831	-2.163902
H	-0.283021	-1.978678	-1.704986
H	-0.223501	-1.09741	-3.15313
C	-0.47003	-1.286705	0.528167
N	-0.855383	-2.331017	0.903881
N	-0.447559	1.06861	0.860745
H	0.158505	1.862511	0.707417
H	-1.402166	1.328941	0.647647
Cl	3.244416	0.0	0.0
