16

C	-0.262182	-0.003719	-1.5274
C	0.0	0.0	0.0
Cl	-2.000585	-0.213781	-1.931279
H	1.096231	0.0	0.0
N	0.064669	1.418452	-2.114679
O	0.923317	1.457387	-2.988343
O	-0.559755	2.382234	-1.684232
N	0.515009	-1.006239	-2.103549
H	1.472015	-0.948075	-1.748108
H	0.512345	-0.958959	-3.113658
C	-0.474269	-1.285396	0.524391
N	-0.866347	-2.290554	0.987913
N	-0.497129	1.079851	0.812972
H	0.119971	1.874507	0.714725
H	-1.425016	1.355816	0.51721
Cl	3.245106	0.0	0.0
