16
Coordinates from ORCA-job run
  C   -0.89900889721581      0.24172228272548     -0.29677095098954
  C   0.54139899883270     -0.26774663814292     -0.27452061034738
  Br  -1.63810602954386     -0.12026650603918     -2.07113596327960
  H   0.55735597651165     -1.34321085612586     -0.46031618440005
  H   -0.89631750640906      1.32871237180191     -0.19775150250604
  C   -1.78124749768271     -0.40081385613572      0.75865329481466
  H   -1.43459933543342     -0.12145848738640      1.75687478115869
  H   -2.81142846546572     -0.05993294215104      0.65222139981215
  H   -1.76466170008859     -1.48917173235153      0.67124484882778
  N   1.01754233908778     -0.11483573672621      1.14292231200893
  O   1.29303723279622     -1.13661890667857      1.76730493636099
  O   1.07652332735416      1.03260174118483      1.58186554803263
  C   1.50393342553356      0.47705373572062     -1.18076512697973
  H   1.23619637036742      0.31333286377469     -2.22392110778814
  H   1.47458315813073      1.54605241832794     -0.96569153259493
  H   2.52279860322495      0.11558024820197     -1.02521414213042
