16
Coordinates from ORCA-job run
  C   -0.91173574136858     -0.35984480581133     -0.51133391075032
  C   0.61532886235151     -0.39733234429118     -0.45606225073121
  Br  -1.60661176241359     -2.18929716532677     -0.44049194438274
  H   0.97616510753721     -1.06407751970239     -1.24014103899951
  H   -1.16220204766256     -0.01638653239469     -1.51872355953133
  C   -1.62403423901185      0.49720045814351      0.51959449123997
  H   -2.69645853916549      0.48722020282887      0.32066263722852
  H   -1.27598282738413      1.53128375411363      0.45867512384301
  H   -1.45082625531080      0.13145177634490      1.52982716650837
  N   1.09943559431477     -1.03306924670003      0.81421748080351
  O   1.67270179692879     -2.11529310259476      0.71959248508860
  O   0.89980052831839     -0.41723726200243      1.86065495554652
  C   1.24431184300147      0.98164810886550     -0.57827778373353
  H   0.88661344735428      1.47444773603704     -1.48520072181054
  H   2.33044785968973      0.89036601181959     -0.64590994716558
  H   1.00304637282086      1.59991993067052      0.28491681684626
