16
Coordinates from ORCA-job run
  C   -0.83052854623322     -0.36937994967384      0.42483484009243
  C   0.52481901182932     -0.35073512402224     -0.27738305713149
  Br  -0.67466606852880      0.32670212394265      2.24577102303780
  H   0.37928219140684     -0.86800731181699     -1.23294067947524
  H   -1.12496109205094     -1.41110301905637      0.55472530222036
  C   -1.89456114747464      0.40157243724633     -0.33478071358762
  H   -1.95976836180204      0.02832628547404     -1.36198276555182
  H   -1.67617128674330      1.46946184994845     -0.36061713057792
  H   -2.86656308204307      0.26774285993218      0.14127093366398
  N   1.45068111029179     -1.27439170434477      0.47950639127901
  O   1.08631076358825     -2.44514686640100      0.56109549698940
  O   2.48006122457172     -0.81024004329022      0.95872778959743
  C   1.15662848101735      1.00513253378186     -0.49393910262569
  H   0.51809777190939      1.60661557338321     -1.14323652563339
  H   1.30321507345376      1.52782572204007      0.44971951825738
  H   2.12712395680760      0.89562463285661     -0.97777132055462
