16

C	-0.401917	0.012722	-1.456647
C	0.0	0.0	0.0
Br	-0.286724	1.740888	-2.345414
H	1.096541	0.0	0.0
H	0.237905	-0.665421	-2.017231
N	-1.803382	-0.488815	-1.684012
O	-1.968832	-1.281065	-2.608921
O	-2.691584	-0.081669	-0.93829
N	-0.371115	-1.344862	0.458796
H	0.430413	-1.722076	0.958629
H	-1.166895	-1.302444	1.086759
C	-0.490965	1.125618	0.888696
H	-0.161397	2.09739	0.516986
H	-0.036642	0.983652	1.873729
H	-1.579524	1.13412	0.988596
H	2.832935	0.0	0.0
