16

C	-0.474602	0.042846	-1.42769
C	0.0	0.0	0.0
Br	-2.422204	0.294854	-1.636147
H	1.095128	0.0	0.0
H	-0.010818	0.861152	-1.975242
N	-0.093166	-1.203927	-2.182569
O	0.981382	-1.126097	-2.772351
O	-0.813996	-2.190214	-2.12819
N	-0.40198	-1.222789	0.668192
H	0.374387	-1.525439	1.242874
H	-1.216108	-1.081974	1.251215
C	-0.372784	1.280976	0.735336
H	-1.444257	1.334078	0.958169
H	-0.091599	2.167836	0.158172
H	0.194519	1.305905	1.670226
H	2.768654	0.0	0.0
