16

C	-0.630758	-0.041621	-1.3769
C	0.0	0.0	0.0
Br	0.112277	-1.42767	-2.518608
H	1.099069	0.0	0.0
H	-1.696645	-0.247125	-1.302394
N	-0.529203	1.283537	-2.077113
O	0.53287	1.625111	-2.576481
O	-1.555505	1.968826	-2.033729
N	-0.489682	-1.219185	0.683422
H	-0.322944	-1.071027	1.674521
H	0.161742	-1.95839	0.426012
C	-0.464722	1.230856	0.760647
H	-0.000984	1.204114	1.751468
H	-0.117488	2.146935	0.279506
H	-1.553709	1.26768	0.870872
H	2.894862	0.0	0.0
