16

C	-0.393548	0.0043	-1.464482
C	0.0	0.0	0.0
Br	0.259419	1.539472	-2.446315
H	1.10166	0.0	0.0
H	0.016019	-0.871875	-1.96759
N	-1.88027	-0.089443	-1.66321
O	-2.573427	0.873458	-1.346501
O	-2.306159	-1.157122	-2.102696
N	-0.57684	-1.236325	0.550496
H	0.038496	-2.009413	0.292306
H	-0.523354	-1.173205	1.561396
C	-0.487521	1.187989	0.803852
H	-0.190062	2.127537	0.337283
H	-1.573456	1.179849	0.932196
H	-0.004532	1.146959	1.786444
H	2.853639	0.0	0.0
