13
Coordinates from ORCA-job run
  C   -0.74270218008849      0.18831574877023      0.23812601469988
  C   0.01465350443954     -0.55842007553519     -0.85975046407047
  Br  -2.60922549858907     -0.34578387377967      0.28084036339285
  H   -0.16277556183427     -1.62582680620343     -0.71782004806830
  H   -0.42522382465573     -0.26282196465240     -1.81577100439926
  N   -0.13897541525635     -0.19480543452729      1.59424403681940
  O   0.23900117795271     -1.35326839711067      1.69950309951911
  O   -0.11732421849463      0.67003738915135      2.45694202551242
  C   -0.64692443513724      1.62900845566320      0.07089418128223
  N   -0.57829710414485      2.78071882092094     -0.15293764406364
  N   1.40823161719320     -0.18482086374551     -0.74642768024996
  H   1.77553827666181      0.21470169469661     -1.59604368044965
  H   1.98602366195337     -0.95703469364817     -0.45079919992462
