13
Coordinates from ORCA-job run
  C   -0.49837734510439      0.16429460530224      0.37442157866941
  C   0.60628071082525     -0.54311716088451     -0.42003753903140
  Br  -2.23836153340653     -0.55614238591130     -0.10349241395705
  H   0.54873010018416     -1.61029746070368     -0.19301756809340
  H   1.55801276987578     -0.16893222636961     -0.02930340733916
  N   -0.32576188157463     -0.09223805435011      1.87546039175658
  O   -0.72530724541274      0.77552149202285      2.63884596179239
  O   0.17858412284067     -1.16625653372386      2.17897605549363
  C   -0.48643412339765      1.59889783357287      0.14195833143756
  N   -0.42676490593519      2.75548972690618     -0.05813206847455
  N   0.46639981755244     -0.19964909770934     -1.81971596977852
  H   1.36366831211586     -0.03715097987567     -2.25134235784260
  H   -0.01966879856303     -0.92141975827608     -2.33162099463289
