13
Coordinates from ORCA-job run
  C   -0.74131092163284      0.18576889709552      0.24625286279049
  C   0.00757569584190     -0.54979383880289     -0.86520649032506
  Br  -2.60830787539339     -0.34626107099785      0.29578319877599
  H   -0.16868460885661     -1.61847657002024     -0.73247292372241
  H   -0.43972500280633     -0.24509341095720     -1.81500614199009
  N   -0.12843118290262     -0.21282134953662      1.59344600590083
  O   -0.09522805823475      0.64408842709802      2.46370630001134
  O   0.24328776201549     -1.37437362840477      1.68505219702392
  C   -0.64482697133840      1.62790753832035      0.09284474007213
  N   -0.57011520458294      2.78138177635265     -0.11974695799275
  N   1.40208270100584     -0.17917031381583     -0.75778096427004
  H   1.98424424546031     -0.95730831156687     -0.48780635630199
  H   1.76043942142435      0.24515185523573     -1.59906546997236
