13
Coordinates from ORCA-job run
  C   -0.69641430998217      0.22212585849640      0.17246969771994
  C   0.48269259958485      0.12014147645674     -0.80617297072892
  Br  -2.12842634139790     -0.96027917806314     -0.35063461065375
  H   0.10624527784734      0.39747169332939     -1.79843180122598
  H   1.20653564670890      0.87431128792365     -0.49068551120565
  N   -0.14115718598352     -0.16687136806388      1.56046166453479
  O   -0.55611635196448     -1.16362709129668      2.11654599549021
  O   0.72493669251932      0.60493555299387      1.95237243763395
  C   -1.20244521905444      1.58295954184812      0.26299841006708
  N   -1.58630296880980      2.69388339448206      0.29234488030082
  N   1.07418023507058     -1.19401643136258     -0.69933346785720
  H   0.64702048097705     -1.85148315089206     -1.33616714180393
  H   2.06725144448425     -1.16055158585189     -0.87776758227137
