13
Coordinates from ORCA-job run
  C   -0.69518003565289      0.19530608126220      0.20606123750223
  C   0.41719414821110      0.08277094139380     -0.84640320915978
  Br  -2.08309988293510     -1.10508137418096     -0.11829244791743
  H   -0.04384177984619      0.25619726486502     -1.82649967867958
  H   1.11213749542518      0.90043001452825     -0.64438981842454
  N   -0.02134852342510     -0.04928885694057      1.57483554028464
  O   0.82065637713336      0.79886219363001      1.84118023090916
  O   -0.33420057865347     -1.01995226780364      2.23424870358750
  C   -1.27814146292044      1.52784049643141      0.23095036330186
  N   -1.72834694496822      2.61363383972572      0.20466801909978
  N   1.09706233950925     -1.18223372290764     -0.68278217553328
  H   0.66793165962388     -1.91261816497652     -1.23318047194835
  H   2.07017718849863     -1.10586644502707     -0.94039629302223
