13
Coordinates from ORCA-job run
  C   -0.55523683716073      0.14806631751168      0.34973239248384
  C   0.55365485552214     -0.60034393935379     -0.40347202324821
  Br  -2.31088234112445     -0.46094003342120     -0.18888269303240
  H   0.37631930344984     -1.66646135699371     -0.26467081592456
  H   1.49700674223634     -0.34834861192724      0.10285997189331
  N   -0.42253894817864     -0.14016390675672      1.84709837233271
  O   -0.17866516717734     -1.30390464158273      2.13724581878498
  O   -0.57906808778471      0.79601499878025      2.61942292305890
  C   -0.44826689903507      1.58142828220599      0.12790198379718
  N   -0.29073522283222      2.71963455590839     -0.12041119518582
  N   0.50109695671807     -0.24361719289144     -1.80229381695277
  H   0.75702913991831     -1.02127834030376     -2.39166982875583
  H   1.10228650544845      0.54091386882429     -2.01186108925131
