13
Coordinates from ORCA-job run
  C   -0.57130548472535      0.19703615320563      0.32586757440202
  C   0.58350849095073     -0.53816906962302     -0.38005104063003
  Br  -2.27309120414929     -0.36073325841839     -0.39503292514816
  H   0.43720113055532     -1.60947963002212     -0.19429818281110
  H   1.49878943286406     -0.21967892684512      0.12877774543694
  N   -0.47050639328824     -0.19445760330099      1.80894053730533
  O   0.23655067492334      0.54070316207449      2.48886541037496
  O   -0.99405086561073     -1.24164908384003      2.15359552476568
  C   -0.44807907573954      1.63942108815642      0.20403710849458
  N   -0.33352564126028      2.80275035127810      0.08279740197265
  N   0.62758532260259     -0.15159068073775     -1.76910447029517
  H   1.57638937527144     -0.05809719656954     -2.09911153138871
  H   0.13153423760595     -0.80505530535768     -2.35728315247896
