13
Coordinates from ORCA-job run
  C   -0.73444679228594      0.19600434670963      0.25777562516632
  C   -0.01495177626825     -0.55480380671112     -0.86265321880536
  Br  -2.60482639118157     -0.31727159003585      0.34913486928597
  H   -0.20179166105984     -1.62078318079240     -0.72132299108434
  H   -0.47588656530327     -0.24908834662029     -1.80544265918772
  N   -0.09895327996007     -0.19888529007881      1.59603998259553
  O   0.27256361339880     -1.36079909209998      1.68585039011334
  O   -0.04921795744380      0.66105030380544      2.46246305728739
  C   -0.62634607758676      1.63612331431708      0.09301108067658
  N   -0.54988420631238      2.78757443247813     -0.12951900310722
  N   1.38512036099490     -0.19743901312205     -0.78530915631295
  H   1.96050340381343     -0.97397596671893     -0.49625096503258
  H   1.73711732919474      0.19229388886913     -1.64577701159496
