13
Coordinates from ORCA-job run
  C   -0.76522405950793      0.05845758810307      0.23390879717715
  C   0.10971623624567     -0.50469184471682     -0.88589020920104
  Br  -2.52686702181660     -0.75911695693001      0.21720099375381
  H   -0.36098697413066     -0.23224077963798     -1.83401157341186
  H   0.09926095882859     -1.59253666205436     -0.79968009328683
  N   -0.12297967677259     -0.29535331420417      1.57977813628209
  O   0.43014109345974     -1.38487964723826      1.63487822055727
  O   -0.24502082022052      0.51713953083840      2.48406458311087
  C   -0.89335496042478      1.50318657844816      0.13865330038730
  N   -1.00284712368974      2.66142074476202     -0.02796098690529
  N   1.42695462547469      0.07417298433675     -0.72912111616095
  H   2.11488114650405     -0.61332048815813     -0.46143328327765
  H   1.73632657605009      0.56876226645133     -1.55138676902488
