13
Coordinates from ORCA-job run
  C   -0.53856220626208      0.18088872331417      0.35995143197397
  C   0.50123793477621     -0.63044262890894     -0.42574737972110
  Br  -2.34151723787683     -0.27595281186988     -0.17334219225397
  H   1.46652242756428     -0.46614268924638      0.07524321929560
  H   0.24241382036006     -1.68281425119515     -0.31267722970055
  N   -0.41430178941492     -0.15684986194097      1.84768346247871
  O   -0.49080901824753      0.76731873627965      2.64603781530304
  O   -0.25757401518544     -1.34321184732251      2.10441995033959
  C   -0.32310883340795      1.60719002915925      0.17446406105539
  N   -0.08085911201998      2.73611913571252     -0.04640502184290
  N   0.46245461492756     -0.23291471122308     -1.81414928982109
  H   0.65447603826833     -1.01154529040337     -2.42618420249678
  H   1.11962737651828      0.50935746764469     -2.00929462460989
