13
Coordinates from ORCA-job run
  C   -0.48769744246209      0.22156890100489      0.35066424378483
  C   0.54141150952487     -0.61086790922177     -0.42156855116221
  Br  -2.27962427151337     -0.14552632261357     -0.30791593705958
  H   0.28494950047565     -1.66515620944719     -0.29113094505016
  H   1.50774567100518     -0.43943555535880      0.06287768900126
  N   -0.49244138308203     -0.16249941960123      1.83445628447706
  O   -0.13804991873746     -1.30592981078857      2.09407302978123
  O   -0.87560205562794      0.68712496379489      2.62591764095647
  C   -0.21305708462159      1.64488972967390      0.24262062372366
  N   0.06127275664272      2.78384989538159      0.15010280942934
  N   0.58038453400348     -0.14501906197927     -1.79253555137396
  H   1.52124549110622     -0.15743207088446     -2.15706512295788
  H   -0.00953730671363     -0.70656712996044     -2.38949621355007
