13
Coordinates from ORCA-job run
  C   -0.74151822533485      0.18453532634530      0.24288749175161
  C   0.01234352613302     -0.54699351397372     -0.86729555137215
  Br  -2.60799418305356     -0.35137499165130      0.28539154302727
  H   -0.43046273085761     -0.23876443695228     -1.81789525103218
  H   -0.16339361395664     -1.61647718576745     -0.73965064820062
  N   -0.13342457564251     -0.21586356202159      1.59176512771108
  O   0.24699960973883     -1.37489803046215      1.68024115058475
  O   -0.11098827202387      0.63739816563260      2.46593210507813
  C   -0.64787925166995      1.62732863313479      0.09375398770586
  N   -0.58314063865136      2.78197084644396     -0.11568272426495
  N   1.40612021177764     -0.17343538927206     -0.75310051822044
  H   1.77124382667703      0.23488339029096     -1.59947565659132
  H   1.98509431686382     -0.94830925174707     -0.46687105617704
