13
Coordinates from ORCA-job run
  C   -0.69158836386098      0.21290065153843      0.20135232626408
  C   0.42186263944209      0.06666283806089     -0.84579430245490
  Br  -2.10784943561062     -1.05771641520283     -0.11866233207660
  H   -0.03150246963040      0.24206729764989     -1.82905028489731
  H   1.13422250847105      0.87022435813758     -0.64797107461181
  N   -0.02859275757550     -0.03705389811977      1.57465929160609
  O   -0.36634593610390     -0.99495224955756      2.24023051948925
  O   0.83192567957027      0.79337055879720      1.83779327515895
  C   -1.24380308839436      1.55861109403832      0.21501383959266
  N   -1.66890300295529      2.65425962099071      0.18004652934072
  N   1.07241737993295     -1.21192920484416     -0.66898593930399
  H   2.04849702550314     -1.15883431837123     -0.92164771662790
  H   0.63065982121154     -1.93661033311747     -1.21698413147925
