13
Coordinates from ORCA-job run
  C   -0.74013035104393      0.18890194115017      0.23469339715961
  C   0.01728767959985     -0.55568678231649     -0.86403273916222
  Br  -2.60627977357840     -0.34664289585520      0.27674546838968
  H   -0.16361341253536     -1.62372144844873     -0.72883768106869
  H   -0.41888355644343     -0.25316485037598     -1.81929792976761
  N   -0.13815899042716     -0.19512111000691      1.59124906676652
  O   0.26223129437537     -1.34698476599829      1.68918469633775
  O   -0.14117941830909      0.66151775532817      2.46226166635760
  C   -0.64636389987068      1.63034192936968      0.07148432072622
  N   -0.60746902334583      2.78676957938288     -0.13426878691138
  N   1.41070782882553     -0.17965896621658     -0.75124692385503
  H   1.78929121129410      0.17203045993227     -1.61701289265404
  H   1.98056041145903     -0.93958084594500     -0.41092166231841
