13
Coordinates from ORCA-job run
  C   -0.68171790351664      0.18742958073698      0.25694674226780
  C   0.31041515381966     -0.03932170742784     -0.89363490655052
  Br  -1.99257669658842     -1.22606754836557      0.32383336147483
  H   0.95724355543947      0.84018662038265     -0.91566719137818
  H   -0.27078084180844     -0.06309066701168     -1.82359680104082
  N   0.16027865457771      0.21850463018475      1.55165352475742
  O   0.00570011880913     -0.64583095771889      2.39075986033267
  O   0.95572871222555      1.14930683214933      1.57159884605208
  C   -1.35845706834094      1.46934171796273      0.13628743960248
  N   -1.89210292441483      2.50633983751281     -0.01263630283859
  N   1.10091158015591     -1.21576073375670     -0.61233487897876
  H   0.67343260057937     -2.05325198747551     -0.98142038982952
  H   2.03192505906247     -1.12678561717306     -0.99178930387089
