13
Coordinates from ORCA-job run
  C   -0.68392490843042      0.23615721174966      0.20371386930783
  C   0.42863378007228      0.07129194522997     -0.84178459268252
  Br  -2.15147156122304     -0.96239190495442     -0.15617481281673
  H   1.17299346669459      0.83817413001533     -0.61827078930580
  H   -0.01090741697864      0.29255603038165     -1.82211482916188
  N   -0.03948847988276     -0.07880646224008      1.57305107359398
  O   0.85406270114854      0.70663478546587      1.86249677399646
  O   -0.42207198222370     -1.03867261458718      2.21100675057645
  C   -1.17658261443313      1.60401162720228      0.25127409365475
  N   -1.54989186331153      2.71888890097428      0.24415056077432
  N   1.02305722052642     -1.23829882785266     -0.69749661051662
  H   0.55283477338246     -1.92858842581115     -1.26559283680431
  H   2.00175688465892     -1.22095639557357     -0.94425865061592
