13
Coordinates from ORCA-job run
  C   -0.67129093202474      0.16896139380761      0.21654760009836
  C   0.28898753526352     -0.07486787108112     -0.98552192001824
  Br  -1.89207783671541     -1.30573923422567      0.44069399288882
  H   0.86531720124215      0.84697896509293     -1.10294487015231
  H   -0.34538396159509     -0.19537871886295     -1.86682230689423
  N   0.23621787060684      0.31779995112653      1.44639316225032
  O   0.36204764827603     -0.62691596703760      2.20727891179850
  O   0.84513122513486      1.38151819229050      1.47627134801867
  C   -1.42237179055518      1.40097853945492      0.05108983162883
  N   -2.02189053014373      2.39179020919238     -0.15320312212382
  N   1.18449491981841     -1.18647755066414     -0.86741617367681
  H   0.69707086308509     -2.05995332089849     -0.72281791122978
  H   1.87474778760724     -1.05869458819490     -0.14054854258829
