13
Coordinates from ORCA-job run
  C   -0.48025241414645      0.15678326162263      0.36409711979503
  C   0.56880515835472     -0.66103338235738     -0.43735534432391
  Br  -2.27770255090394     -0.28220149339807     -0.20572067032528
  H   1.53509193813357     -0.45931209521769      0.03858776209489
  H   0.32537693975947     -1.71457399858775     -0.28519501029156
  N   -0.31666813068891     -0.22913161940575      1.83505928808875
  O   -0.59379928461870     -1.38565020442296      2.11540871071300
  O   0.15620583327603      0.62287402201786      2.57797950427295
  C   -0.26436455665517      1.58394367340425      0.20094483730058
  N   -0.04085323658681      2.71405373484116     -0.03462151724141
  N   0.65988705754877     -0.36855494652616     -1.83751152118867
  H   -0.20525768107588     -0.56583737421612     -2.32145404458909
  H   0.93353092760329      0.58964042224597     -2.01121911430528
