13
Coordinates from ORCA-job run
  C   -0.48962556694416      0.13582722796446      0.35989567621822
  C   0.58335845511152     -0.63577848233040     -0.45537881985683
  Br  -2.27013395087118     -0.28497734323893     -0.27311999396289
  H   1.53709546237190     -0.45245239034052      0.05226418125961
  H   0.34375491595226     -1.69692164560725     -0.36101779217334
  N   -0.35784719474412     -0.32013589426817      1.81355312648961
  O   -0.63099735852726     -1.49135562974272      2.02995851688536
  O   0.08848605236778      0.49811093920093      2.60900719140211
  C   -0.27989709885450      1.57054917133747      0.27124111246154
  N   -0.05928293757704      2.71247657871502      0.09783006430115
  N   0.70529079012689     -0.27428284209245     -1.83712070957260
  H   0.97694801988461      0.69272681336188     -1.95672679782134
  H   -0.14714958829669     -0.45178650295934     -2.35038575563060
