15

C	0.0	0.0	0.0
C	-0.59618	-0.169939	-1.393395
Br	1.926648	0.0	0.0
H	-1.688245	-0.224327	-1.202093
H	-0.331073	0.934146	0.448515
N	-0.420236	-1.06471	0.986163
O	-0.585508	-2.2061	0.574968
O	-0.500762	-0.696228	2.151152
C	-0.132783	-1.358415	-2.236054
H	-0.657687	-1.32573	-3.193177
H	-0.377132	-2.290615	-1.733636
H	0.941596	-1.318071	-2.429736
C	-0.339492	1.074771	-2.118474
N	-0.105574	2.049551	-2.731591
Br	-3.665714	0.0	0.0
