17

C	-0.408763	0.02423	-1.471879
C	0.0	0.0	0.0
Br	0.735563	1.306953	-2.370949
H	1.09012	0.0	0.0
C	-0.275113	-1.334386	-2.138524
H	0.752236	-1.683723	-2.027251
H	-0.52112	-1.255609	-3.200344
H	-0.95373	-2.048882	-1.665834
N	-1.87247	0.496197	-1.611127
O	-2.161281	1.193994	-2.578987
O	-2.665421	-0.281757	-1.045977
N	-0.336096	-1.308434	0.724125
O	0.624631	-2.082008	0.795107
O	-1.394749	-1.399626	1.342972
C	-0.510179	1.138047	0.734546
N	-0.889611	2.102087	1.296527
F	2.494556	0.0	0.0
