17

C	-0.45873	0.005704	-1.456582
C	0.0	0.0	0.0
Br	0.350092	1.559017	-2.297049
H	1.09367	0.0	0.0
C	-0.077562	-1.221626	-2.258441
H	-0.331872	-1.051858	-3.307705
H	0.996153	-1.385598	-2.14452
H	-0.61593	-2.092964	-1.883577
N	-1.982208	0.144129	-1.599534
O	-2.632712	-0.354176	-0.683207
O	-2.4352	0.666558	-2.608882
N	-0.374409	-1.263615	0.744089
O	-1.003884	-1.161149	1.796207
O	0.100053	-2.299271	0.279146
C	-0.502513	1.15432	0.72144
N	-0.87671	2.109309	1.295895
F	2.48572	0.0	0.0
