17

C	-0.500803	0.005792	-1.447719
C	0.0	0.0	0.0
Br	0.039804	-1.653989	-2.289862
H	1.092583	0.0	0.0
C	-1.982918	0.244991	-1.676393
H	-2.182759	0.337487	-2.746277
H	-2.549484	-0.586088	-1.264399
H	-2.275768	1.164496	-1.162992
N	0.205917	1.167799	-2.163683
O	0.253835	2.206606	-1.514657
O	0.557908	1.030914	-3.326127
N	-0.434809	-1.277893	0.686427
O	-1.631326	-1.579948	0.64796
O	0.431404	-1.922521	1.263945
C	-0.554617	1.067675	0.809998
N	-0.969311	1.923689	1.503131
F	2.462256	0.0	0.0
