13

C	-0.339695	-0.017568	-1.495361
C	0.0	0.0	0.0
Br	0.521187	1.551733	-2.364604
H	1.097148	0.0	0.0
C	0.187075	-1.226308	-2.133694
N	0.565785	-2.18618	-2.698211
C	-1.770767	0.09375	-1.759574
N	-2.928831	0.183333	-1.95189
C	-0.445979	-1.215983	0.645203
N	-0.733884	-2.226495	1.177329
C	-0.508271	1.181908	0.661072
N	-0.834119	2.161347	1.228006
H	2.381836	0.0	0.0
