13

C	-0.317917	-0.000386	-1.490806
C	0.0	0.0	0.0
Br	-2.281894	-0.000609	-1.873171
H	1.099019	0.0	0.0
C	0.22431	1.198678	-2.132437
N	0.627926	2.157533	-2.680098
C	0.224381	-1.199728	-2.131852
N	0.627472	-2.159162	-2.678896
C	-0.466525	-1.201368	0.653275
N	-0.76694	-2.202621	1.194826
C	-0.46627	1.201752	0.652751
N	-0.766179	2.20258	1.195324
H	2.386627	0.0	0.0
