13

C	-0.37633	0.016944	-1.48696
C	0.0	0.0	0.0
Br	0.485775	-1.530694	-2.387235
H	1.097299	0.0	0.0
C	-1.813988	-0.114329	-1.709519
N	-2.972515	-0.216621	-1.888871
C	0.105845	1.239622	-2.134175
N	0.46883	2.204344	-2.700378
C	-0.492371	-1.185951	0.667273
N	-0.809803	-2.168053	1.234214
C	-0.446201	1.213502	0.649955
N	-0.749551	2.23319	1.155177
H	2.388961	0.0	0.0
