13

C	-0.372706	0.027164	-1.487598
C	0.0	0.0	0.0
Br	0.464469	-1.533001	-2.386261
H	1.096963	0.0	0.0
C	-1.812378	-0.081864	-1.705192
N	-2.976114	-0.172655	-1.857904
C	0.136376	1.242228	-2.127991
N	0.491604	2.214157	-2.686956
C	-0.498758	-1.188548	0.65897
N	-0.81772	-2.177048	1.213669
C	-0.449444	1.207706	0.660436
N	-0.761393	2.220227	1.174933
H	2.391945	0.0	0.0
