13

C	-0.33617	-0.015483	-1.497508
C	0.0	0.0	0.0
Br	0.508296	1.563787	-2.358115
H	1.097355	0.0	0.0
C	0.203769	-1.218183	-2.137433
N	0.567186	-2.18879	-2.692775
C	-1.768827	0.078353	-1.763932
N	-2.925519	0.144884	-1.971878
C	-0.448876	-1.217039	0.641114
N	-0.734655	-2.228805	1.172532
C	-0.511071	1.180847	0.66098
N	-0.840738	2.159026	1.227903
H	2.384097	0.0	0.0
