16

C	-0.215592	-0.005976	-1.52179
C	0.0	0.0	0.0
F	-0.052055	1.325657	-1.969373
H	1.104418	0.0	0.0
N	0.844628	-0.819161	-2.046668
H	0.953277	-0.632385	-3.037229
H	1.712905	-0.557822	-1.54659
N	-1.54174	-0.411915	-1.886525
H	-1.512932	-0.881524	-2.781769
H	-1.821297	-1.090226	-1.184717
N	-0.509794	-1.281329	0.552763
H	-0.446907	-1.222289	1.56419
H	0.188548	-1.964996	0.271881
C	-0.624519	1.127645	0.656886
N	-1.123346	2.010517	1.247528
F	2.657768	0.0	0.0
