16

C	-0.152928	-0.016464	-1.535352
C	0.0	0.0	0.0
F	0.050584	-1.36509	-1.94082
H	1.096773	0.0	0.0
N	-1.501537	0.261563	-1.98499
H	-1.675199	1.245947	-1.812053
H	-1.539802	0.115743	-2.990601
N	0.869245	0.817239	-2.054551
H	0.993389	0.651103	-3.046692
H	1.739177	0.609457	-1.529881
N	-0.574386	-1.140011	0.692726
H	0.088024	-1.89825	0.581567
H	-1.426635	-1.406285	0.210022
C	-0.528	1.257189	0.517133
N	-0.985771	2.26274	0.921676
F	2.653028	0.0	0.0
