16

C	-0.181968	-0.013466	-1.522725
C	0.0	0.0	0.0
F	0.146336	1.290062	-1.947832
H	1.093085	0.0	0.0
N	0.773071	-0.891481	-2.133291
H	1.663733	-0.656289	-1.667507
H	0.534141	-1.816085	-1.787585
N	-1.505916	-0.345265	-1.945168
H	-1.496526	-0.377276	-2.958056
H	-2.130449	0.397676	-1.651708
N	-0.397449	-1.29337	0.549642
H	-1.386982	-1.322748	0.761857
H	0.132512	-1.451097	1.397352
C	-0.635364	1.144673	0.638759
N	-1.207118	2.020587	1.179614
F	2.620723	0.0	0.0
