16

C	-0.180742	-0.135091	-1.523942
C	0.0	0.0	0.0
F	-1.4115	-0.839079	-1.797186
H	1.094735	0.0	0.0
N	-0.267717	1.141499	-2.162668
H	-1.090363	1.63628	-1.836009
H	-0.353211	1.004668	-3.164183
N	0.888958	-0.952736	-1.986089
H	1.739711	-0.677605	-1.460126
H	1.035298	-0.828449	-2.980286
N	-0.414959	-1.184581	0.74852
H	0.382753	-1.809112	0.744445
H	-1.166647	-1.640498	0.244737
C	-0.622454	1.203	0.529936
N	-1.129709	2.183734	0.934554
F	2.643537	0.0	0.0
