15

C	0.0	0.0	0.0
C	-0.24138	-0.516484	-1.462413
Br	2.021392	0.0	0.0
H	0.587064	-1.193314	-1.681627
H	-0.212615	-0.817453	0.697812
N	-0.638111	1.225062	0.251535
H	-0.527611	1.454073	1.234945
H	-1.668543	0.924995	0.118946
C	-0.074059	0.599828	-2.401843
N	0.083314	1.431844	-3.215312
C	-1.516671	-1.308238	-1.790173
H	-1.468303	-1.60085	-2.845496
H	-1.532749	-2.214319	-1.177052
H	-2.405122	-0.73441	-1.527338
F	-2.91324	0.0	0.0
