15

C	0.0	0.0	0.0
C	-0.442837	0.162509	-1.488758
Br	1.949109	0.0	0.0
H	0.451847	0.318852	-2.100415
H	-0.242696	-1.021003	0.309879
N	-0.544473	1.018612	0.832262
H	-1.576853	0.827309	0.665176
H	-0.333613	0.783816	1.798075
C	-1.255064	1.363652	-1.720671
N	-1.773518	2.347555	-2.097138
C	-1.170799	-1.09011	-1.987366
H	-2.072532	-1.163892	-1.375187
H	-0.519785	-1.963205	-1.868446
H	-1.419158	-0.986423	-3.048021
F	-2.751818	0.0	0.0
