15

C	0.0	0.0	0.0
C	-0.542935	-0.000352	-1.432656
Br	1.951124	0.0	0.0
H	-1.638277	-0.080728	-1.209295
H	-0.246625	-0.971239	0.440807
N	-0.563672	1.116798	0.697917
H	-1.590564	0.894871	0.576739
H	-0.336438	1.021745	1.683024
C	-0.113234	-1.182279	-2.167813
N	0.211649	-2.125576	-2.790467
C	-0.237601	1.278882	-2.207283
H	0.83052	1.370049	-2.424694
H	-0.790694	1.288318	-3.15005
H	-0.547886	2.130177	-1.601728
F	-2.833831	0.0	0.0
