15

C	0.0	0.0	0.0
C	-0.440241	0.118376	-1.493203
Br	1.956076	0.0	0.0
H	0.455695	0.256647	-2.106164
H	-0.240747	-1.011316	0.341104
N	-0.540727	1.044719	0.800852
H	-1.573804	0.852929	0.637735
H	-0.337033	0.835226	1.773826
C	-1.251121	1.31064	-1.765172
N	-1.778935	2.27939	-2.167367
C	-1.161669	-1.151595	-1.953562
H	-1.422767	-1.08095	-3.013902
H	-0.502757	-2.015601	-1.816039
H	-2.058351	-1.216601	-1.333899
F	-2.744983	0.0	0.0
