15

C	0.0	0.0	0.0
C	-0.254555	-0.536391	-1.450696
Br	2.019949	0.0	0.0
H	0.580897	-1.202516	-1.677454
H	-0.198526	-0.816949	0.704249
N	-0.652347	1.216745	0.250211
H	-1.684367	0.904626	0.119692
H	-0.543118	1.443502	1.234137
C	-0.125349	0.56621	-2.411209
N	0.004679	1.379698	-3.247397
C	-1.520466	-1.357287	-1.737502
H	-2.416377	-0.777857	-1.523852
H	-1.539475	-2.219234	-1.064281
H	-1.455915	-1.721246	-2.7686
F	-2.925501	0.0	0.0
