15

C	0.0	0.0	0.0
C	-0.436613	0.158986	-1.490552
Br	1.955985	0.0	0.0
H	0.460582	0.313808	-2.0981
H	-0.239224	-1.02118	0.31229
N	-0.544895	1.020309	0.827378
H	-0.343473	0.785533	1.795298
H	-1.577322	0.830231	0.655109
C	-1.248567	1.356555	-1.733667
N	-1.79719	2.323272	-2.113023
C	-1.160983	-1.095904	-1.988511
H	-2.068424	-1.164671	-1.385248
H	-1.399745	-1.003856	-3.052151
H	-0.514796	-1.969329	-1.854105
F	-2.747242	0.0	0.0
