15

C	0.0	0.0	0.0
C	-0.228809	-0.045648	-1.57568
Br	1.966579	0.0	0.0
H	0.56495	-0.673136	-1.992739
H	-0.292295	-0.973057	0.397216
N	-0.652337	1.004967	0.734995
H	-0.521372	1.902589	0.277237
H	-1.676204	0.712229	0.616337
C	0.010423	1.301481	-2.103963
N	0.163952	2.382898	-2.537601
C	-1.553993	-0.593074	-2.114905
H	-2.399612	-0.061189	-1.677219
H	-1.515232	-0.56448	-3.209338
H	-1.662054	-1.632021	-1.791594
F	-2.95799	0.0	0.0
