15

C	0.0	0.0	0.0
C	-0.442631	0.069122	-1.495953
Br	1.955724	0.0	0.0
H	0.452502	0.175007	-2.114326
H	-0.23765	-1.000933	0.373812
N	-0.544026	1.067984	0.766303
H	-0.341676	0.887846	1.744809
H	-1.57689	0.868592	0.607597
C	-1.251419	1.252285	-1.814145
N	-1.797103	2.175682	-2.29269
C	-1.171013	-1.21181	-1.91297
H	-1.454604	-1.16246	-2.968818
H	-0.504132	-2.070221	-1.772121
H	-2.055331	-1.267097	-1.274664
F	-2.745878	0.0	0.0
