14
Coordinates from ORCA-job run
  C   -0.95563996428844      0.09505704776793      0.27807105156362
  C   0.54336457630253      0.22508443237019      0.13982318460314
  F   -1.36890700228295      0.97167164483509      1.23233320127329
  H   1.07484899571949      0.00116906141789      1.06072110892436
  H   -1.49052634922889      0.26625014653947     -0.65254280559342
  N   -1.31011627173882     -1.28557673916545      0.76171046219694
  O   -2.45278238113956     -1.65203665804736      0.51809946322629
  O   -0.45297760049661     -1.89232546563973      1.39893483419644
  N   0.86331550676827      1.63147269070236     -0.27154144521277
  O   0.33910511784631      2.00476069744502     -1.31676511011831
  O   1.60714924286667      2.26707965109633      0.46399244245908
  N   1.07021322221221     -0.66715540534428     -0.94187387711314
  O   0.24904044360494     -1.32372586349558     -1.57483018631671
  O   2.28391246385486     -0.64172524048188     -1.09613232408880
