16

C	-0.453225	0.005233	-1.475853
C	0.0	0.0	0.0
Br	0.161765	1.64	-2.34848
H	1.106259	0.0	0.0
N	0.169109	-1.172672	-2.147037
O	1.474281	-1.094088	-2.190355
O	-0.367576	-2.291141	-1.808596
N	-1.940797	-0.006332	-1.664037
O	-2.50697	1.001978	-1.076096
O	-2.302537	-0.268254	-2.878407
N	-0.50397	-1.160426	0.776711
O	-1.77914	-1.126212	1.002237
O	0.269992	-1.463237	1.774747
C	-0.359463	1.245428	0.80872
N	0.154616	1.553524	1.828422
F	2.491838	0.0	0.0
