16

C	-0.440239	-0.019071	-1.441117
C	0.0	0.0	0.0
Br	0.237881	1.534321	-2.330989
H	1.096268	0.0	0.0
N	0.078248	-1.259662	-2.212742
O	1.284338	-1.360729	-2.303732
O	-0.778534	-2.00012	-2.676992
N	-1.972518	-0.078125	-1.603155
O	-2.468104	0.347633	-2.634578
O	-2.56598	-0.611296	-0.671578
N	-0.36721	-1.240238	0.732996
O	-0.169147	-2.300088	0.142511
O	-0.759551	-1.134591	1.891381
C	-0.51882	1.162244	0.682624
N	-0.908324	2.130982	1.223639
F	2.403796	0.0	0.0
