16
Coordinates from ORCA-job run
  C   -0.47067632955049     -0.34664221342901     -0.45961947960177
  C   0.64032566416007     -0.17724636689500      0.60244891041965
  Br  -0.07224093724333     -2.05613289059141     -1.48144354874776
  H   0.58614471080191     -1.04635563364353      1.27730540298513
  N   -1.73557618140771     -0.44678608395485      0.19530146602411
  H   -1.78910627512807     -1.28792704216234      0.75951032035621
  H   -2.49598301346921     -0.46398304210225     -0.47405930704262
  N   -0.36971486114137      0.71455362603714     -1.40859437662367
  H   -0.45931066066816      1.58621112833416     -0.89616647970173
  H   -1.06881431255975      0.64492609013786     -2.13681202998318
  N   0.35811971900987      1.09971549209639      1.24514986946100
  H   1.13664853729511      1.32093391164247      1.85270606031582
  H   -0.49859690035144      1.04501581692950      1.78017718061541
  N   1.98469885053477     -0.10063378605043      0.09009770124308
  H   1.97671407177360      0.52598707070061     -0.70833573560690
  H   2.27736791794420     -1.01163607704931     -0.23866595411279
