16
Coordinates from ORCA-job run
  C   -0.50258884601790      0.01569523516077     -0.54645005126296
  C   0.78636971668944      0.03020658740973      0.28896268919904
  Br  0.13013996533320     -1.22621519015168     -2.27983043926998
  H   1.59100715919207      0.38039095452449     -0.37095080390375
  N   -1.51577960832975     -0.61919772669979      0.13321986862839
  H   -1.14440753766149     -1.44934109951144      0.58466596706868
  H   -2.34755883263471     -0.80433707156891     -0.40880538091411
  N   -0.84751267554038      1.26895214297538     -1.06318348822864
  H   -1.73287342689644      1.25405788806438     -1.55310732853767
  H   -0.13132264240495      1.61397673351086     -1.68847073225479
  N   1.01728680733515     -1.31572595776419      0.79555946675366
  H   1.45276000290693     -1.23087270063533      1.70346042378872
  H   1.59770469665739     -1.85676438446564      0.16843961246009
  N   0.61465163080101      0.92249801112117      1.43044015395249
  H   -0.28938002595924      1.37413528171360      1.39308378056694
  H   1.32250361652969      1.64354129631659      1.41396626195389
