16
Coordinates from ORCA-job run
  C   -0.63916337436805     -0.16909802871365     -0.46901550793061
  C   0.56249912706849     -0.41342356216523      0.46392079284633
  Br  -0.67515401846915     -1.92094606529704     -1.71063693143368
  H   0.59832529713457     -1.47739673776595      0.70200888537116
  N   -1.85766576435516     -0.07652617761269      0.21777724003711
  H   -2.65276742552151     -0.25350693644883     -0.38070321565961
  H   -1.87910172239913     -0.67593433584751      1.02993566674215
  N   -0.41221931788759      0.95018748002447     -1.28952458660548
  H   0.35067882662192      0.76461955738474     -1.92806169333883
  H   -1.24312819902584      1.22442467977771     -1.79763452107528
  N   0.30328033251750      0.30485025254191      1.70653075848491
  H   1.12589668960069      0.26298211483741      2.29677835628970
  H   0.09662358032531      1.27684393655461      1.50369455133193
  N   1.77899613820298     -0.08695618758197     -0.26745135458213
  H   2.56400815217460     -0.61174120381172      0.09355955112316
  H   1.97789167838040      0.90162121412372     -0.17117799160083
