16
Coordinates from ORCA-job run
  C   -0.53884996866108     -0.14968428415911     -0.49369175799488
  C   0.53818335008673      0.25695947920698      0.52319252613482
  Br  -0.39144670167712     -2.15721795918979     -0.77181488471334
  H   0.39899937566450      1.34730748138531      0.61125527897223
  N   -1.80043221732503      0.22825284119340      0.01369707156108
  H   -2.56012100784811     -0.14351249330065     -0.54154287487091
  H   -1.87810896886012     -0.06659555596794      0.98115742774023
  N   -0.23993399414692      0.42490571980580     -1.79109406211603
  H   -0.66849357245922      1.34539437541361     -1.81406709443703
  H   -0.63793505496236     -0.13341074692786     -2.53482842533818
  N   1.85307911106429     -0.12063383589845      0.04438807291135
  H   1.89833922546059      0.07249321323292     -0.95075357969858
  H   2.55686397744592      0.43886778908628      0.51094639062979
  N   0.21323150034096     -0.30964687668595      1.82010202841486
  H   0.66852036199123      0.21943408043258      2.55342671327866
  H   0.58810458388574     -1.25291322762711      1.83962716952594
