16
Coordinates from ORCA-job run
  C   -0.60019206593497     -0.18136676424486     -0.40418833617027
  C   0.59886381305465      0.28888107081407      0.43279646398186
  Br  -0.28081132241763     -2.12809591373937     -0.89155338481982
  H   0.34743830623907      1.33797793429086      0.66119574121032
  N   -1.79956372511337     -0.19759045802132      0.41067290016743
  H   -2.46740969085859     -0.87093700961823      0.05875149125862
  H   -2.21247200510044      0.72831019000273      0.34980716656547
  N   -0.70341147515663      0.64475919300097     -1.54380565781909
  H   0.20970846361985      0.74246477549314     -1.97463467842483
  H   -1.38239292938703      0.29420775782951     -2.20692364241150
  N   1.78624378873281      0.31840739866632     -0.40258899622451
  H   2.18229327850261     -0.61635238797401     -0.39696331265716
  H   2.47318605241778      0.94783179976698     -0.00646409589754
  N   0.74704165725929     -0.53958656370640      1.61282642518715
  H   1.27810021691104     -0.03772998590471      2.31435962456814
  H   -0.17662236276844     -0.73118103665564      1.98671229148573
