16
Coordinates from ORCA-job run
  C   -0.55381064613102     -0.09477604673011     -0.58335907332123
  C   0.82974642545188      0.09356485491608      0.06865567630766
  Br  -0.12595027335561     -1.26655745282510     -2.33564246165680
  H   1.56749288160126      0.20821970165486     -0.72668471727423
  N   -1.39958130685570     -0.84391469878309      0.25254205190086
  H   -1.03804618954727     -1.78368455201312      0.35568739423966
  H   -2.35226570285334     -0.86515895141399     -0.08777329258956
  N   -1.14256289007513      1.11269801129478     -0.98144673302301
  H   -1.86766548348480      0.97898515736018     -1.67305448997094
  H   -0.45573819173055      1.77682414242502     -1.30811164471237
  N   1.15795761906296     -1.12313420361414      0.79880113018125
  H   0.78367375442935     -1.06777751030876      1.73841075532634
  H   2.15954110799770     -1.24693539447856      0.85571558628088
  N   0.79301404969247      1.34513651663782      0.81687180471854
  H   1.64377289498536      1.43656205686511      1.35975066584087
  H   0.00042195081248      1.34194836901303      1.44963734775210
