16
Coordinates from ORCA-job run
  C   -0.57905836515485     -0.17639057603874     -0.62155421000583
  C   0.74596799493922      0.13612016653918      0.09946316835949
  Br  -0.06216267486439     -1.59109632837737     -2.06208496433294
  H   1.46817625413387      0.45018640820560     -0.66590915594800
  N   -1.51008628553642     -0.63703293170543      0.30266686781034
  H   -1.14937731995952     -1.38902131556016      0.87374159914916
  H   -2.40426538726836     -0.83994464482133     -0.12079771280184
  N   -1.15000504261333      0.89605765359183     -1.38186275115620
  H   -1.18427245533070      1.69587772702593     -0.75550698366924
  H   -0.55074768106477      1.12528639218138     -2.16490562895615
  N   1.16518726317834     -1.03964400871099      0.86076688143127
  H   1.96714329650971     -0.79945046549281      1.43148712598320
  H   1.44512989188372     -1.77717434363010      0.22281853742892
  N   0.49220165002986      1.28013633208162      0.95236168447265
  H   -0.05297881350098      0.97875258471158      1.75165553485898
  H   1.36114767461862      1.68633734999984      1.27566000737620
