16
Coordinates from ORCA-job run
  C   -0.67674218442740     -0.16170618663685     -0.36071714764943
  C   0.49834875678138      0.25441899973477      0.54620400881986
  Br  -0.64068690354139     -2.19073261151998     -0.55619861750039
  H   0.22478324947093      1.27551149404378      0.84572561263860
  N   -1.94148964268761      0.15163368868986      0.26233352160276
  H   -2.20964786046598      1.08219604159535     -0.03981112251290
  H   -2.65985856167132     -0.50366776406543     -0.01167509937637
  N   -0.51697193344563      0.47286793843720     -1.61629412443578
  H   0.38201029923645      0.22783964091025     -2.01590275090449
  H   -1.26913931988410      0.22236391589692     -2.24565708348221
  N   1.73499308407862      0.25927453345589     -0.25852850103804
  H   2.49013057526466     -0.14137788639295      0.28026268771142
  H   1.98991292483912      1.20694755887782     -0.50739344784554
  N   0.55789177853074     -0.53049629567453      1.74642016178303
  H   1.22683389300121     -0.13467652587258      2.39391630611920
  H   0.81063184492031     -1.48839654147950      1.53931559607025
