16
Coordinates from ORCA-job run
  C   -0.53370485363489     -0.11181840631441     -0.50997427289249
  C   0.52705558020499      0.21349995990399      0.55242701958228
  Br  -0.28422215580471     -2.05406992715268     -1.05007223785795
  H   0.33212208112460      1.27433043149298      0.78186961672841
  N   -1.81004285810098      0.13019285423785      0.04191429718243
  H   -1.86607880923178     -0.29201254572414      0.96254595896757
  H   -2.55290887751446     -0.20561031947620     -0.55727791123366
  N   -0.27297303081426      0.64455938641084     -1.71969798649323
  H   -0.64261575339515      0.16772169749221     -2.53164856324871
  H   -0.75278639651758      1.53437526262289     -1.62227292551754
  N   1.85669019707523     -0.02907311117805      0.02867942965887
  H   1.88799463219428      0.30253136377591     -0.92982629596971
  H   2.53396019345953      0.49462875225476      0.57016906269767
  N   0.24054966063288     -0.53426588104942      1.76336991121853
  H   0.67300185873195     -0.08348557455517      2.56009502421924
  H   0.66295853159036     -1.45150394274137      1.65869987295830
