16
Coordinates from ORCA-job run
  C   -0.52094530033181     -0.36168949302896     -0.63905825148341
  C   0.51950606956590     -0.39756075861838      0.49895741946108
  Br  -0.21430742597890     -1.86255363916712     -1.85506845405886
  H   0.33750399083249     -1.31002891268692      1.07675307377022
  N   -1.88897426183479     -0.48317303694251     -0.17304085248404
  H   -2.07304200944685     -1.43129999807984      0.13585202257033
  H   -1.96782200208774      0.13247349840915      0.63323385928022
  N   -0.30774162874064      0.86837444664502     -1.37778347184225
  H   -0.67770894268865      1.61879697125732     -0.79916929009375
  H   -0.88576318352661      0.83831061468104     -2.21106308456015
  N   0.17908598535312      0.74773941935582      1.36820202649478
  H   0.74400201032704      1.54318554138779      1.09255357830739
  H   0.40783207038478      0.53575021071175      2.33130052502534
  N   1.85751871468171     -0.43385999701889     -0.03471798779030
  H   2.54182141202171     -0.28945983915275      0.69655520745498
  H   1.94903450146920      0.28599497224749     -0.74250632005158
