16
Coordinates from ORCA-job run
  C   -0.48350303960737     -0.35311494295810     -0.67217657304238
  C   0.81002907069044      0.14579564541766      0.00325109123676
  Br  -0.04637127495415     -1.73075796267050     -1.98945253144564
  H   1.41323180343151      0.63425413017024     -0.76947669636464
  N   -1.30100638469204     -0.96026547046099      0.36131797834878
  H   -1.69616693805103     -0.19460672396413      0.90200434467223
  H   -2.08209875942477     -1.42563322069149     -0.08879159277583
  N   -1.19828421118397      0.68740517862981     -1.38650620362883
  H   -0.70199243115400      0.93620158474125     -2.23506121529607
  H   -1.20132586908845      1.49916764465799     -0.77303183760694
  N   1.55310061814561     -0.95633266494298      0.55866531488559
  H   2.31022103408712     -0.62443167080790      1.14211619521974
  H   0.92461121541553     -1.53652372383060      1.10257265251841
  N   0.37055707949772      1.19615575916799      0.94577838544611
  H   1.08774443589430      1.90472470361403      1.03784169945247
  H   0.24225365099354      0.77696173392773      1.85994898838024
