16
Coordinates from ORCA-job run
  C   -0.28602763576501     -0.24717070919569     -0.69270030771484
  C   0.85641184066070      0.19659987349415      0.24129565643791
  Br  0.45627258314985     -1.41837276265548     -2.08276145101105
  H   1.63058987751351      0.64873849369721     -0.38782275540417
  N   -1.21567011445429     -1.03581259172979      0.08190876867992
  H   -1.55844874454657     -0.43483968452150      0.82669049234971
  H   -1.99184825733506     -1.34770828126764     -0.48903350176030
  N   -0.78942071692548      0.93057909235386     -1.38140691105972
  H   -1.39869590708387      0.66008515617843     -2.14523055171927
  H   -1.34225845954390      1.45359803823422     -0.70859682207109
  N   1.44078023229788     -0.87021058595102      1.02190432870666
  H   0.70893422611057     -1.53859306259786      1.24207154033883
  H   2.13442855085060     -1.35423138107598      0.46766560845453
  N   0.24274249254957      1.16012692459243      1.16651895026767
  H   0.76055369300669      1.09692820004399      2.03480586071603
  H   0.35265633951480      2.10028328040063      0.80569109478922
