16
Coordinates from ORCA-job run
  C   -0.60581367888525     -0.14829266969216     -0.34905174249096
  C   0.64963095780605     -0.26652951598127      0.53154756329604
  Br  -0.36323471820262     -1.92658246602177     -1.70180632319869
  H   0.62698879634611     -1.25948267857396      1.00110981877411
  N   -1.78896537396960     -0.36707612624073      0.35779336227356
  H   -2.61723641393916     -0.18198051747676     -0.19311406263974
  H   -1.83035240385357     -1.31288874130408      0.71346870128687
  N   -0.58923308266169      1.00118392850060     -1.10653275051677
  H   0.33321638343136      1.14556778769687     -1.50047148087001
  H   -1.32232641932805      1.07074080122302     -1.79764628931702
  N   0.66490713647374      0.72823901523722      1.58668900090175
  H   -0.15106010870851      0.60304436778389      2.17359401699540
  H   0.58634478105229      1.64414779380092      1.15670070752540
  N   1.81491664468125     -0.02171239239917     -0.29528166165754
  H   1.98576052828896     -0.81822114459757     -0.89688600912968
  H   2.60745697146872      0.10984255804497      0.32088714876723
