16
Coordinates from ORCA-job run
  C   -0.44241748054810     -0.27679553352013     -0.44521457343986
  C   0.61250902314642      0.27385325281518      0.53720448169684
  Br  -0.02415007848374     -2.12021472450652     -0.94094365144452
  H   0.28143681816779      1.32295787188607      0.69854649134392
  N   -1.72646052527127     -0.31603241222829      0.23857201338548
  H   -2.42597230708199     -0.76861998351177     -0.33878098804604
  H   -2.02753260468524      0.63939282354164      0.41182072961685
  N   -0.35181221712932      0.49881975718863     -1.67095428875882
  H   -0.94032406742339      0.09671818051350     -2.39135526208569
  H   -0.67453735813951      1.44411066759040     -1.48391049508771
  N   1.96410362383884      0.33732399980868      0.03730530576226
  H   2.31080592382963     -0.61520868244526     -0.00479348705092
  H   1.95336833987631      0.71206408232232     -0.90431087982715
  N   0.62741941146682     -0.51924392884674      1.74085852129530
  H   -0.31599297072336     -0.66439611942871      2.07463114327338
  H   1.17955646916006     -0.04472925117902      2.44332493936669
