16
Coordinates from ORCA-job run
  C   -0.49123173987962     -0.28356314848320     -0.38590408958750
  C   0.63065855174172      0.26769592341650      0.51890820344113
  Br  -0.41542813705368     -2.23476377081598     -0.46356622540097
  H   0.44648640234211      1.36414242642995      0.50679601383911
  N   -1.76251374879704      0.04416871911160      0.23750620811128
  H   -1.89754187781190      1.05046511310150      0.19447909500930
  H   -2.52688123532896     -0.40238278858242     -0.25579123150017
  N   -0.25893201414449      0.19134906129948     -1.74178410076615
  H   -0.40276452306981      1.19759193641465     -1.75873476697580
  H   -0.91515273825803     -0.23315525800106     -2.38727585600195
  N   1.91887522587035     -0.10801241237782     -0.00781461004831
  H   1.95922371915490      0.08330585231903     -0.99992465837398
  H   2.63922509142510      0.40903023071210      0.47927786793279
  N   0.58434780612990     -0.14581797251790      1.90005935392759
  H   -0.36963092283751     -0.07890072014190      2.23567143625295
  H   0.86226014051696     -1.12115319188453      1.92809736014068
