16
Coordinates from ORCA-job run
  C   -0.51745279567040     -0.06728241769278     -0.48788425636699
  C   0.84162407223943      0.17261328099753      0.19046741003738
  Br  0.04764624561053     -1.57140956754905     -2.07055774786476
  H   1.54205052402974      0.50188497245534     -0.58908865710729
  N   -1.42341052036433     -0.64054116893054      0.37359060970220
  H   -0.97740392285962     -1.37315104487892      0.91328877650724
  H   -2.29092500381026     -0.93918070839457     -0.04824652794670
  N   -0.98757122324242      1.04805833735136     -1.17948771571541
  H   -1.92724406393381      0.92704418280972     -1.53431117061643
  H   -0.37046488061339      1.29099974602491     -1.94282538011272
  N   1.23430312831702     -1.04439474436069      0.87330250336813
  H   1.53121129017517     -1.73858275759991      0.19829683885262
  H   2.00860712840492     -0.81778633317668      1.48500260836373
  N   0.76694079819315      1.21505804492280      1.19602195958729
  H   0.47247048481817      2.07973002451442      0.75825813228177
  H   0.04761873870610      0.95794015350714      1.86417261702997
