16
Coordinates from ORCA-job run
  C   -0.64226596833436      0.31537261442875     -0.36798623603088
  C   0.54058356247688      0.40838277022902      0.59788180780931
  Br  -0.11060860809398     -2.38336338239439     -0.92479263279524
  H   0.53038183501564      1.46023553920731      0.91531048042407
  N   -1.83787048327675      0.23690885069560      0.18477702553610
  H   -1.81482373029146     -0.12315189273006      1.13234450103235
  H   -2.65063092704852      0.04343029155427     -0.37902142847445
  N   -0.47035136399313      0.72577488014342     -1.62833821383113
  H   -1.21369724283904      0.52365783564728     -2.28085992494307
  H   0.44062174595959      0.49275744817831     -1.99405105281167
  N   1.84027541578192      0.14529437759112      0.03815547440481
  H   1.83937842266904     -0.74237466785455     -0.45580478057234
  H   2.20125325965325      0.90026709688678     -0.52855633108345
  N   0.19728835901767     -0.40108525075267      1.74879271416259
  H   0.87564521942894     -0.22420731270331      2.47904616226516
  H   0.27682050387436     -1.37589919812690      1.46310243490787
