16
Coordinates from ORCA-job run
  C   -0.62696263725358      0.32622157681745     -0.38512098918407
  C   0.62056897089758      0.43114032687076      0.49432835831429
  Br  -0.27852356594710     -2.43705672577335     -0.72987483765813
  H   0.64163624102185      1.49096396962603      0.78352738835550
  N   -1.81909221712344      0.21665462887237      0.20970455650344
  H   -1.79014499258838     -0.35654133353071      1.03946652890075
  H   -2.60875811657313      0.00389846970182     -0.38206737683830
  N   -0.50184877685604      0.76247490014524     -1.62440615579122
  H   0.45747482978083      0.75692448691791     -1.95272641595997
  H   -1.23625728807295      0.60891410395427     -2.29749909886728
  N   1.75666896786948      0.18921392511387     -0.37078571922281
  H   2.60129339186215      0.41983491104762      0.13731635861096
  H   1.76686588301573     -0.80835592348307     -0.57828737295108
  N   0.60855387749024     -0.34109814981773      1.70875472839007
  H   0.38203273881997     -1.31107451279631      1.50937793474683
  H   0.02549269365676      0.04888534633383      2.43629211265101
