16
Coordinates from ORCA-job run
  C   -0.58971126351485     -0.47519760714027     -0.52459911450063
  C   0.54941218791151     -0.26840527537492      0.49612874348465
  Br  -0.09433433833558     -2.07370121789440     -1.62350882834616
  H   0.58829282853946     -1.17570143956247      1.11283991780086
  N   -1.77583801303282     -0.79515344221285      0.19406646754418
  H   -1.87384458550965     -0.11725381247286      0.94280138953005
  H   -2.57393023948772     -0.75895304323849     -0.42841014642813
  N   -0.76962565465314      0.60754182377309     -1.45588824924908
  H   0.12674401877503      0.88866515125072     -1.83979432272712
  H   -1.17173279095887      1.38946222896451     -0.94911559849158
  N   0.15258745944082      0.84270630811133      1.35185637125384
  H   0.53847747657219      0.73670588824426      2.28067276782986
  H   0.51595068300160      1.70037582140326      0.95142045020691
  N   1.79050404891248      0.04697013356460     -0.19869671977609
  H   2.06031949794079     -0.72646523855659     -0.79607765737261
  H   2.52672868439876      0.17840372114108      0.48530452924104
