16
Coordinates from ORCA-job run
  C   -0.51246243759571     -0.16456569757462     -0.71420337536286
  C   0.81778443884672      0.08681406277047      0.05276069972377
  Br  0.06544912108265     -1.29906292235423     -2.32897771392313
  H   1.61641051927684      0.21340538308875     -0.68036367163676
  N   -1.48971406072545     -0.97641861708619     -0.05882871973658
  H   -1.06255633162470     -1.82712243659403      0.28445034907166
  H   -1.92456359862459     -0.44960848514932      0.68939835451943
  N   -1.13250319282239      1.03986015704309     -1.08489853952039
  H   -1.89968269420284      0.87188658166760     -1.72176706937586
  H   -0.48443364657428      1.72238892463467     -1.45053570602397
  N   1.12453202078287     -1.11448175227491      0.82178929841705
  H   2.12428903685836     -1.22796346634342      0.92179711621084
  H   0.72088811650205     -1.04133385266128      1.74800835757226
  N   0.70939693432607      1.34356863880674      0.78547030930615
  H   1.48480324173451      1.42823690462626      1.43199289077199
  H   -0.15863746724011      1.39339657740041      1.30490741998642
