15

C	-0.402485	-0.046401	-1.471289
C	0.0	0.0	0.0
F	0.030244	1.188952	-1.997188
H	1.091395	0.0	0.0
C	0.306014	-1.070638	-2.267529
N	0.777968	-1.80408	-3.053392
N	-1.799735	-0.216735	-1.639
H	-2.294012	0.502878	-1.124528
H	-2.049442	-0.171917	-2.619892
N	-0.358592	-1.193021	0.728079
O	-0.258605	-2.263873	0.109992
O	-0.555201	-1.095011	1.948979
C	-0.520121	1.189195	0.628607
N	-0.929861	2.190718	1.093308
H	2.363338	0.0	0.0
