15

C	-0.295105	-0.14409	-1.499492
C	0.0	0.0	0.0
F	-1.617799	-0.563523	-1.700428
H	1.092636	0.0	0.0
C	-0.21985	1.201247	-2.128233
N	-0.13446	2.207267	-2.731308
N	0.610164	-1.051354	-2.100838
H	0.828848	-0.775203	-3.048082
H	1.471163	-1.083988	-1.547107
N	-0.375046	-1.198679	0.762663
O	0.064469	-2.268884	0.34072
O	-1.011255	-1.057576	1.812666
C	-0.576295	1.18631	0.588035
N	-0.965435	2.193817	1.056267
H	2.467869	0.0	0.0
