14

C	-0.217194	0.110805	-1.519044
C	0.0	0.0	0.0
Br	0.255381	-1.744068	-2.308607
H	1.107508	0.0	0.0
C	-1.605717	0.291119	-1.933981
N	-2.724661	0.47318	-2.246897
N	0.623457	1.13711	-1.95892
H	0.644351	1.225809	-2.966656
H	1.564637	0.983673	-1.561744
C	-0.561662	-1.172618	0.631577
N	-0.979371	-2.114674	1.19683
C	-0.444869	1.214237	0.658924
N	-0.769569	2.195177	1.222372
H	2.496329	0.0	0.0
