14

C	-0.390507	0.222134	-1.46106
C	0.0	0.0	0.0
Br	0.377483	2.031548	-1.991
H	1.107028	0.0	0.0
C	0.286589	-0.731731	-2.346967
N	0.739715	-1.488855	-3.123868
N	-1.791476	0.15589	-1.678795
H	-2.028253	0.398677	-2.634137
H	-2.273751	0.77606	-1.038307
C	-0.428978	-1.311063	0.448203
N	-0.709346	-2.384368	0.842115
C	-0.530206	1.032302	0.861955
N	-0.913743	1.875967	1.59004
H	2.41293	0.0	0.0
