14

C	-0.435039	0.085532	-1.478718
C	0.0	0.0	0.0
Br	0.365868	1.715267	-2.239779
H	1.109443	0.0	0.0
C	0.112168	-1.062701	-2.210687
N	0.466782	-2.009043	-2.810718
N	-1.858374	0.155603	-1.753216
H	-2.234826	0.957015	-1.255437
H	-2.288945	-0.683403	-1.371629
C	-0.471501	-1.245989	0.565462
N	-0.816679	-2.283801	1.004742
C	-0.506589	1.126433	0.751633
N	-0.879188	2.058158	1.36915
H	2.421495	0.0	0.0
