14

C	-0.195926	-0.368749	-1.468447
C	0.0	0.0	0.0
Br	-2.106071	-0.891294	-1.897479
H	1.108676	0.0	0.0
C	0.036407	0.809343	-2.323607
N	0.272837	1.692254	-3.065171
N	0.669919	-1.468687	-1.720442
H	1.584121	-1.221518	-1.290931
H	0.782724	-1.631361	-2.714307
C	-0.430264	-1.0575	0.89235
N	-0.736332	-1.894318	1.659951
C	-0.539391	1.286353	0.379025
N	-0.9288	2.348548	0.70252
H	2.47594	0.0	0.0
