18

C	0.0	0.0	0.0
C	-0.494052	0.123519	-1.449127
F	1.360919	0.0	0.0
H	-1.588488	0.131277	-1.41101
C	-0.541312	1.022098	0.953694
H	-1.636016	0.917025	0.942818
H	-0.150306	0.78285	1.941189
H	-0.275781	2.034037	0.649509
N	-0.45979	-1.349388	0.446597
O	-1.644658	-1.604986	-0.085754
O	-0.120688	-1.695851	1.613518
N	-0.002108	-0.893568	-2.343771
H	-0.523508	-1.730031	-2.10696
H	0.973972	-1.060823	-2.134408
N	-0.093997	1.454213	-1.987563
O	1.014696	1.55144	-2.514948
O	-0.892939	2.384307	-1.858918
H	-2.85595	0.0	0.0
