17

C	0.0	0.0	0.0
C	-0.490591	-0.23956	-1.458444
F	1.384369	0.0	0.0
H	0.437342	-0.303471	-2.036426
C	-0.472401	1.293184	0.631784
H	-1.559304	1.275355	0.73201
H	-0.014437	1.38855	1.619004
H	-0.181055	2.126562	-0.006165
C	-0.349273	-1.125602	0.900665
N	-0.536753	-1.925134	1.739422
N	-1.219115	0.925672	-1.946454
H	-2.143844	0.917345	-1.509519
H	-1.369646	0.801359	-2.942139
N	-1.140843	-1.541921	-1.551125
H	-1.349769	-1.718961	-2.528414
H	-2.039673	-1.484779	-1.068458
Br	-4.007111	0.0	0.0
