17

C	0.0	0.0	0.0
C	-0.526651	-0.168047	-1.432663
F	1.391669	0.0	0.0
H	-1.547717	-0.554587	-1.334304
C	-0.469552	1.259901	0.696062
H	-0.083716	2.116836	0.142639
H	-1.560358	1.273485	0.727172
H	-0.072018	1.277182	1.71329
C	-0.376323	-1.198527	0.779444
N	-0.648657	-2.134815	1.43106
N	0.293431	-1.160985	-2.088865
H	1.203309	-0.762597	-2.284794
H	-0.139356	-1.450101	-2.955811
N	-0.508139	1.137445	-2.112907
H	-0.660546	0.952965	-3.099782
H	-1.333093	1.646408	-1.801844
Br	-3.921305	0.0	0.0
