17

C	0.0	0.0	0.0
C	-0.438344	0.462456	-1.43954
F	1.388308	0.0	0.0
H	0.496873	0.375826	-2.006057
C	-0.521524	0.820193	1.155373
H	-0.207151	1.854113	1.014321
H	-1.61349	0.757656	1.169288
H	-0.123048	0.427334	2.094338
C	-0.354355	-1.426017	0.177676
N	-0.554987	-2.57049	0.343255
N	-0.808461	1.86819	-1.388517
H	-0.959639	2.151705	-2.351148
H	-1.726042	1.913811	-0.946778
N	-1.437831	-0.327778	-2.13006
H	-2.322004	-0.289655	-1.617022
H	-1.157733	-1.30112	-2.183362
Br	-4.081433	0.0	0.0
