17

C	0.0	0.0	0.0
C	-0.501518	-0.152693	-1.431851
F	1.40572	0.0	0.0
H	-1.594412	-0.186	-1.346797
C	-0.494948	1.259237	0.670289
H	-0.103529	1.309973	1.688548
H	-0.161509	2.11847	0.090477
H	-1.587464	1.22742	0.689811
C	-0.362554	-1.189368	0.798271
N	-0.53396	-2.105975	1.510621
N	-0.035906	-1.433379	-1.947975
H	-0.506915	-1.641904	-2.819477
H	0.961961	-1.389379	-2.120268
N	-0.137082	1.044759	-2.185825
H	0.837654	0.988204	-2.458318
H	-0.699763	1.09179	-3.02519
Br	-3.957081	0.0	0.0
