17

C	0.0	0.0	0.0
C	-0.465478	0.152985	-1.456944
F	1.403103	0.0	0.0
H	-1.553584	0.2692	-1.415706
C	-0.491882	1.103007	0.907008
H	-0.090054	0.961222	1.913545
H	-1.585274	1.068173	0.931788
H	-0.159578	2.056502	0.497564
C	-0.374068	-1.33106	0.518156
N	-0.580061	-2.400294	0.956977
N	-0.171759	-1.015371	-2.288503
H	0.740267	-1.389848	-2.04332
H	-0.860803	-1.735745	-2.098667
N	0.132023	1.3727	-1.974109
H	1.136222	1.234593	-2.033013
H	-0.207351	1.481898	-2.922913
Br	-3.896231	0.0	0.0
