17

C	0.0	0.0	0.0
C	-0.385023	-0.410529	-1.455067
F	1.397247	0.0	0.0
H	0.450795	-0.006768	-2.040679
C	-0.4931	1.367813	0.412156
H	-1.581848	1.356243	0.496127
H	-0.047569	1.641619	1.371728
H	-0.206023	2.093992	-0.349438
C	-0.39444	-1.031617	0.977334
N	-0.60443	-1.901067	1.738228
N	-1.589386	0.239886	-1.878413
H	-2.393976	0.049065	-1.273449
H	-1.820537	-0.094827	-2.805476
N	-0.38366	-1.854729	-1.691898
H	-1.163734	-2.27007	-1.189802
H	0.472351	-2.26815	-1.332345
Br	-4.381486	0.0	0.0
