17

C	0.0	0.0	0.0
C	-0.536591	0.160913	-1.427906
F	1.389302	0.0	0.0
H	-1.584412	0.46196	-1.317686
C	-0.477711	1.12737	0.889123
H	-1.565265	1.078147	0.973539
H	-0.016528	1.036022	1.875255
H	-0.177835	2.067817	0.425292
C	-0.377982	-1.310422	0.570377
N	-0.575702	-2.365298	1.04569
N	-0.392592	-1.099653	-2.16751
H	-0.759757	-0.933144	-3.099809
H	-1.019844	-1.78262	-1.748624
N	0.2024	1.239855	-2.053532
H	1.095569	0.8703	-2.358978
H	-0.307538	1.568621	-2.863426
Br	-3.917782	0.0	0.0
