17

C	0.0	0.0	0.0
C	-0.504921	0.162077	-1.439787
F	1.389454	0.0	0.0
H	-1.554694	0.467853	-1.362835
C	-0.459477	1.14297	0.880786
H	-0.123718	2.069797	0.412799
H	-1.547518	1.131678	0.962968
H	-0.004094	1.042918	1.868578
C	-0.383057	-1.305801	0.572716
N	-0.597529	-2.357279	1.048803
N	-0.335286	-1.102044	-2.168484
H	-0.633607	-0.934415	-3.12488
H	-0.9973	-1.774815	-1.789489
N	0.262261	1.2362	-2.040655
H	1.175109	0.868097	-2.283582
H	-0.199236	1.54746	-2.886056
Br	-3.896656	0.0	0.0
