18

C	0.0	0.0	0.0
C	-0.477088	-0.005334	-1.481128
F	1.364314	0.0	0.0
H	0.123548	-0.835232	-1.911316
N	-0.383005	1.410672	0.441316
O	-1.649149	1.422968	0.807792
O	0.493995	2.168657	1.032787
C	-0.446509	-1.190432	0.83978
H	-0.0448	-1.071093	1.854981
H	-0.163936	-2.16089	0.401553
H	-1.543518	-1.164278	0.958134
C	-0.071342	1.290858	-2.190191
H	0.979369	1.522438	-2.005201
H	-0.682645	2.122384	-1.830842
H	-0.23149	1.182982	-3.266656
C	-1.893349	-0.301426	-1.592822
N	-3.035333	-0.581145	-1.842881
H	-1.658541	0.0	0.0
