18

C	0.0	0.0	0.0
C	-0.229527	0.003888	-1.550224
F	1.368114	0.0	0.0
H	0.454966	0.800451	-1.861893
N	-0.620833	1.204598	0.573722
O	-0.629379	1.267627	1.833727
O	-0.563945	2.239472	-0.159028
C	-0.308795	-1.234395	0.836124
H	0.0288	-2.123757	0.296634
H	-1.364359	-1.309137	1.068907
H	0.272367	-1.137851	1.758285
C	-1.567273	0.307062	-2.226851
H	-1.978977	1.215448	-1.797488
H	-2.282451	-0.501359	-2.110753
H	-1.363946	0.466505	-3.297576
C	0.314942	-1.247658	-2.091563
N	0.719139	-2.260394	-2.530341
H	-2.225248	0.0	0.0
