18

C	0.0	0.0	0.0
C	-0.237134	-0.045464	-1.551776
F	1.36799	0.0	0.0
H	0.471223	0.715861	-1.895947
N	-0.62902	1.206877	0.549887
O	-0.625494	1.298172	1.809868
O	-0.575599	2.227942	-0.204294
C	-0.302282	-1.220578	0.862154
H	0.225672	-1.071238	1.80669
H	0.093652	-2.109434	0.365389
H	-1.362793	-1.330681	1.051166
C	-1.571381	0.271583	-2.227939
H	-1.943626	1.20959	-1.817555
H	-1.377683	0.384459	-3.307941
H	-2.312785	-0.51222	-2.079981
C	0.258706	-1.334383	-2.048281
N	0.630221	-2.377426	-2.44217
H	-2.206965	0.0	0.0
