16
Coordinates from ORCA-job run
  C   0.42886047476370     -0.78223428283426      0.05987696878850
  C   -0.65254576444245      0.06611286794193     -0.64621090213543
  F   -0.23646324089684     -1.85214387018419      0.65222943761879
  H   -1.12064286703544     -0.59262282980098     -1.38705738911444
  C   1.34278643305095     -1.34116819827123     -0.95302155664787
  N   2.07137097220907     -1.78121671955859     -1.76210490583553
  C   1.20433816825305     -0.04534878186686      1.13292278124752
  H   1.72436349212800      0.81640777529938      0.71142718698432
  H   1.93785743444609     -0.72150044920107      1.57388105515846
  H   0.52271008084027      0.28622525202272      1.91651158168006
  C   -0.01032478355458      1.17027352047421     -1.35982512600542
  N   0.50805489901119      2.07656133594237     -1.89739052896708
  C   -1.72601684055029      0.58024467301417      0.31770066214874
  H   -2.53850142480949      1.03473481265081     -0.25122223923471
  H   -1.32686082060062      1.33509122382751      0.99584300441898
  H   -2.12898621281260     -0.25041632945593      0.89743996989511
