16
Coordinates from ORCA-job run
  C   0.44390008907781     -0.77302818404452      0.07819658171376
  C   -0.65679693320150      0.03516732756080     -0.64481280715992
  F   -0.19771279734515     -1.84126668054188      0.69877398066172
  H   -1.11783397201587     -0.65428218535456     -1.36167440096143
  C   1.36709488272842     -1.33727371366040     -0.92352326427732
  N   2.10740650917333     -1.77930912775130     -1.72082409488013
  C   1.20667558377336      0.00608566797469      1.13038460217283
  H   1.70202624632632      0.87170215799880      0.68741053800757
  H   1.95974527509133     -0.64120190296888      1.58144463219731
  H   0.52080299369085      0.33677102077570      1.91079588978313
  C   -0.04053176210481      1.12866342195100     -1.39627140878574
  N   0.45509141369118      2.02801603602329     -1.96602393611983
  C   -1.73265098668729      0.55905524682430      0.31092265664068
  H   -1.34232218623559      1.34098831942345      0.96314555173858
  H   -2.11671659568690     -0.26088124969203      0.91834320283637
  H   -2.55717776027547      0.98179384548154     -0.26528772356755
