16
Coordinates from ORCA-job run
  C   0.44405930098256     -0.77058057553822      0.09518991976716
  C   -0.63998827321289      0.02821981635952     -0.66183598744126
  F   -0.21070380588939     -1.83557972329532      0.70848795521380
  H   -1.08075211228514     -0.66750812249592     -1.38543531154208
  C   1.39425282669791     -1.34171613433938     -0.87656889935559
  N   2.15481618853872     -1.79060571518652     -1.65066445778560
  C   1.17804043582948      0.01915978083496      1.16004019517128
  H   1.91826704149336     -0.62390886009359      1.63759120507900
  H   1.68575378659950      0.88000773338506      0.72179485933346
  H   0.47167621407105      0.35814987326127      1.91809083460456
  C   -0.00857313068817      1.11825649257803     -1.40596184673912
  N   0.49710972682708      2.01541194078594     -1.97034417983074
  C   -1.74135983208673      0.55564474342125      0.26265293853881
  H   -2.55344319681333      0.96950391743746     -0.33697398839647
  H   -1.37085995735037      1.34509214751360      0.91709010970373
  H   -2.13629521271363     -0.26054731462815      0.86784665367906
