16
Coordinates from ORCA-job run
  C   0.48951873423183     -0.43123204192863      0.39046811133933
  C   -0.47793915069377      0.42424196813020     -0.45305047890140
  F   0.02630506264271     -0.43050686916472      1.70057702754653
  H   -0.13367786109555      0.37219956311182     -1.49329430184605
  C   0.43707485795552     -1.82045763003474     -0.10342443056313
  N   0.41187145838321     -2.91629293336489     -0.52428300516389
  C   1.91778448182930      0.07762472969359      0.39007529701528
  H   2.32313506004865      0.08881382909253     -0.62355219344254
  H   2.53413229996136     -0.57342790325070      1.01110430366395
  H   1.94116467431057      1.08742857583536      0.80173189160459
  C   -0.38208698324880      1.82108674737588     -0.02207558999480
  N   -0.31793578870815      2.94116198960926      0.32406103831954
  C   -1.92514031771495     -0.07012303250594     -0.36416179749358
  H   -2.57563174040920      0.56788633579449     -0.96376668697563
  H   -2.26923803826462     -0.04661470882591      0.66950294333134
  H   -1.99933674922809     -1.09178861956761     -0.74091212843954
