16
Coordinates from ORCA-job run
  C   0.73649473187271     -0.51538222383769     -0.04192000663697
  C   -0.72069581890076     -0.28002512775686     -0.47686620936766
  F   1.15503168588930     -1.69531690933206     -0.64483243820917
  H   -1.27997732981628     -1.15491542300457     -0.12412408538701
  C   1.59407739966606      0.57732526129075     -0.53523850145399
  N   2.26119423883856      1.47551471845319     -0.89204869333876
  C   0.89274691926694     -0.68069448820345      1.45833142198791
  H   0.20991348704969     -1.45740262157747      1.80960568209413
  H   1.91683331197979     -0.99023784269183      1.67117170981593
  H   0.69323729131051      0.25041907756203      1.98871865127967
  C   -0.79873932981543     -0.26526430101310     -1.94022957059875
  N   -0.88319741525245     -0.22013525888344     -3.11027272897151
  C   -1.32559114741392      1.00084568602327      0.10482708227264
  H   -2.34113858921825      1.13306636643521     -0.27033084054863
  H   -1.37039257824533      0.94978166408221      1.19318895897078
  H   -0.73879685721114      1.87342142245381     -0.18898043190861
