16
Coordinates from ORCA-job run
  C   0.42434382119197     -0.46483507396274      0.42807739884520
  C   -0.40566840842250      0.45949472313648     -0.48676796813710
  F   -0.19927064414171     -0.50767824139991      1.66860770020341
  H   0.06487233734495      0.44194629458338     -1.47752942638027
  C   0.39657818194618     -1.82709625507261     -0.13767946454718
  N   0.39711540846994     -2.89918143634653     -0.61652897850665
  C   1.85484764325444     -0.00398242195276      0.62906629344581
  H   2.37124410877255     -0.70267523656762      1.28825509573462
  H   2.38349637653613      0.04057079447847     -0.32498810418449
  H   1.85381943767743      0.98440000695587      1.09031539478663
  C   -0.32626712055496      1.83179669802918      0.01905373998395
  N   -0.27526156085452      2.93345155345137      0.42175781472416
  C   -1.86572825091155      0.01002030393153     -0.60186738086787
  H   -1.92025380697292     -0.99121889895533     -1.03333668773362
  H   -2.41780702269089      0.69516836962154     -1.24662465391873
  H   -2.33606050064456     -0.00018117993032      0.38118922655215
