16
Coordinates from ORCA-job run
  C   0.44682570634280     -0.46222484470421      0.40709636147600
  C   -0.43148276504104      0.45593869677155     -0.46799036284607
  F   -0.10732404733673     -0.49430178462964      1.68053519959918
  H   -0.01717058739853      0.42834518937795     -1.48332647248987
  C   0.38592314445965     -1.82904371453702     -0.14503941859436
  N   0.35669771185498     -2.90530377426266     -0.61347273767475
  C   1.88669463868074     -0.00204863224393      0.52532108296912
  H   2.36126109100364      0.03666855504373     -0.45709110563744
  H   2.43854215614574     -0.69761152688643      1.15869926153357
  H   1.91201106966954      0.98900279893825      0.98029167340403
  C   -0.32116031031465      1.83258137258287      0.02053850630934
  N   -0.24439763679629      2.93690935200550      0.41165980936291
  C   -1.89654832837733      0.00891454270378     -0.49716980080781
  H   -2.48260887354868      0.68899363226910     -1.11667674228524
  H   -2.31134613111323      0.00941711117962      0.51049126467430
  H   -1.97691683823066     -0.99623697360844     -0.91486651899259
