16
Coordinates from ORCA-job run
  C   0.44327710455771     -0.77218837455394      0.08385767260773
  C   -0.63821388241175      0.03919446186415     -0.66359076318585
  F   -0.21357527349125     -1.84741593646999      0.67659239086516
  H   -1.07741654994966     -0.64552286984507     -1.39853376049704
  C   1.39725707200033     -1.32665836300606     -0.89379745901645
  N   2.16242329945857     -1.76415819523303     -1.66990578167771
  C   1.17293437377972     -0.00033061178742      1.16461104844020
  H   0.46369561975222      0.32220409491184      1.92713604494189
  H   1.67890558760661      0.86997959571332      0.74346258825172
  H   1.91422170319917     -0.64965491535659      1.63203282252486
  C   -0.00413348400392      1.14004618027494     -1.38911338849127
  N   0.50321939843608      2.04403842106377     -1.94071189707272
  C   -1.74170648129958      0.55321194573948      0.26595834163778
  H   -1.37202875173618      1.33228509453980      0.93320029065328
  H   -2.55172049169389      0.97666917443178     -0.32980226202861
  H   -2.13913924420417     -0.27169970228699      0.85760411204702
