16
Coordinates from ORCA-job run
  C   0.48282797059855     -0.75910848986717      0.02964665229872
  C   -0.89581238680739     -0.09325147391632     -0.12529652188875
  F   0.28218719958906     -2.13171173668400     -0.05119468357250
  H   -1.50666326433712     -0.48412072307520      0.69734867903994
  C   1.36467310871803     -0.36067733835163     -1.08229526684305
  N   2.07619149025033      0.00192049623611     -1.94338909993969
  C   1.14184002514816     -0.46404702833172      1.36422739007484
  H   0.44977739636685     -0.71029991193098      2.17247981468551
  H   2.03111660131419     -1.08843594077143      1.46033973066569
  H   1.44008859206935      0.58136502112481      1.44236538122659
  C   -1.51251712208308     -0.53077383154931     -1.38065659251675
  N   -2.01417342892869     -0.84633919877026     -2.39396803587786
  C   -0.83898009036949      1.43549713019798     -0.05854554129537
  H   -0.48912596158489      1.76804630573666      0.91936127410703
  H   -1.83457816079560      1.85000023277969     -0.22133117739542
  H   -0.17585196914827      1.83193648717276     -0.83009200276892
