16
Coordinates from ORCA-job run
  C   0.60086100271356     -0.66985572252900     -0.00655053839296
  C   -0.80591783515904     -0.17217100673493     -0.38263065608540
  F   0.69608782723222     -1.98599829276847     -0.44169612438649
  H   -1.50446088394025     -0.84000289799789      0.13575627326794
  C   1.62307489239494      0.12014615630350     -0.71629364698658
  N   2.43168828781181      0.78625062425089     -1.24687950039252
  C   0.85942123134115     -0.65586338630399      1.48854142795674
  H   0.06124450757482     -1.19924438958523      1.99883603365733
  H   0.91774981707998      0.36075587445601      1.87707831077168
  H   1.80758700850513     -1.15836919913800      1.68427248131592
  C   -1.01682029440739     -0.34316111341365     -1.82272666942494
  N   -1.20021853961079     -0.44533525006144     -2.97777435819887
  C   -1.06320370544527      1.28005997238546      0.02921634332473
  H   -1.01810112836923      1.38967409474681      1.11333255004725
  H   -0.33084979562360      1.94777406405998     -0.42907963155283
  H   -2.05614239209803      1.58734047232995     -0.30140229492102
