16
Coordinates from ORCA-job run
  C   0.61165977792861     -0.65921322947852     -0.03461150405986
  C   -0.77393643219647     -0.13905780863788     -0.45619055021333
  F   0.76042526589250     -1.92067009008846     -0.59772366743490
  H   -1.49472888917435     -0.86714665776424     -0.06500738388840
  C   1.66684775699729      0.21202013120590     -0.58260641520782
  N   2.49879171903680      0.93781023844374     -0.98282576324194
  C   0.76439827497813     -0.80085910831991      1.46840526500347
  H   0.78246161530424      0.16972968340340      1.96381423963795
  H   1.70293137313664     -1.31603922448933      1.67711817871409
  H   -0.06038185888295     -1.39899596888504      1.86175015214427
  C   -0.87890835835515     -0.15510011259040     -1.91784740480554
  N   -0.97761400585305     -0.13339486493497     -3.08747683070260
  C   -1.08695966958298      1.25683763472731      0.08983775454237
  H   -2.05969735275130      1.58717937773113     -0.27661929453667
  H   -0.33678528164557      1.97851697676392     -0.23986469046755
  H   -1.12050393483239      1.24838302291334      1.17984791451645
