16
Coordinates from ORCA-job run
  C   0.44244345312837     -0.77325753470187      0.06652432973500
  C   -0.63392295975442      0.05884698861281     -0.66560541523206
  F   -0.22021406380445     -1.85839653583291      0.63460906410850
  H   -1.06646071716714     -0.60294628580220     -1.42490129354842
  C   1.39498312596676     -1.31231485831666     -0.92168564821604
  N   2.15379097793779     -1.74443853055569     -1.70682040666380
  C   1.17353687077777     -0.02837550682350      1.16497527958990
  H   1.90220028424481     -0.69549556093346      1.62687380902427
  H   0.46309109487319      0.29192459758559      1.92727595038608
  H   1.69448130050295      0.84158500977352      0.76201824292570
  C   0.00551274097751      1.18301094118367     -1.34962679848699
  N   0.51745475489578      2.11006958232920     -1.85735158379710
  C   -1.74600378976423      0.54359545478403      0.26958211216442
  H   -1.38385600970124      1.30349601257145      0.96261196232151
  H   -2.55159708624112      0.98275716905230     -0.32078246324499
  H   -2.14643997687232     -0.29906094292628      0.83330285893403
