15

C	0.0	0.0	0.0
C	-0.506773	0.11629	-1.427456
F	1.380734	0.0	0.0
H	-1.599874	0.236348	-1.340485
H	-0.361626	0.839161	0.591726
C	-0.410938	-1.270471	0.620204
N	-0.56781	-2.299045	1.163287
C	-0.12858	-1.050991	-2.310938
H	-0.594561	-1.951672	-1.908295
H	-0.495908	-0.895407	-3.323167
H	0.954017	-1.188891	-2.346785
N	0.018973	1.411889	-1.978403
O	0.32507	1.453496	-3.169212
O	0.069719	2.375091	-1.216078
Cl	-3.366672	0.0	0.0
