17

C	0.0	0.0	0.0
C	-0.215496	-0.149036	-1.545133
Cl	1.848276	0.0	0.0
H	0.291422	0.709974	-1.987644
N	-0.553618	1.240051	0.40735
H	-0.363435	1.350538	1.401245
H	-1.592926	0.995478	0.308627
C	-0.424266	-1.228375	0.788092
H	0.024856	-2.145482	0.402754
H	-0.116084	-1.095422	1.829334
H	-1.517196	-1.229503	0.711097
N	-1.627734	-0.066351	-2.117372
O	-2.195942	-1.115036	-2.381324
O	-2.002472	1.062532	-2.404946
C	0.374681	-1.383258	-2.067499
N	0.86329	-2.35202	-2.518982
F	-2.772689	0.0	0.0
