17

C	0.0	0.0	0.0
C	-0.296701	0.006718	-1.533102
Cl	1.853556	0.0	0.0
H	0.205005	-0.857837	-1.972351
N	-0.523223	1.050634	0.785117
H	-1.553816	0.863058	0.685959
H	-0.309566	1.942839	0.354054
C	-0.432228	-1.343948	0.557138
H	-0.086026	-1.409414	1.58931
H	-1.52541	-1.333036	0.519325
H	-0.00964	-2.169332	-0.021304
N	0.378354	1.173876	-2.216426
O	1.165715	0.912095	-3.121801
O	0.090094	2.304088	-1.831266
C	-1.683765	0.015895	-2.028171
N	-2.502299	-0.02393	-2.875797
F	-2.76872	0.0	0.0
