17

C	0.0	0.0	0.0
C	-0.581037	-0.092337	-1.421643
Cl	1.790557	0.0	0.0
H	-1.687562	-0.098783	-1.184922
N	-0.504527	1.265192	0.47577
H	-0.149727	1.424337	1.413724
H	-1.527536	1.086786	0.509697
C	-0.43743	-1.196025	0.842915
H	-0.097104	-1.028228	1.868898
H	-0.017664	-2.1382	0.487055
H	-1.529391	-1.199158	0.793762
N	-0.218235	-1.372706	-2.103764
O	0.768803	-1.385548	-2.840397
O	-0.932137	-2.346119	-1.867307
C	-0.17132	1.027948	-2.253422
N	0.114445	1.935278	-2.942146
F	-2.863308	0.0	0.0
