17

C	0.0	0.0	0.0
C	-0.35194	-0.154102	-1.513345
Cl	1.853565	0.0	0.0
H	0.123424	-1.065911	-1.879453
N	-0.499573	1.146505	0.666772
H	-0.309129	1.968588	0.108258
H	-1.525566	0.954568	0.634506
C	-0.418789	-1.26267	0.732565
H	-0.057456	-1.187167	1.760459
H	-1.509875	-1.279586	0.70619
H	0.013997	-2.151942	0.269456
N	0.2925	0.932964	-2.344105
O	1.087855	0.583256	-3.211168
O	-0.034049	2.093767	-2.106342
C	-1.76566	-0.169352	-1.94617
N	-2.558399	-0.240201	-2.818982
F	-2.757236	0.0	0.0
