17

C	0.0	0.0	0.0
C	-0.238249	0.189747	-1.541126
Cl	1.798462	0.0	0.0
H	0.168136	1.176198	-1.771909
N	-0.570323	1.122978	0.664275
H	-1.604734	0.904456	0.518417
H	-0.380485	1.015885	1.657505
C	-0.448921	-1.367836	0.492183
H	-0.020018	-2.180211	-0.099157
H	-0.128088	-1.48443	1.53225
H	-1.542385	-1.336525	0.428987
N	-1.660887	0.231203	-2.086188
O	-2.154735	-0.830749	-2.434945
O	-2.117738	1.349968	-2.276085
C	0.45264	-0.824152	-2.341993
N	1.01003	-1.60401	-3.020787
F	-2.805469	0.0	0.0
