17

C	0.0	0.0	0.0
C	-0.565626	0.235581	-1.414037
Cl	1.795579	0.0	0.0
H	-1.657825	0.110451	-1.286891
C	-0.382518	1.114251	0.876819
N	-0.582319	2.015543	1.60368
C	-0.479828	-1.325738	0.576766
H	-0.12825	-2.142753	-0.057497
H	-1.573352	-1.305837	0.599803
H	-0.08364	-1.460277	1.584859
C	-0.075085	-0.800918	-2.319804
N	0.331983	-1.603804	-3.075193
C	-0.284614	1.627857	-1.978205
H	-0.707616	1.70749	-2.981338
H	-0.765642	2.376292	-1.346341
H	0.787701	1.828049	-2.029882
Br	-3.810297	0.0	0.0
