17

C	0.0	0.0	0.0
C	-0.567907	0.09664	-1.429102
Cl	1.794899	0.0	0.0
H	-1.660891	-0.003269	-1.285488
C	-0.384451	1.196324	0.758798
N	-0.616678	2.180015	1.358216
C	-0.481213	-1.262594	0.703147
H	-1.574724	-1.242049	0.717658
H	-0.091489	-1.295221	1.721956
H	-0.123908	-2.137661	0.155933
C	-0.095623	-1.035256	-2.223988
N	0.288434	-1.924004	-2.890023
C	-0.273636	1.418988	-2.136048
H	0.801063	1.596025	-2.218418
H	-0.737147	2.236851	-1.581939
H	-0.705187	1.400286	-3.138862
Br	-3.807607	0.0	0.0
