17

C	0.0	0.0	0.0
C	-0.417317	-0.069111	-1.492583
Cl	1.796211	0.0	0.0
H	0.017837	-1.002359	-1.872917
C	-0.40337	1.285664	0.577472
N	-0.693025	2.322282	1.048369
C	-0.571175	-1.153038	0.805925
H	-0.301995	-2.101266	0.334503
H	-1.660519	-1.056211	0.84902
H	-0.173035	-1.132721	1.821394
C	0.200926	1.028009	-2.245737
N	0.652088	1.905544	-2.882882
C	-1.929792	-0.061168	-1.706163
H	-2.412183	-0.940466	-1.285976
H	-2.410347	0.795155	-1.234437
H	-2.144287	-0.030897	-2.776467
Br	-4.876415	0.0	0.0
