11
Coordinates from ORCA-job run
  C   1.02802226378574     -0.33615349272494     -0.40656234483098
  C   -0.17364499583290      0.06562078220804      0.07160014864114
  H   1.12896715743919     -1.32475316448519     -0.84556291343376
  C   2.19710966785248      0.47897135992952     -0.36661285121271
  N   3.17629381028884      1.13199472433056     -0.34485331831987
  C   -1.40342145146457     -0.79429372658676      0.02964858744048
  H   -2.19302808037279     -0.29993086453609     -0.54170621903216
  H   -1.18530224430392     -1.75924791607965     -0.42971907044104
  H   -1.78438828413505     -0.96073710115486      1.04028867143867
  C   -0.31476020612971      1.36871852833256      0.65332063078235
  N   -0.47684763712732      2.42881087076681      1.13915867896788
