11
Coordinates from ORCA-job run
  C   1.16823390600774      0.43478466373160      0.02762689171452
  C   -0.13488790450331      0.26633650612230      0.36038649872464
  H   1.79449233174524      1.13323405647034      0.57495937036768
  C   1.77134274361460     -0.28590669746182     -1.04556236606935
  N   2.27490852590695     -0.87817557263849     -1.92952387607626
  C   -1.09093915935146     -0.66615761041979     -0.32322197666071
  H   -1.93848338861680     -0.10561697442523     -0.72551025651033
  H   -0.60123987772711     -1.20333671796119     -1.13582362119698
  H   -1.48640970508354     -1.38944447292410      0.39451778872617
  C   -0.65143707821284      1.03819236981437      1.45368710266526
  N   -1.10658039377947      1.65709044969202      2.34546444431536
