11
Coordinates from ORCA-job run
  C   1.18598586848595      0.37264792587262      0.08418092423969
  C   -0.16006336100335      0.36608110564735      0.24360573021048
  H   1.78963140686211      1.17378831512005      0.50011365130780
  C   1.86660792686109     -0.65890407663818     -0.62779563427647
  N   2.43558887195011     -1.50560435148473     -1.21529655395654
  C   -1.09093801526066     -0.68478084040470     -0.28549451136565
  H   -1.64452293159570     -1.14436931553567      0.53724850615702
  H   -0.54282801626273     -1.45956325979313     -0.82212795915404
  H   -1.82158225290932     -0.23235674130070     -0.96092484948781
  C   -0.75150219417097      1.44850499477007      0.97599603979638
  N   -1.26637730295653      2.32355624374702      1.57149465652913
