11
Coordinates from ORCA-job run
  C   1.17149600807419      0.42393968989165      0.02358820778766
  C   -0.13466074465865      0.27509332141361      0.35394866965274
  H   1.80244002037499      1.12660239681472      0.55967537053951
  C   1.77309809185162     -0.32446408979633     -1.03106862045179
  N   2.27754305661821     -0.93951533193842     -1.89884076427280
  C   -1.09700818078153     -0.66170797847811     -0.31471463800638
  H   -1.50041341710496     -1.36838704032187      0.41506605631169
  H   -0.60999662277989     -1.21756101545131     -1.11634211244510
  H   -1.93875068563842     -0.10140106884497     -0.72968677106079
  C   -0.64714313903580      1.07388683009992      1.42958238428851
  N   -1.09660438691976      1.71451428661111      2.30879221765675
