11
Coordinates from ORCA-job run
  C   1.17551363536394      0.41240355760319      0.05100416766716
  C   -0.16621680643505      0.36716796938581      0.23825538494234
  H   1.76166663731767      1.24127316337497      0.43647807349463
  C   1.87361566387530     -0.61344763452530     -0.65207211994104
  N   2.45576715090213     -1.45673681307442     -1.23146813595983
  C   -1.07332759166571     -0.72474298199691     -0.24750608087014
  H   -1.59201132386279     -1.18467199218629      0.59755193666094
  H   -1.83390994480255     -0.31145980431535     -0.91483691327922
  H   -0.51189783700380     -1.49258395888575     -0.78041569250562
  C   -0.77803382876274      1.44635253014010      0.95864606842740
  N   -1.31116575492638      2.31644596447995      1.54536331136339
