11
Coordinates from ORCA-job run
  C   1.12402178375560      0.53011923104847     -0.09895413687121
  C   -0.20996570417436      0.40513718254512      0.10557325992346
  H   1.61001316542747      1.49760479264892     -0.01483678636832
  C   1.94393104617982     -0.58876263895220     -0.43057688488002
  N   2.62596286834122     -1.50828204786925     -0.70459687088634
  C   -0.98434671678106     -0.87672868873029      0.01644179312308
  H   -1.47300809516281     -1.08770104459545      0.97102232744212
  H   -0.33216745185110     -1.71151022626825     -0.24141052869486
  H   -1.76711940121261     -0.78938985526431     -0.74131385830897
  C   -0.95019699349668      1.58923247083760      0.43428826874062
  N   -1.58612450102549      2.54228082459964      0.70436341678045
