11
Coordinates from ORCA-job run
  C   1.03342531301971     -0.32162619471954     -0.40483735271595
  C   -0.17420232028218      0.06306494235864      0.07217033699211
  H   1.14005362063724     -1.29413695639375     -0.87741875847048
  C   2.20176779499652      0.49132241077334     -0.32306053708574
  N   3.18160983665217      1.14151351158487     -0.26869603079786
  C   -1.40300922050942     -0.79486653588991     -0.01468628022905
  H   -2.18683599641695     -0.27903792986120     -0.57490952644926
  H   -1.18004375228750     -1.74187674618777     -0.50779798705987
  H   -1.79420233054649     -0.99916568570848      0.98510795094868
  C   -0.32409040313421      1.34505760166132      0.69716573710353
  N   -0.49647254212889      2.38775158238248      1.21596244776388
