11
Coordinates from ORCA-job run
  C   1.05760875196044     -0.27592602052943     -0.37647476138207
  C   -0.17864992983432      0.05404518300216      0.06739585867725
  H   1.18623404633789     -1.14536266429904     -1.01511226790521
  C   2.22927333411533      0.46616795586862     -0.04600720447204
  N   3.21081569397159      1.06117328094369      0.21548033113121
  C   -1.41210828586062     -0.72879432024669     -0.27747322727200
  H   -2.13262838350201     -0.09225128143364     -0.79724064804775
  H   -1.16546524070221     -1.57830211444995     -0.91567932254708
  H   -1.89422217710584     -1.09670036860590      0.63166822618924
  C   -0.35425943452758      1.19987614494506      0.91145832093469
  N   -0.54559837485266      2.13407420480513      1.60198469469376
