11
Coordinates from ORCA-job run
  C   1.18969954717171      0.34330029370697      0.14820733431593
  C   -0.16336941193602      0.37911177482940      0.22032069172985
  H   1.78914966767691      1.14232147143231      0.57415654563847
  C   1.88257615476286     -0.73135029086154     -0.48364031033412
  N   2.45956359004561     -1.61499759709760     -1.00502433186832
  C   -1.08958239517689     -0.66466453042993     -0.33094060575042
  H   -1.70508952234797     -1.08051779246307      0.47085610214095
  H   -1.76465086159712     -0.21698472578619     -1.06475795954154
  H   -0.53198974590898     -1.47193487315571     -0.80651286154387
  C   -0.76916022536262      1.50329079486277      0.87411006221784
  N   -1.29814679732749      2.41142547496259      1.40422533299523
