11
Coordinates from ORCA-job run
  C   1.09918466586869      0.55404334572045     -0.19627756404090
  C   -0.19953696259180      0.39315747870480      0.15692467968572
  H   1.58173328634421      1.52266160117587     -0.10596192196459
  C   1.88366323587674     -0.52571629162877     -0.69888564371546
  N   2.53614104693407     -1.41272772228867     -1.11506956534007
  C   -0.96771478613454     -0.89299592516523      0.07451614292334
  H   -1.33817194333428     -1.17251112822293      1.06409731150716
  H   -1.83512003844267     -0.77028501945079     -0.57913381049733
  H   -0.34271308346442     -1.69855531768872     -0.31181837007780
  C   -0.90501823877094      1.54011106713563      0.65169747708911
  N   -1.51144718228507      2.46181791170835      1.06191126443081
