11
Coordinates from ORCA-job run
  C   1.19668304917747      0.32841760376624      0.12196099895800
  C   -0.14850503508118      0.33722793074854      0.28830454943871
  H   1.82329621554051      1.05428799728699      0.63152873116382
  C   1.84566394661137     -0.62257601373993     -0.71982988372948
  N   2.38716044311366     -1.40525421695145     -1.41259434116555
  C   -1.10923639257600     -0.61403554335700     -0.36220772770368
  H   -1.66915512272722     -1.16112053055927      0.40058640466882
  H   -1.83225834487492     -0.06138439050716     -0.96747886013814
  H   -0.58452170323120     -1.32772241448481     -0.99791739925141
  C   -0.70900284732845      1.33311710166825      1.15553684308824
  N   -1.20012420862404      2.13804247612960      1.86011068467067
