11
Coordinates from ORCA-job run
  C   1.00102022863265      0.61452895225579     -0.41877045116554
  C   -0.29376066818636      0.34330057680374     -0.12299961975319
  H   1.27677455507989      1.55015390274939     -0.89609756020482
  C   2.05008723439197     -0.30514423709538     -0.12271770748703
  N   2.91912894243762     -1.06145386302351      0.11905798612587
  C   -0.78889664452183     -0.91247834437604      0.53206995064101
  H   -1.30176175367814     -0.67084185900164      1.46652286674740
  H   0.03510759887953     -1.59414968090915      0.74437162187800
  H   -1.50939486065973     -1.41548203062539     -0.11802686296466
  C   -1.27802617725174      1.33111783254841     -0.46013344496398
  N   -2.11127845512387      2.12044875067379     -0.72127677885305
