11
Coordinates from ORCA-job run
  C   1.09186342379529     -0.30025689892165     -0.23456187199278
  C   -0.18413088617657      0.05934074309495      0.04216063379687
  H   1.30354479236476     -1.30755946347824     -0.58226998395385
  C   2.20078829139856      0.58453048163799     -0.09257986488147
  N   3.13220462329300      1.29576293560363      0.01861272469613
  C   -1.35124791522085     -0.87307154572783     -0.10625412642274
  H   -1.02327883463592     -1.85064467646551     -0.46186442672644
  H   -2.07653674255280     -0.46313984943361     -0.81353628737381
  H   -1.86148940860019     -0.99736078457516      0.85221872571481
  C   -0.47262197377503      1.38731904890675      0.50040576392004
  N   -0.75909536989025      2.46508000935867      0.87766871322324
