11
Coordinates from ORCA-job run
  C   1.12921862100470      0.51960863328719     -0.09783442246298
  C   -0.19242423634496      0.38972026867587      0.17385178379490
  H   1.64297379546921      1.45890526692315      0.08365102696744
  C   1.89843313649386     -0.55588641945939     -0.63244219343514
  N   2.53830943424940     -1.43801432689312     -1.07734691568027
  C   -1.00291235777560     -0.85518843992556     -0.03663426728738
  H   -1.43871597508774     -1.18357160738565      0.91040159975305
  H   -1.82713820073946     -0.65403790821812     -0.72565599388606
  H   -0.38827819586398     -1.65890611536041     -0.44289446595335
  C   -0.88151695671783      1.53029498596377      0.70514738333990
  N   -1.47694906468760      2.44807566239229      1.13975646484991
