11
Coordinates from ORCA-job run
  C   1.16560216995220      0.44212759926959      0.00663135648068
  C   -0.18033824566878      0.40058470657487      0.16197970655960
  H   1.72394290320534      1.34217365983540      0.24607490216342
  C   1.90373836940737     -0.67826792907416     -0.47737046560907
  N   2.51847074025497     -1.59963325180699     -0.87605731928675
  C   -1.05161420168815     -0.78337961507021     -0.13796840696476
  H   -1.79851994249856     -0.51825342283739     -0.89065161105540
  H   -1.58823697802311     -1.09224242897637      0.76271259104835
  H   -0.45977229129019     -1.62217542983694     -0.50511428896451
  C   -0.83354504768983      1.57922989045641      0.65406089693530
  N   -1.39872747596127      2.53083622146579      1.05470263869316
