11
Coordinates from ORCA-job run
  C   1.11106657319940     -0.23662724897661     -0.21440183352846
  C   -0.18909829618547      0.04894535241673      0.03474458876287
  H   1.45614662763187     -1.26532410975188     -0.15936372439008
  C   2.07766286941930      0.75552058796237     -0.55200990496327
  N   2.89471144870245      1.55568706612997     -0.83106100698849
  C   -1.20609023786291     -0.99622718836148      0.39121383292996
  H   -1.64432302957714     -0.78104175420844      1.36893221565789
  H   -0.75056670962315     -1.98697768141736      0.41803973423683
  H   -2.01910691825441     -0.99898990166280     -0.33907007510444
  C   -0.65275067325753      1.40417644468612     -0.03547052115442
  N   -1.07865165419240      2.50085843318337     -0.08055330545840
