11
Coordinates from ORCA-job run
  C   1.19625441848643      0.33237580458815      0.11418462118857
  C   -0.14743686065340      0.33438890789848      0.29225488570406
  H   1.82406665731869      1.05881924195603      0.62131142857570
  C   1.84236915383691     -0.61071680965563     -0.73866631535143
  N   2.38162919908279     -1.38663957443120     -1.44070263828604
  C   -1.11001122421743     -0.61657596599056     -0.35579440770433
  H   -0.58809574478695     -1.32446165158952     -1.00017988153367
  H   -1.83964209333050     -0.06264661710188     -0.95195405224851
  H   -1.66235335176732     -1.16994130060481      0.40800949475042
  C   -0.70450951599260      1.32333710958898      1.16966645633042
  N   -1.19327063797663      2.12206085534195      1.88287040857480
