11
Coordinates from ORCA-job run
  C   1.10960955288516     -0.26977737127576     -0.17757623391294
  C   -0.18901851893866      0.05436098429570      0.02982892567594
  H   1.41131877101117     -1.31342657713489     -0.17045223962247
  C   2.12939802651281      0.69928053194808     -0.40894195452860
  N   2.98790123515339      1.48134260924323     -0.60127705415272
  C   -1.26176582183041     -0.96671232034364      0.27470639346896
  H   -2.03871553585837     -0.89206824833593     -0.49011962966634
  H   -1.73664417668027     -0.79322988811916      1.24360664324981
  H   -0.84683095701943     -1.97540405685540      0.25990864218930
  C   -0.59467847787521      1.42993250953951      0.02030246529800
  N   -0.97057409736017      2.54570182703827      0.02101404200107
