11
Coordinates from ORCA-job run
  C   1.09116939089424     -0.31015836978278     -0.22049749582745
  C   -0.18585801002497      0.06133932614475      0.03496436514997
  H   1.36778655997708     -1.35917051392127     -0.16200461381644
  C   2.11914187586660      0.61396376254137     -0.56958171692941
  N   2.98567928273131      1.35615506568569     -0.85931206995421
  C   -1.26707678397786     -0.91289470646440      0.40302729830311
  H   -1.68185739973264     -0.66471298783216      1.38317814739593
  H   -0.87760584547820     -1.93116620770299      0.43104975117936
  H   -2.08414881141305     -0.86411211042307     -0.32102626564998
  C   -0.55872907841075      1.44436290163351     -0.03722752244256
  N   -0.90950118043177      2.56739384012136     -0.08256987740831
