13

C	-0.609595	-0.00249	-1.375991
C	0.0	0.0	0.0
Cl	-0.096806	-1.456172	-2.244379
H	1.086213	0.0	0.0
H	-1.697363	0.018989	-1.370243
H	-0.318424	-0.900429	0.530649
N	-0.213686	1.21026	-2.19288
O	-0.859912	1.376916	-3.222835
O	0.686485	1.91996	-1.769484
N	-0.521036	1.137782	0.805341
O	-1.368752	1.872623	0.290007
O	-0.098636	1.238264	1.950724
Br	3.466017	0.0	0.0
