13

C	-0.467537	0.042122	-1.431351
C	0.0	0.0	0.0
Cl	-0.07985	1.488771	-2.358834
H	1.090919	0.0	0.0
H	-0.014366	-0.801297	-1.950059
H	-0.347425	-0.934299	0.44296
N	-1.956226	-0.185228	-1.531672
O	-2.674255	0.460886	-0.775323
O	-2.336315	-1.00381	-2.366597
N	-0.498684	1.075014	0.890493
O	-0.353495	2.238003	0.533769
O	-0.985027	0.714588	1.962526
Br	3.420609	0.0	0.0
