13

C	-0.580635	-0.020331	-1.392504
C	0.0	0.0	0.0
Cl	0.313326	-1.075774	-2.477645
H	1.085736	0.0	0.0
H	-1.618605	-0.351627	-1.401862
H	-0.33818	0.874059	0.554309
N	-0.623835	1.382593	-1.987735
O	-1.025362	1.462632	-3.142326
O	-0.323018	2.328189	-1.26702
N	-0.473119	-1.179561	0.77884
O	-0.111119	-1.226636	1.948174
O	-1.200343	-2.010854	0.229906
Br	3.447549	0.0	0.0
