15

C	-0.448193	-0.36664	-1.381561
C	0.0	0.0	0.0
F	-0.01178	0.516991	-2.314971
H	1.101719	0.0	0.0
H	-0.328856	-0.791475	0.680415
C	-0.073442	-1.729006	-1.793999
N	0.196588	-2.812424	-2.155918
N	-1.987209	-0.316086	-1.436654
O	-2.5705	-1.217574	-0.841666
O	-2.506608	0.647983	-1.985464
C	-0.510018	1.366151	0.433358
H	-0.267871	2.120894	-0.31761
H	-1.58893	1.391189	0.620442
H	0.009333	1.64517	1.35344
H	2.822085	0.0	0.0
