15

C	-0.483041	-0.026815	-1.422005
C	0.0	0.0	0.0
F	-0.113703	-1.162298	-2.070856
H	1.103161	0.0	0.0
H	-0.334278	0.941719	0.443708
C	-1.948626	0.113529	-1.551769
N	-3.119971	0.191384	-1.606001
N	0.115336	1.158157	-2.197663
O	-0.200624	2.261166	-1.767302
O	0.818405	0.913128	-3.162414
C	-0.505075	-1.201768	0.785521
H	-0.06071	-1.170379	1.782951
H	-1.595522	-1.2281	0.889925
H	-0.171917	-2.12867	0.314964
H	2.85541	0.0	0.0
