15

C	0.0	0.0	0.0
C	-0.325002	0.154601	-1.561597
Cl	1.787283	0.0	0.0
H	0.508959	0.741016	-1.957146
C	-0.370632	1.28758	0.632436
N	-0.597396	2.330706	1.123928
N	-0.609404	-1.14851	0.559317
H	-0.426839	-1.169468	1.558521
H	-1.639253	-0.927303	0.418691
N	-1.545215	0.787901	-1.986404
H	-2.298862	0.447924	-1.342945
H	-1.447601	1.781821	-1.810712
C	-0.197773	-1.182752	-2.17044
N	-0.068723	-2.199885	-2.743147
F	-2.892221	0.0	0.0
