15

C	0.0	0.0	0.0
C	-0.529685	-0.023055	-1.445591
Cl	1.803803	0.0	0.0
H	-1.629642	-0.012304	-1.232785
C	-0.347505	1.310747	0.603421
N	-0.545094	2.339579	1.135999
N	-0.533872	-1.108222	0.719894
H	-0.307063	-0.983754	1.702039
H	-1.565706	-0.93242	0.594059
N	-0.136539	-1.232624	-2.143541
H	0.789097	-1.128527	-2.54188
H	-0.793941	-1.407354	-2.893339
C	-0.142813	1.199157	-2.165589
N	0.171324	2.114782	-2.833547
F	-2.774555	0.0	0.0
