15

C	0.0	0.0	0.0
C	-0.454655	0.085687	-1.504172
Cl	1.784472	0.0	0.0
H	0.449966	0.234881	-2.100398
C	-0.352669	1.258515	0.704891
N	-0.523122	2.18745	1.404977
N	-0.523084	-1.165432	0.63641
H	-0.274689	-1.132698	1.620557
H	-1.555414	-0.985941	0.540037
N	-1.327465	1.222532	-1.726975
H	-2.167112	0.988466	-1.158993
H	-1.567431	1.253771	-2.71244
C	-1.000602	-1.217299	-1.945053
N	-1.370346	-2.209707	-2.453918
F	-2.743987	0.0	0.0
