15

C	0.0	0.0	0.0
C	-0.308937	-0.285312	-1.564438
Cl	1.790646	0.0	0.0
H	0.528713	0.151503	-2.115858
C	-0.404328	1.396911	0.235703
N	-0.615734	2.545675	0.356711
N	-0.592614	-0.844406	0.969309
H	-1.620665	-0.653808	0.812732
H	-0.392329	-1.809774	0.722309
N	-1.536117	0.196586	-2.140877
H	-1.429517	1.196096	-2.273713
H	-2.27774	0.072134	-1.405883
C	-0.208309	-1.744257	-1.72831
N	-0.147214	-2.912904	-1.828535
F	-2.877206	0.0	0.0
