15

C	0.0	0.0	0.0
C	-0.330732	-0.105363	-1.55511
Cl	1.846794	0.0	0.0
H	0.53291	0.336999	-2.057643
C	-0.331337	1.376345	0.430444
N	-0.540359	2.472503	0.801151
N	-0.595052	-1.031212	0.755672
H	-1.626403	-0.846943	0.567322
H	-0.421536	-0.866425	1.74237
N	-1.511673	0.538548	-2.06925
H	-2.274824	0.349647	-1.377781
H	-1.337992	1.536949	-2.074145
C	-0.319359	-1.532496	-1.919094
N	-0.284823	-2.644611	-2.291912
F	-2.868362	0.0	0.0
