14
Coordinates from ORCA-job run
  C   -0.44695466753640      0.49530868210751      0.20976052739187
  C   1.05403510479303      0.38022247460079     -0.06271447257120
  F   -0.62813374387000      0.67360411047181      1.57226491044460
  H   1.26001223607474      0.42937534111444     -1.13065448723454
  H   1.58304065821979      1.15835986925588      0.48627141989665
  C   -0.91436447489393      1.71604489399740     -0.47386682620131
  N   -1.27566063198026      2.67803954419471     -1.04188156666393
  C   -1.25435424770179     -0.71146672572384     -0.22708366421453
  H   -2.31159630513835     -0.51736242456348     -0.04503319927230
  H   -1.10125503663849     -0.92279166082605     -1.28614106854063
  H   -0.95151843778024     -1.58131653527950      0.35657517051103
  N   1.55304270511514     -0.93474058126573      0.42470741575553
  O   1.59906074576240     -1.84770403022481     -0.39886097356466
  O   1.83564609557436     -1.01657295785915      1.61665681426343
