14
Coordinates from ORCA-job run
  C   -0.47120353444252      0.48067752684525      0.19331040002065
  C   1.04624734531504      0.40666726418847      0.01231707845953
  F   -0.74072384088298      0.62282512571668      1.54530217756452
  H   1.52142211245400      1.18173408829260      0.61263010720867
  H   1.31667691650998      0.48880936149662     -1.03912781903260
  C   -0.92544857390068      1.70583506811763     -0.49136856419997
  N   -1.27504552424409      2.67167654000584     -1.06010140634346
  C   -1.21949535151496     -0.73428768799429     -0.31936751967067
  H   -2.29056101211743     -0.56962575660734     -0.20004717486892
  H   -0.99533377792471     -0.91782532011040     -1.37090204917415
  H   -0.93188930886129     -1.60966526110669      0.26371828744147
  N   1.54544113194121     -0.90935175752181      0.49657814835212
  O   1.66983605989237     -1.79708394789040     -0.34621638585987
  O   1.75007735777609     -1.01838524343217      1.70227472010267
