14
Coordinates from ORCA-job run
  C   -0.47790105492472      0.45765899379461      0.23382457332135
  C   1.03792433920604      0.42672353715320      0.02757802496376
  F   -0.73074736265326      0.50350155350672      1.59547441434057
  H   1.29162466844426      0.58855745591323     -1.01880135893974
  H   1.50751891609774      1.16648674637290      0.67519869620287
  C   -0.96542170307413      1.71554703386761     -0.36261671936167
  N   -1.33964470523462      2.70874040332221     -0.86489228623833
  C   -1.20909630982143     -0.73557040116490     -0.35003858791080
  H   -0.99420864111466     -0.84418842112499     -1.41380138041372
  H   -2.28168171991824     -0.60119428653819     -0.20925367305346
  H   -0.89722130396644     -1.64170346657779      0.17016210466852
  N   1.56898536506604     -0.91026695596869      0.40957280259090
  O   1.70086757693567     -1.73185344510806     -0.49669755770747
  O   1.78800193495775     -1.10243874744785      1.60229094753722
