14
Coordinates from ORCA-job run
  C   -0.59018652071826      0.26162461287157      0.40467540814485
  C   0.82799874550202     -0.13833677344282      0.82070518726728
  F   -1.30921340326600      0.27580831962419      1.59711128632121
  H   0.79547236184483     -1.13127456678756      1.26692395318828
  H   1.23487699902217      0.59738441586076      1.51219195689028
  C   -0.60822241511444      1.62815763162533     -0.14480426837159
  N   -0.64633875604278      2.71074801940583     -0.59770081487230
  C   -1.25391424503293     -0.71267861657237     -0.54566346143847
  H   -0.75292946251043     -0.72593877210127     -1.51341732172359
  H   -2.29365998846655     -0.41433274006973     -0.68619325537158
  H   -1.22222565507046     -1.71528330520078     -0.11635037031851
  N   1.72411242010176     -0.19937395736899     -0.36479064398148
  O   2.33190290100751      0.82819617146038     -0.65668332675099
  O   1.76232701874359     -1.26570043930455     -0.97700432898341
