14
Coordinates from ORCA-job run
  C   -0.44666452192699      0.24112520279501      0.16100056342973
  C   0.83504772634551     -0.54342662752851     -0.07594698069550
  F   -0.51105703821432      0.52031806515792      1.52018171468582
  H   1.03852609299518     -0.65585695904604     -1.14251088236474
  H   0.76851219248434     -1.51567080723331      0.40911575449342
  C   -0.48028445786548      1.51587510832164     -0.57688783359352
  N   -0.61114560635642      2.49514191142474     -1.21081081622181
  C   -1.65972092799813     -0.59411881499505     -0.21273090927339
  H   -1.65103937178406     -0.83962265291537     -1.27620472960383
  H   -1.66064955942258     -1.51358244454619      0.37527359158448
  H   -2.56610694704423     -0.03062425070336      0.01048143388116
  N   2.01858461598418      0.14084609223353      0.52883898914104
  O   2.74627416872701     -0.54421455255142      1.24062867621073
  O   2.17872363407598      1.32381072958643      0.24857142832640
