14
Coordinates from ORCA-job run
  C   -0.56552376074427      0.28448261410687      0.42446928021009
  C   0.83753928657417     -0.20169957042327      0.79765543942418
  F   -1.25523996804793      0.31003932734502      1.63353622642042
  H   0.76040290353631     -1.20159582179276      1.22240985093516
  H   1.29934761103106      0.49465159646287      1.49547042904042
  C   -0.52110334765202      1.66218944910416     -0.09507032687311
  N   -0.51007083960851      2.75527711381927     -0.52357833487474
  C   -1.30298664430019     -0.63043172189585     -0.53072155221687
  H   -2.32759871488648     -0.27285085261147     -0.64072515431435
  H   -0.82545854858493     -0.65002398910876     -1.51012979813508
  H   -1.31684232755379     -1.64246116107286     -0.12316878443924
  N   1.70209883321722     -0.28416866777843     -0.40957865582789
  O   1.66878188221262     -1.33711666288450     -1.04497973200852
  O   2.35765363480675      0.71570834672970     -0.69458888734047
