14
Coordinates from ORCA-job run
  C   -0.45249272988548      0.44671538745987      0.29348832539985
  C   1.03941309141869      0.42083157323419     -0.04464732003268
  F   -0.58585796202593      0.42766584150407      1.67270264412324
  H   1.20144405080788      0.62663448676121     -1.10146223604961
  H   1.56778776868266      1.13108909251151      0.59047056701024
  C   -0.98028224828726      1.73407245603160     -0.19638638938506
  N   -1.39021339827008      2.75284231525407     -0.61193580145980
  C   -1.24112715819854     -0.71456575279277     -0.27991483794339
  H   -1.12269701331242     -0.77272143580090     -1.36258914358922
  H   -0.89085727826735     -1.64559997443617      0.16673134399289
  H   -2.29572713072757     -0.58335244319172     -0.03692278587081
  N   1.59364581344026     -0.93242261231454      0.23279723946535
  O   1.63772879409972     -1.71613780631719     -0.71475116711914
  O   1.92023540052541     -1.17405112790321      1.39141956145814
