14
Coordinates from ORCA-job run
  C   -0.47770087638926      0.41597220524292      0.29849602103986
  C   1.02880968648560      0.44705300345268      0.03416951444020
  F   -0.67662020111607      0.30469877821625      1.66555884489327
  H   1.50695621056688      1.12599017181924      0.73942926477846
  H   1.23705821697656      0.72588975177213     -0.99749454993452
  C   -1.01604459470128      1.71951019139031     -0.13409856415385
  N   -1.43269775322559      2.75318705354839     -0.50355166122655
  C   -1.20676742661055     -0.72381280140903     -0.38601910583979
  H   -0.85441204701503     -1.67359092435260      0.01757244658033
  H   -1.03449144347911     -0.70873238624608     -1.46294525925680
  H   -2.27504547724010     -0.63323017089712     -0.18822258523350
  N   1.60427664745108     -0.90849483881931      0.25111149305942
  O   1.71535330063758     -1.62668396430809     -0.74174378557159
  O   1.87932575765929     -1.21875606940969      1.40673792642505
