14
Coordinates from ORCA-job run
  C   -0.47901567911358      0.43736399422168      0.26791020302235
  C   1.04594858895213      0.37983130534477      0.15745589927212
  F   -0.82400133245441      0.29556002821453      1.60265793877153
  H   1.37635632343060      0.68557135007863     -0.83386027749878
  H   1.48935308304052      0.99692681286931      0.93823132407916
  C   -0.89065638824849      1.78542437887111     -0.16680608565037
  N   -1.20845873091189      2.85271059973017     -0.53895052618183
  C   -1.20080950939494     -0.63126685932756     -0.52977881226663
  H   -0.91772735777688     -0.59282794924369     -1.58243654825796
  H   -2.27642651085656     -0.47939280761565     -0.43754671872668
  H   -0.94968574061608     -1.61390419711760     -0.12909346165778
  N   1.51114007278111     -1.01847520545820      0.36705056487514
  O   1.63305192656347     -1.39644165593357      1.52884336606513
  O   1.69093125460500     -1.69807979463394     -0.64267686584539
