14
Coordinates from ORCA-job run
  C   -0.43945342320436      0.53577273731912      0.10413303502151
  C   1.06955659377934      0.33644373308822     -0.05051071719589
  F   -0.69470010960898      0.92806871845009      1.40840231871524
  H   1.59530195714496      1.17247995938106      0.40950445568072
  H   1.34033147341620      0.21788907635971     -1.09840397952843
  C   -0.81856592377359      1.64833202091076     -0.78731674847261
  N   -1.10940983272624      2.52031450132878     -1.51783797183055
  C   -1.26422796646538     -0.70096639054394     -0.19497804193281
  H   -1.03036509753679     -1.47766948219437      0.53372543055278
  H   -1.05526159102139     -1.07838840747876     -1.19674237406981
  H   -2.32247543209185     -0.45178805090617     -0.11456985051524
  N   1.48721756961933     -0.90415075310225      0.65808815482686
  O   1.55407798973948     -1.93026829076183     -0.01752730541892
  O   1.68797379272926     -0.81506937185042      1.86603359416713
