18

C	-0.285973	-0.090646	-1.497795
C	0.0	0.0	0.0
F	-1.577806	-0.481999	-1.776851
H	1.094312	0.0	0.0
N	-0.176155	1.323895	-2.057926
O	0.954923	1.744985	-2.27447
O	-1.217299	1.957559	-2.212919
C	0.721273	-0.978075	-2.181361
H	0.668446	-0.879667	-3.267948
H	0.497802	-2.00946	-1.899769
H	1.703401	-0.70577	-1.779566
C	-0.468367	-1.228282	0.618378
N	-0.845957	-2.20863	1.147677
C	-0.560691	1.232112	0.703526
H	-0.028589	2.118837	0.353389
H	-1.633225	1.365201	0.53625
H	-0.377271	1.144192	1.775954
F	2.594453	0.0	0.0
