18

C	-0.441422	0.055966	-1.452263
C	0.0	0.0	0.0
F	-0.119735	1.282381	-1.967504
H	1.095489	0.0	0.0
N	0.359036	-0.963317	-2.259423
O	0.999311	-0.568692	-3.222545
O	0.227664	-2.129886	-1.903146
C	-1.903167	-0.208934	-1.746228
H	-2.50598	0.539151	-1.225568
H	-2.081161	-0.118737	-2.821346
H	-2.187617	-1.203972	-1.40452
C	-0.550684	-1.149566	0.686534
N	-1.027106	-2.039835	1.291521
C	-0.362565	1.28635	0.749161
H	0.164002	2.117953	0.282061
H	-1.4376	1.50027	0.786128
H	0.010895	1.192297	1.770194
F	2.523763	0.0	0.0
