18

C	-0.396256	-0.008364	-1.469572
C	0.0	0.0	0.0
F	-0.162784	1.232093	-2.000916
H	1.095488	0.0	0.0
N	0.527518	-0.968703	-2.216977
O	1.181239	-0.540861	-3.157154
O	0.478161	-2.133602	-1.835157
C	-1.814393	-0.410504	-1.811512
H	-2.010335	-1.429483	-1.48146
H	-1.965053	-0.333315	-2.891435
H	-2.504431	0.270383	-1.308699
C	-0.543639	-1.141445	0.70445
N	-1.001921	-2.019765	1.340513
C	-0.405616	1.302448	0.693539
H	-1.481805	1.511016	0.660496
H	0.14174	2.124703	0.234368
H	-0.095179	1.240418	1.738087
F	2.522372	0.0	0.0
