18

C	-0.442981	-0.041073	-1.480083
C	0.0	0.0	0.0
Br	-0.033612	1.666316	-2.390002
H	1.099557	0.0	0.0
C	0.294515	-1.146189	-2.22789
H	0.019189	-1.155682	-3.284193
H	0.0348	-2.098771	-1.765609
H	1.367754	-0.973097	-2.116962
C	-1.895426	-0.203461	-1.560641
N	-3.062479	-0.347388	-1.587154
N	-0.422545	-1.286476	0.569063
H	0.345764	-1.670129	1.105414
H	-1.220647	-1.163301	1.182298
C	-0.531686	1.185138	0.789013
H	-0.175277	2.135111	0.391911
H	-1.628993	1.193778	0.796264
H	-0.17642	1.097361	1.818946
Cl	3.439486	0.0	0.0
