18

C	-0.356582	0.059874	-1.491424
C	0.0	0.0	0.0
Br	-2.320685	0.361502	-1.735344
H	1.098858	0.0	0.0
C	0.40428	1.151536	-2.233167
H	0.10907	2.136923	-1.870558
H	1.470943	0.999951	-2.032878
H	0.210634	1.099494	-3.305859
C	-0.106051	-1.235413	-2.123569
N	0.10321	-2.229528	-2.714495
N	-0.473158	-1.250048	0.57795
H	-1.278132	-1.091451	1.170413
H	0.268281	-1.659292	1.132939
C	-0.43187	1.230175	0.788909
H	-0.101946	2.162115	0.325438
H	-1.519358	1.265573	0.909685
H	0.033118	1.174656	1.776303
Cl	3.399499	0.0	0.0
