18

C	-0.536891	0.006732	-1.442645
C	0.0	0.0	0.0
Br	0.207971	-1.547754	-2.415491
H	1.100774	0.0	0.0
C	-2.058434	-0.090598	-1.521159
H	-2.503793	0.806165	-1.083524
H	-2.384951	-0.173246	-2.558644
H	-2.377355	-0.962407	-0.952638
C	-0.084442	1.193954	-2.164112
N	0.17699	2.190771	-2.730319
N	-0.512986	-1.202073	0.681776
H	-0.31797	-1.075179	1.669955
H	0.075454	-1.979189	0.393967
C	-0.47187	1.234495	0.759908
H	-1.542981	1.186412	0.978066
H	-0.248677	2.153564	0.215125
H	0.074461	1.283071	1.705819
Cl	3.457084	0.0	0.0
