18

C	-0.538018	5e-06	-1.442957
C	0.0	0.0	0.0
Br	0.200183	-1.564923	-2.405115
H	1.100779	0.0	0.0
C	-2.060399	-0.090295	-1.520807
H	-2.38513	-0.953101	-0.941217
H	-2.501285	0.81588	-1.0965
H	-2.386607	-0.183539	-2.557627
C	-0.082435	1.180249	-2.174727
N	0.210161	2.177138	-2.72563
N	-0.51436	-1.197885	0.687545
H	0.081329	-1.974495	0.415081
H	-0.335506	-1.060651	1.677737
C	-0.468743	1.239736	0.753446
H	0.077161	1.290403	1.69964
H	-0.240309	2.154971	0.203924
H	-1.540593	1.197573	0.970394
Cl	3.45495	0.0	0.0
