18

C	-0.34593	0.018105	-1.495877
C	0.0	0.0	0.0
Br	-2.28814	0.341783	-1.804301
H	1.10525	0.0	0.0
C	0.454299	1.071906	-2.254069
H	0.280548	0.988611	-3.32822
H	1.514275	0.919076	-2.025854
H	0.158384	2.070159	-1.930376
C	-0.095211	-1.302835	-2.072648
N	0.119189	-2.365105	-2.529054
N	-0.557654	-1.199166	0.630646
H	0.041871	-1.985105	0.394354
H	-0.470087	-1.084013	1.635012
C	-0.473313	1.232472	0.749134
H	-0.004022	1.235593	1.7372
H	-1.559429	1.219577	0.869004
H	-0.174309	2.155243	0.250913
Cl	3.444713	0.0	0.0
