16

C	0.0	0.0	0.0
C	-0.445251	0.161476	-1.442671
Br	2.065211	0.0	0.0
H	-0.154419	1.168138	-1.784648
H	-1.539916	0.130289	-1.371947
N	-0.45391	1.083109	0.75028
H	-0.166632	1.98575	0.403757
H	-0.314441	0.993925	1.744725
C	-0.442432	-1.312361	0.600438
H	-0.07539	-2.140695	-0.001699
H	-1.538214	-1.296329	0.597875
H	-0.075754	-1.412268	1.62568
N	0.030212	-0.915549	-2.298593
H	0.977266	-0.723649	-2.599826
H	-0.564568	-0.974554	-3.114469
Cl	-3.991178	0.0	0.0
