16

C	0.0	0.0	0.0
C	-0.294362	-0.205428	-1.511663
Br	1.98434	0.0	0.0
H	0.144207	-1.170014	-1.791403
H	0.269028	0.567629	-2.041389
N	-0.488879	1.291022	0.417876
H	-1.501397	1.263069	0.278466
H	-0.341701	1.395161	1.417025
C	-0.479415	-1.154561	0.862535
H	-0.160676	-1.018003	1.899732
H	-1.574578	-1.153259	0.8345
H	-0.09918	-2.114268	0.503683
N	-1.660762	-0.156333	-1.968978
H	-2.054737	0.766915	-1.846003
H	-2.280375	-0.758111	-1.439182
Cl	-4.143829	0.0	0.0
