16

C	0.0	0.0	0.0
C	-0.463325	0.054055	-1.445567
Br	2.050861	0.0	0.0
H	-1.556765	0.027173	-1.360011
H	-0.179099	1.031535	-1.866207
N	-0.454244	1.139423	0.673168
H	-0.149674	2.009283	0.262076
H	-0.289072	1.121143	1.667997
C	-0.445208	-1.262014	0.699902
H	-0.098424	-2.13414	0.14944
H	-0.060017	-1.29672	1.722466
H	-1.540629	-1.234025	0.714428
N	0.002077	-1.084887	-2.224464
H	-0.628363	-1.233141	-3.000869
H	0.927353	-0.901523	-2.590439
Cl	-4.005102	0.0	0.0
