16

C	0.0	0.0	0.0
C	-0.431699	-0.140805	-1.458483
Br	1.991869	0.0	0.0
H	-1.526465	-0.150853	-1.410597
H	-0.123543	0.77616	-1.989204
N	-0.467714	1.218329	0.601641
H	-0.355411	1.980438	-0.059926
H	-1.473428	1.087266	0.738865
C	-0.442479	-1.183409	0.83537
H	-0.103355	-1.053207	1.864015
H	-1.536039	-1.2102	0.811376
H	-0.048408	-2.108809	0.419169
N	0.035776	-1.372158	-2.086907
H	-0.560112	-1.585998	-2.876757
H	0.980006	-1.244393	-2.427191
Cl	-3.772616	0.0	0.0
