16

C	0.0	0.0	0.0
C	-0.45585	0.114972	-1.45064
Br	1.98239	0.0	0.0
H	-1.549349	0.077127	-1.401759
H	-0.160636	1.11181	-1.805297
N	-0.465768	1.172856	0.696576
H	-1.483457	1.176257	0.573533
H	-0.296976	1.052131	1.690723
C	-0.426054	-1.320505	0.620869
H	-0.056931	-1.393165	1.648153
H	-1.520072	-1.325167	0.625804
H	-0.056367	-2.162802	0.036748
N	0.016777	-0.989428	-2.279939
H	-0.589029	-1.073853	-3.085912
H	0.95347	-0.791669	-2.608358
Cl	-3.768058	0.0	0.0
