16

C	0.0	0.0	0.0
C	-0.332664	0.178522	-1.496327
Br	2.042503	0.0	0.0
H	0.225796	-0.575646	-2.058357
H	0.071425	1.153323	-1.800329
N	-0.500435	1.081368	0.738005
H	-0.151205	1.977235	0.430163
H	-0.418131	0.978148	1.739061
C	-0.487624	-1.310085	0.573368
H	-0.135722	-2.149607	-0.028696
H	-1.581789	-1.277156	0.575094
H	-0.131622	-1.4469	1.597584
N	-1.727092	0.103274	-1.852408
H	-2.322018	0.645263	-1.230305
H	-2.081418	-0.840504	-1.763014
Cl	-4.457979	0.0	0.0
