15

C	-0.074778	0.054216	-1.520766
C	0.0	0.0	0.0
Cl	-1.745258	0.444293	-2.190986
H	1.108475	0.0	0.0
H	0.09755	-0.960679	-1.901405
N	0.887835	1.030933	-1.958074
H	1.743794	0.822684	-1.403997
H	1.092383	0.907052	-2.941675
N	-0.571385	-1.164207	0.63394
H	-1.526454	-1.286986	0.311473
H	-0.02506	-1.977448	0.377407
N	-0.591011	1.199255	0.5881
H	-0.289799	1.979562	0.011054
H	-0.137483	1.315876	1.488938
F	2.756205	0.0	0.0
