15

C	-0.244554	-0.150566	-1.505502
C	0.0	0.0	0.0
Cl	-0.171833	1.506821	-2.337126
H	1.10253	0.0	0.0
H	-1.248179	-0.500425	-1.765637
N	0.772307	-1.036446	-1.952838
H	1.660767	-0.755401	-1.504928
H	0.853573	-1.056454	-2.958945
N	-0.500737	-1.246975	0.630552
H	-0.292039	-1.99999	-0.020177
H	0.126668	-1.41213	1.413795
N	-0.607902	1.150611	0.628284
H	0.100624	1.628355	1.16805
H	-1.326515	0.809506	1.254871
F	2.747696	0.0	0.0
