15

C	-0.141535	-0.138256	-1.530706
C	0.0	0.0	0.0
Cl	-0.220712	1.618357	-2.358605
H	1.104175	0.0	0.0
H	-1.099091	-0.534494	-1.883406
N	0.970904	-0.868173	-1.945638
H	1.8299	-0.569022	-1.429863
H	1.085928	-0.931587	-2.944938
N	-0.449459	-1.212383	0.670389
H	-1.381834	-1.456164	0.346949
H	0.184263	-1.955148	0.399677
N	-0.737513	1.113645	0.574628
H	-0.347158	1.973238	0.207393
H	-0.519761	1.084196	1.56506
F	2.78444	0.0	0.0
