15

C	-0.552779	0.019421	-1.415279
C	0.0	0.0	0.0
Cl	0.053638	-1.47521	-2.331343
H	1.098265	0.0	0.0
H	-0.120773	0.84562	-1.979587
N	-1.974953	0.080501	-1.392339
H	-2.273958	-0.657357	-0.759765
H	-2.371922	-0.06772	-2.310617
N	-0.606382	-1.154788	0.700627
H	0.048305	-1.925059	0.600078
H	-0.59371	-0.887538	1.679188
N	-0.397959	1.222851	0.696145
H	0.389052	1.858397	0.640043
H	-1.215216	1.639561	0.26471
F	2.69735	0.0	0.0
