15

C	-0.118857	0.029979	-1.527442
C	0.0	0.0	0.0
Cl	-1.762164	0.625659	-2.130284
H	1.1067	0.0	0.0
H	-0.108137	-0.996346	-1.91603
N	0.928929	0.879376	-2.009707
H	1.765762	0.677698	-1.424716
H	1.135789	0.679041	-2.978919
N	-0.669422	-1.175581	0.554804
H	-0.637301	-1.044552	1.559858
H	-0.079758	-1.978783	0.356527
N	-0.472495	1.178849	0.692881
H	-1.385358	1.4346	0.327125
H	0.170132	1.931514	0.477287
F	2.764054	0.0	0.0
