15

C	-0.531913	-0.035016	-1.425406
C	0.0	0.0	0.0
Cl	-0.105798	-1.586062	-2.2467
H	1.098436	0.0	0.0
H	-0.001668	0.724055	-2.00839
N	-1.973731	0.098786	-1.427298
H	-2.14037	0.912467	-0.840101
H	-2.305505	0.296781	-2.364373
N	-0.516504	-1.079494	0.827081
H	-1.324878	-1.503249	0.383737
H	0.214632	-1.776712	0.891648
N	-0.455601	1.312923	0.54285
H	-0.792567	1.099369	1.476426
H	0.393225	1.856311	0.662344
F	2.694503	0.0	0.0
