15

C	-0.145511	-0.135183	-1.537989
C	0.0	0.0	0.0
Cl	-0.299248	1.62646	-2.335566
H	1.104528	0.0	0.0
H	-1.091213	-0.568007	-1.872179
N	0.981468	-0.833692	-1.962137
H	1.837891	-0.533	-1.444701
H	1.095516	-0.912281	-2.959546
N	-0.601103	-1.222132	0.557822
H	-0.411804	-1.177165	1.554721
H	-0.0483	-1.995804	0.196523
N	-0.574277	1.132308	0.676681
H	-1.499381	1.319863	0.306774
H	0.00431	1.937054	0.479302
F	2.791988	0.0	0.0
