15

C	-0.271819	-0.036209	-1.510753
C	0.0	0.0	0.0
Cl	-0.300019	1.646176	-2.234086
H	1.093953	0.0	0.0
H	-1.256257	-0.451723	-1.744422
N	0.764714	-0.799381	-2.163557
H	1.634814	-0.575531	-1.654957
H	0.55711	-1.769524	-1.948005
N	-0.420924	-1.335851	0.478157
H	-1.147437	-1.176253	1.167348
H	0.376362	-1.721182	0.971572
N	-0.59331	1.072113	0.7877
H	-1.184991	1.652153	0.206011
H	0.165433	1.664659	1.101837
F	2.722402	0.0	0.0
