16

C	-0.408947	-0.005267	-1.448374
C	0.0	0.0	0.0
Cl	0.291827	1.407783	-2.332257
H	1.095464	0.0	0.0
N	-0.011155	-1.243062	-2.002149
H	0.975774	-1.385595	-1.786823
H	-0.150944	-1.231943	-3.00595
N	-1.935496	0.075641	-1.657858
O	-2.318639	0.058818	-2.822984
O	-2.646653	0.076618	-0.662119
C	-0.409686	-1.198846	0.698084
N	-0.683827	-2.18124	1.283607
N	-0.382138	1.17676	0.788186
O	-0.083851	1.123156	1.984411
O	-0.866236	2.158648	0.220719
H	2.426033	0.0	0.0
