16

C	-0.532264	-0.014177	-1.417854
C	0.0	0.0	0.0
Cl	0.254195	-1.355237	-2.302652
H	1.090019	0.0	0.0
N	-1.931775	-0.155799	-1.522235
H	-2.202281	-0.094586	-2.498325
H	-2.346531	0.622246	-1.016139
N	-0.021695	1.261489	-2.159818
O	0.995583	1.797954	-1.756717
O	-0.681834	1.588037	-3.143492
C	-0.390576	-1.187793	0.727542
N	-0.694116	-2.149605	1.334524
N	-0.418801	1.167721	0.730599
O	-1.08416	2.053531	0.140329
O	0.025624	1.273357	1.889112
H	2.331707	0.0	0.0
