16

C	-0.239257	0.068504	-1.49224
C	0.0	0.0	0.0
Cl	-1.991981	0.10418	-1.948488
H	1.107015	0.0	0.0
N	0.450274	1.143047	-2.043697
H	1.379331	1.179962	-1.606952
H	0.520168	1.026937	-3.046527
N	0.248264	-1.291151	-2.141258
O	0.336618	-2.292963	-1.446497
O	0.50653	-1.219538	-3.338172
C	-0.610339	-1.096364	0.710939
N	-1.039194	-1.971105	1.372086
N	-0.383967	1.279643	0.654172
O	-1.338206	1.274684	1.440188
O	0.328747	2.253733	0.412948
H	2.462274	0.0	0.0
