16

C	-0.62039	-0.182117	-1.390599
C	0.0	0.0	0.0
Cl	0.039576	-1.70518	-2.054574
H	1.099187	0.0	0.0
N	-2.042008	-0.220622	-1.481258
H	-2.382766	-0.89192	-0.803341
H	-2.388446	0.703352	-1.249946
N	-0.124019	0.930604	-2.337026
O	-0.959774	1.491545	-3.030915
O	1.079627	1.130539	-2.337232
C	-0.373421	-1.105603	0.851588
N	-0.676114	-2.045335	1.494074
N	-0.384136	1.232258	0.606563
O	-0.121428	1.367919	1.818435
O	-0.784189	2.158825	-0.142639
H	2.288467	0.0	0.0
