16

C	-0.438638	-0.115128	-1.452398
C	0.0	0.0	0.0
Cl	0.320469	-1.640205	-2.057106
H	1.107038	0.0	0.0
N	-1.819512	-0.035253	-1.722938
H	-2.067607	-0.53759	-2.563973
H	-2.381019	-0.309224	-0.931499
N	0.192148	1.02913	-2.273929
O	0.233792	0.881502	-3.487269
O	0.482149	2.041218	-1.651795
C	-0.517062	-1.11572	0.757252
N	-0.908783	-2.023826	1.396686
N	-0.497261	1.244873	0.695057
O	0.316904	1.895572	1.331324
O	-1.704672	1.488163	0.62073
H	2.50546	0.0	0.0
