16

C	-0.598737	-0.15939	-1.384129
C	0.0	0.0	0.0
Cl	0.210185	-1.642352	-2.128766
H	1.106985	0.0	0.0
N	-1.995626	-0.231296	-1.375617
H	-2.371832	-0.321765	-2.31023
H	-2.308949	-0.982032	-0.774588
N	-0.1791	0.952762	-2.352993
O	0.961739	1.36759	-2.265599
O	-1.013945	1.269485	-3.195114
C	-0.397785	-1.117323	0.824587
N	-0.701642	-2.073755	1.440513
N	-0.380684	1.241446	0.631218
O	-0.243761	1.296702	1.864798
O	-0.650887	2.212623	-0.096103
H	2.326059	0.0	0.0
