14

C	-0.588445	-0.011798	-1.398595
C	0.0	0.0	0.0
Br	0.049111	-1.554035	-2.364533
H	1.107809	0.0	0.0
H	-1.675871	-0.038596	-1.406161
N	-0.215594	1.2266	-2.177264
O	-0.897902	1.436734	-3.175701
O	0.70809	1.908794	-1.760978
C	-0.478413	-1.155784	0.748777
N	-0.894496	-2.074228	1.352473
N	-0.484502	1.218649	0.749225
O	0.011648	1.412207	1.849067
O	-1.356081	1.904859	0.21393
Cl	3.139494	0.0	0.0
