14

C	-0.482955	0.003878	-1.437825
C	0.0	0.0	0.0
Br	0.514509	1.151178	-2.604057
H	1.094585	0.0	0.0
H	-0.368696	-1.006167	-1.838166
N	-1.983396	0.28367	-1.536151
O	-2.433321	0.663714	-2.607359
O	-2.636696	0.017187	-0.532277
C	-0.446628	-1.184809	0.718936
N	-0.75339	-2.179768	1.262373
N	-0.412218	1.231426	0.751652
O	-0.301067	1.186368	1.969581
O	-0.775298	2.200173	0.091633
Cl	3.122033	0.0	0.0
