14

C	-0.649662	-0.121933	-1.370084
C	0.0	0.0	0.0
Br	-0.21452	-1.825635	-2.16683
H	1.106882	0.0	0.0
H	-1.734322	-0.043953	-1.320408
N	-0.224428	0.945312	-2.349526
O	-1.124664	1.371406	-3.068748
O	0.952644	1.261589	-2.375516
C	-0.481516	-1.07033	0.865336
N	-0.907353	-1.937101	1.535309
N	-0.387064	1.310669	0.642547
O	-0.730034	2.222375	-0.110473
O	-0.264446	1.389947	1.856814
Cl	3.125974	0.0	0.0
