14

C	-0.415726	0.098754	-1.450549
C	0.0	0.0	0.0
Br	-2.337792	0.158578	-1.697682
H	1.095785	0.0	0.0
H	0.00867	0.995186	-1.892518
N	0.121067	-1.065152	-2.239711
O	0.79011	-0.766211	-3.223798
O	-0.175654	-2.193911	-1.866104
C	-0.555417	-1.119453	0.734324
N	-1.004447	-2.029529	1.326042
N	-0.354626	1.294451	0.690405
O	-0.674109	1.237343	1.871692
O	-0.230411	2.318719	0.026324
Cl	3.082628	0.0	0.0
