14

C	0.0	0.0	0.0
C	-0.471873	-0.157746	-1.431889
F	1.389505	0.0	0.0
H	-0.24122	-1.196522	-1.707179
H	-1.556704	-0.030046	-1.430681
C	-0.326696	1.361313	0.519801
N	-0.52637	2.415247	0.99685
N	-0.495893	-1.065709	0.810009
H	-0.327722	-0.846581	1.785477
H	-1.513434	-1.070776	0.67904
N	0.158435	0.851776	-2.273093
H	-0.37588	0.96141	-3.123991
H	1.095639	0.56311	-2.517794
Cl	-3.631963	0.0	0.0
