14

C	0.0	0.0	0.0
C	-0.412726	-0.002474	-1.500667
F	1.408416	0.0	0.0
H	0.52058	0.214078	-2.031277
H	-0.699872	-1.031451	-1.737069
C	-0.305978	1.320023	0.623659
N	-0.472484	2.363416	1.136582
N	-0.512234	-1.12086	0.701097
H	-0.395874	-0.995441	1.700419
H	-1.518721	-1.155014	0.514015
N	-1.440017	0.894963	-1.971328
H	-1.190136	1.855083	-1.760656
H	-2.318564	0.694519	-1.491914
Cl	-3.776983	0.0	0.0
