14

C	0.0	0.0	0.0
C	-0.421693	-0.173762	-1.455375
F	1.416605	0.0	0.0
H	-1.510647	-0.084241	-1.466474
H	0.017358	0.637982	-2.052269
C	-0.357348	1.349329	0.495045
N	-0.512749	2.443329	0.89051
N	-0.479258	-0.998864	0.89075
H	-0.427455	-1.868702	0.365927
H	-1.474239	-0.802694	1.026552
N	-0.017959	-1.508756	-1.886234
H	-0.65947	-1.858691	-2.581475
H	0.912771	-1.489289	-2.276798
Cl	-3.586697	0.0	0.0
