14

C	0.0	0.0	0.0
C	-0.461123	-0.162344	-1.43528
F	1.389555	0.0	0.0
H	-0.193128	-1.190561	-1.718868
H	-1.549495	-0.069275	-1.434654
C	-0.330141	1.361757	0.513317
N	-0.534087	2.416313	0.987435
N	-0.498031	-1.062777	0.808184
H	-0.308297	-0.858548	1.783697
H	-1.518106	-1.051334	0.691734
N	0.139439	0.875424	-2.265055
H	-0.399653	0.983402	-3.112832
H	1.084522	0.616708	-2.515107
Cl	-3.611593	0.0	0.0
