14

C	0.0	0.0	0.0
C	-0.432046	0.0639	-1.487939
F	1.412806	0.0	0.0
H	0.401556	-0.372229	-2.045168
H	-0.506857	1.123156	-1.772785
C	-0.337333	1.242592	0.732511
N	-0.527605	2.24024	1.321339
N	-0.486451	-1.159423	0.630893
H	-1.188241	-1.593465	0.038271
H	-0.845339	-0.994409	1.558257
N	-1.620827	-0.731596	-1.713902
H	-2.454902	-0.332632	-1.267147
H	-1.799603	-0.83125	-2.703112
Cl	-4.25321	0.0	0.0
