14

C	0.0	0.0	0.0
C	-0.468321	-0.260467	-1.426854
F	1.374427	0.0	0.0
H	-1.540708	-0.05399	-1.463059
H	0.062162	0.456421	-2.06247
C	-0.337664	1.406108	0.383076
N	-0.509399	2.531991	0.671745
N	-0.528898	-0.982605	0.890438
H	-1.551697	-0.908291	0.800564
H	-0.27781	-0.750205	1.846531
N	-0.114461	-1.632275	-1.820653
H	-0.239829	-2.212062	-0.996515
H	-0.812029	-1.941403	-2.487415
Cl	-3.594959	0.0	0.0
