14

C	0.0	0.0	0.0
C	-0.419025	-0.173831	-1.456409
F	1.417934	0.0	0.0
H	0.021707	0.636459	-2.052566
H	-1.507626	-0.084971	-1.466414
C	-0.360048	1.34642	0.49201
N	-0.532289	2.430609	0.908235
N	-0.476914	-1.00099	0.888985
H	-0.431319	-1.870409	0.363424
H	-1.469629	-0.801957	1.034214
N	-0.020709	-1.511736	-1.88915
H	-0.662224	-1.849298	-2.592504
H	0.912974	-1.495261	-2.276725
Cl	-3.594236	0.0	0.0
