13

C	-0.53928	-0.03778	-1.414472
C	0.0	0.0	0.0
Br	-0.255027	-1.764099	-2.280412
H	1.093105	0.0	0.0
H	0.039074	0.658817	-2.032074
H	-0.285157	1.003365	0.376356
N	-1.97708	0.217706	-1.411572
H	-2.329749	0.190841	-2.361504
H	-2.114216	1.160697	-1.058705
N	-0.503031	-1.0865	0.820523
H	-1.43534	-0.888534	1.154293
H	0.117676	-1.220882	1.606638
Br	3.716492	0.0	0.0
