13

C	-0.459935	-0.065137	-1.445639
C	0.0	0.0	0.0
Br	-0.245467	1.709548	-2.302555
H	1.102144	0.0	0.0
H	-1.533522	-0.253333	-1.514828
H	-0.311926	-0.961541	0.432536
N	0.264876	-1.028681	-2.234607
H	-0.034527	-1.958368	-1.959002
H	1.255848	-0.942203	-2.014807
N	-0.642319	1.065113	0.772163
H	-0.340131	0.95905	1.73481
H	-0.245601	1.944017	0.456942
Br	3.69123	0.0	0.0
