13

C	-0.341397	-0.132764	-1.484823
C	0.0	0.0	0.0
Br	-0.406373	1.786226	-2.306393
H	1.095347	0.0	0.0
H	-1.370723	-0.438303	-1.681798
H	-0.392854	0.922228	0.424813
N	0.576686	-0.980819	-2.104299
H	1.538673	-0.745214	-1.864189
H	0.454088	-1.076051	-3.101528
N	-0.449941	-1.151102	0.778083
H	0.084893	-1.960071	0.485756
H	-1.427977	-1.343575	0.589964
Br	3.665106	0.0	0.0
