12
Coordinates from ORCA-job run
  C   0.44581563656889     -0.33619905800283      0.04488086099495
  C   -0.88151929668084      0.22841994336885      0.57807053222616
  H   0.38403513299834     -1.42869505969600      0.04966165018587
  H   -0.85769164390930      1.32160569873048      0.52992413959645
  H   -1.01910046858755     -0.04782229406610      1.62724496949186
  C   1.53296327698799      0.05585381612330      0.96833414239922
  N   2.40985460713884      0.40479924183066      1.66802132634264
  N   0.64394802118874      0.09288493524718     -1.32785923855227
  H   1.40514516716546     -0.41808084119721     -1.75695690158756
  H   0.87135164090555      1.07978330309778     -1.36221737933494
  C   -2.00963782097355     -0.26798880666869     -0.20640548178468
  N   -2.92316425280257     -0.68456087876739     -0.81269861997770
