12
Coordinates from ORCA-job run
  C   0.52266635409498     -0.31746603693742      0.05052183610145
  C   -0.94690163899229      0.08811793408239     -0.22453608207971
  H   0.52613303252823     -1.32478162501753      0.47953261415831
  H   -0.97597855505147      1.11454785013444     -0.60237396877134
  H   -1.34797581976166     -0.56614853779403     -1.00450122077510
  C   1.09733897020497      0.59195823788901      1.05247268725817
  N   1.53250391868059      1.35469509293991      1.83100702529260
  N   1.37807731499303     -0.33337955305084     -1.12362536142547
  H   1.05797200193052     -1.03191802513097     -1.78292775711650
  H   1.38086833866969      0.57051561353045     -1.58109723503224
  C   -1.78492240576085     -0.01773569628636      0.96756892054848
  N   -2.43878151153573     -0.12740525435904      1.93595854184134
