12
Coordinates from ORCA-job run
  C   0.42752570001685     -0.34529560265589      0.10737330357214
  C   -0.88654508277372      0.34757174284488      0.50553239539603
  H   0.31186539361528     -1.42213326774915      0.26300968083753
  H   -0.80979060480654      1.41976378678069      0.29899388902514
  H   -1.06744716879047      0.23428353213535      1.57806530335798
  C   1.50281808261548      0.12564479898956      1.00726032650103
  N   2.37069633800131      0.53185814081982      1.68700918131130
  N   0.68836874389303     -0.12435242057109     -1.30369346243987
  H   1.43830695724884     -0.72215992872129     -1.62777154497425
  H   0.96319024965361      0.83727571111673     -1.46717719683258
  C   -2.01324257439452     -0.21038936577996     -0.23886465227582
  N   -2.92674603427917     -0.67306712720964     -0.81073722347865
