15

C	-0.458798	-0.010983	-1.44455
C	0.0	0.0	0.0
F	0.026088	1.09787	-2.114474
H	1.091944	0.0	0.0
H	-0.337214	-0.900913	0.51462
C	0.126945	-1.242013	-2.121215
H	-0.104864	-1.208322	-3.187271
H	1.209072	-1.220649	-1.971295
H	-0.284271	-2.157429	-1.695549
C	-1.932978	-0.000553	-1.564375
N	-3.102632	-0.065217	-1.659787
N	-0.50973	1.142313	0.79807
O	-0.358433	1.060327	2.012938
O	-1.034588	2.085851	0.211805
Cl	3.293513	0.0	0.0
