15

C	-0.468875	0.209497	-1.437151
C	0.0	0.0	0.0
F	-1.830336	0.545899	-1.443407
H	1.088836	0.0	0.0
H	-0.398687	-0.919625	0.424536
C	0.311969	1.253509	-2.206132
H	-0.004546	1.249983	-3.251938
H	1.379729	1.026972	-2.12323
H	0.130635	2.231423	-1.764815
C	-0.374973	-1.095846	-2.11908
N	-0.330265	-2.13245	-2.667946
N	-0.466909	1.091237	0.895077
O	-0.301015	2.253759	0.534996
O	-0.970924	0.757108	1.966302
Cl	3.289831	0.0	0.0
