15

C	-0.517656	0.009775	-1.42279
C	0.0	0.0	0.0
F	-0.054116	-1.172789	-2.00785
H	1.088573	0.0	0.0
H	-0.42546	-0.87657	0.494369
C	-2.032683	-0.012055	-1.555151
H	-2.471319	0.907647	-1.167151
H	-2.421162	-0.851178	-0.973766
H	-2.312988	-0.136678	-2.603652
C	0.044261	1.134572	-2.200135
N	0.449643	2.025902	-2.847827
N	-0.42984	1.157796	0.817763
O	0.17527	2.235976	0.593454
O	-1.612532	1.164008	1.229896
Cl	2.909403	0.0	0.0
