9
Coordinates from ORCA-job run
  C   0.07850789027066      0.13899993207381      0.03455748458360
  C   1.24458713529856     -0.50227221211623     -0.07081744143042
  H   2.17584665256945      0.02740816008514      0.08688852973665
  H   1.25783729658971     -1.55682708879061     -0.31560589990897
  C   -0.06706886566802      1.52423634805395      0.35207467498981
  N   -0.13609858414049      2.66795510529170      0.61517159063502
  N   -1.20066972303018     -0.59119818396330     -0.18200058840267
  O   -2.22467432286980      0.07704880100775     -0.08303004006292
  O   -1.12826747901987     -1.78435086164222     -0.43823831014010
