9
Coordinates from ORCA-job run
  C   0.07572530079893      0.14090556119790      0.03299598051487
  C   1.25221395500641     -0.48586580671359     -0.04196935449434
  H   2.17240996467570      0.05618775169765      0.13717932035849
  H   1.28529651533047     -1.54043303155180     -0.28422965695835
  C   -0.09489688114624      1.52573328900553      0.34057974450158
  N   -0.18460725885614      2.66996534943199      0.59509800097220
  N   -1.18847908494469     -0.60849071307581     -0.20422468262247
  O   -2.22715004924809      0.01911852709634     -0.02428564042774
  O   -1.09051246161636     -1.77612092708821     -0.55214371184424
