9
Coordinates from ORCA-job run
  C   0.07030459309631      0.12271871404062      0.08017274916551
  C   1.25985651237689     -0.27564769508265     -0.37624468253838
  H   2.15837996547273      0.26218075338117     -0.10071752935175
  H   1.32636630900566     -1.14049190551099     -1.02422781684653
  C   -0.14139241082027      1.24522603713471      0.93810273612832
  N   -0.26255969710062      2.17792496865756      1.64325819668402
  N   -1.16425968115374     -0.61865351317722     -0.29722280562446
  O   -1.03485379073461     -1.58103959971810     -1.03967549464912
  O   -2.21284180014234     -0.19321775972509      0.17655464703238
