9
Coordinates from ORCA-job run
  C   0.07367264504612      0.11918423954193      0.08308703701584
  C   1.24554912675847     -0.26060161014266     -0.43118687548370
  H   1.29241712666401     -1.11985924853741     -1.08805493095849
  H   2.14950767751561      0.28558493941060     -0.19234711239190
  C   -0.11208846670315      1.23192928187503      0.95965035708286
  N   -0.21267820242357      2.15455781268958      1.68124626102136
  N   -1.17003210008803     -0.62550640882587     -0.25494923256912
  O   -1.05004301705059     -1.64141395777203     -0.92432064499770
  O   -2.21630478971888     -0.14387504823916      0.16687514128085
