9
Coordinates from ORCA-job run
  C   0.07839781992648      0.11997481139722      0.07777544846564
  C   1.22049524290835     -0.26771594618198     -0.49467566366054
  H   1.22285277646449     -1.11166170712840     -1.17282694010490
  H   2.14340067459565      0.25796426764385     -0.28393113783397
  C   -0.05016408018961      1.21528090345505      0.98606870025508
  N   -0.10387471453745      2.12487653750181      1.72887223351139
  N   -1.18933031278704     -0.60416198834949     -0.21280399034454
  O   -2.19156935911773     -0.18272397647894      0.35558777840530
  O   -1.13020804726315     -1.54983290185914     -0.98506642869344
