9
Coordinates from ORCA-job run
  C   0.07027737403274      0.12246390429143      0.08105975726478
  C   1.25913073656002     -0.26271893677467     -0.38856723379163
  H   2.15578370738082      0.27986573880772     -0.11602628591560
  H   1.32696116429647     -1.12156206314915     -1.04421163730355
  C   -0.14298044163454      1.23564388725192      0.95076681397938
  N   -0.26620977928984      2.16052848704569      1.66588027968058
  N   -1.16184880456609     -0.62428108073834     -0.29408600307922
  O   -2.21147389330887     -0.20303557630150      0.18123137516568
  O   -1.02964006347070     -1.58590436043310     -1.03704706600041
