9
Coordinates from ORCA-job run
  C   0.06583568804839      0.14945043240388     -0.00216784304519
  C   1.28012878895403     -0.39924320085910     -0.08409226756846
  H   2.16142992722063      0.22837784144132     -0.12987013362945
  H   1.38370818782710     -1.47664706271105     -0.10568897096249
  C   -0.19624298111787      1.55335761404494      0.03395511903343
  N   -0.35918775486428      2.71733906169836      0.06007197367608
  N   -1.14462248205574     -0.71570812868581      0.06027809442948
  O   -2.22045293429348     -0.13059884831666      0.13289684353534
  O   -0.97059643971878     -1.92532770901588      0.03461718453125
