9
Coordinates from ORCA-job run
  C   0.07771602916006      0.13695397896641      0.04109421074167
  C   1.23938525012313     -0.51912261868557     -0.00638216305500
  H   2.16654392382682     -0.00486036680106      0.21443655377545
  H   1.25423353906194     -1.57033267084251     -0.26482919683667
  C   -0.06696100647131      1.51950787745742      0.37105364925241
  N   -0.13305921168264      2.65969176293238      0.64955241309596
  N   -1.19675546501616     -0.57111633239993     -0.26167973681288
  O   -2.21679531463692      0.10754516548535     -0.20036497875287
  O   -1.12430774436493     -1.75826679611250     -0.54388075140808
