9
Coordinates from ORCA-job run
  C   0.07777582248921      0.13666419367348      0.04333528336434
  C   1.24047532017218     -0.51636060664034     -0.01982626494295
  H   2.16763881651706     -0.00449548663826      0.20611868733249
  H   1.25529109204085     -1.56272340178391     -0.29716258860298
  C   -0.06842517850168      1.51315169322534      0.39691889317415
  N   -0.13619943547779      2.64820200268216      0.69527272793945
  N   -1.19597783819693     -0.56921665003677     -0.26620518109237
  O   -2.21735448713414      0.10603814087802     -0.18968195520006
  O   -1.12222411190876     -1.75125988535972     -0.56876960197206
