9
Coordinates from ORCA-job run
  C   0.05950576243437      0.14671630926892      0.03745470906596
  C   1.25253815299148     -0.23127645396690     -0.42748539947292
  H   1.38305191538298     -1.22851299550314     -0.82824161265805
  H   2.08978671507746      0.45510344594161     -0.40443819348353
  C   -0.23246730202471      1.43191062468187      0.58889682818590
  N   -0.42229927537166      2.50340209337557      1.03373236693717
  N   -1.09113676344849     -0.79743570424008      0.00543358569743
  O   -0.88964724670268     -1.91054303160810     -0.45782692484438
  O   -2.15033195833875     -0.36936428794974      0.45247464057242
