18

C	0.0	0.0	0.0
C	-0.374144	-0.053729	-1.556677
Br	1.955897	0.0	0.0
H	0.566137	-0.106504	-2.111819
N	-0.56447	1.036805	0.802202
H	-1.595499	0.798961	0.690994
H	-0.392925	1.922488	0.336922
C	-0.335531	-1.280568	0.651533
N	-0.519131	-2.320207	1.166484
C	-1.106274	1.21702	-1.978151
H	-0.510569	2.11966	-1.803335
H	-2.047315	1.248742	-1.426105
H	-1.30863	1.168923	-3.053787
C	-1.20178	-1.286161	-1.926313
H	-2.11869	-1.25523	-1.334154
H	-0.649902	-2.212017	-1.741828
H	-1.439543	-1.245298	-2.995744
F	-2.814443	0.0	0.0
