18

C	0.0	0.0	0.0
C	-0.277646	0.031137	-1.565528
Br	1.971593	0.0	0.0
H	0.583903	-0.477854	-2.004348
N	-0.646119	1.04874	0.689416
H	-0.502463	0.918899	1.688039
H	-1.692339	0.779046	0.470357
C	-0.299983	-1.349884	0.531826
N	-0.495602	-2.422569	0.973138
C	-0.265072	1.480479	-2.041337
H	-1.12633	2.008596	-1.632484
H	-0.325506	1.498189	-3.135632
H	0.642742	2.004062	-1.730634
C	-1.49991	-0.708386	-2.105528
H	-1.561118	-1.720089	-1.696182
H	-2.419246	-0.210064	-1.812522
H	-1.389806	-0.787223	-3.195493
F	-2.8601	0.0	0.0
