14
Coordinates from ORCA-job run
  C   0.95189660401533     -0.05012960583705     -0.45671890099682
  C   -0.48826458257531     -0.48555293428311     -0.21358320130810
  Br  0.92809893422986      0.74334981300349     -2.38406360599374
  H   -0.77750967549059     -1.17405511396217     -1.01108820698199
  H   1.56454177715032     -0.92893438735569     -0.65308430815622
  N   1.50028420998227      0.75832283927224      0.52443657385630
  H   0.93517830100809      1.51515426739429      0.87533512148843
  H   2.49834509205278      0.81182685943002      0.62839619692291
  N   -1.45579803752627      0.66695277783843     -0.34536622245233
  O   -1.16903950956092      1.72564296645021      0.20410482457430
  O   -2.49880576900370      0.42138617555901     -0.94689421706067
  N   -0.65618006718598     -0.96342401794591      1.13393626514917
  H   0.14943304837486     -1.49594006333865      1.43375739227914
  H   -1.48218032547074     -1.54459957622511      1.21183228867961
