14
Coordinates from ORCA-job run
  C   0.72872729817683      0.40453161723659     -0.38149041191687
  C   -0.53654219363339     -0.40993619184246     -0.05945423035295
  Br  0.68379020671204      2.12027278028951      0.53063616731923
  H   -0.44889826758745     -1.34396005751918     -0.62547850536817
  H   0.74871494817188      0.64706256504766     -1.44851075248475
  N   1.86201185185142     -0.35735072722852      0.10823717073926
  H   2.69091191494760      0.22323612505512      0.13891181767379
  H   2.04333530235643     -1.12217820640852     -0.53521901170404
  N   -1.70295234013063      0.29891531273899     -0.68778038657541
  O   -2.51733948664085      0.84185375555590      0.04908063831332
  O   -1.71404757852177      0.31158981530463     -1.91712170372554
  N   -0.81339581354593     -0.69689217239727      1.30933968586954
  H   -1.05657050430396      0.15684460300047      1.79717953738129
  H   0.03325466214778     -1.07498921883293      1.71966998483128
