14
Coordinates from ORCA-job run
  C   0.90144969681862      0.07839423407720      0.12576929709633
  C   -0.51486018751878     -0.35869706558781     -0.26007636923254
  Br  2.12994814075401     -1.35834241552510     -0.60721559789055
  H   -0.62728754077837     -0.35193911259138     -1.34523072033648
  H   1.03610611456422     -0.00219065495478      1.20436241282065
  N   1.18074121964434      1.37943000332895     -0.31190201454828
  H   1.12056473766262      1.48794250539418     -1.31581531607300
  H   2.06163032439860      1.73778016562580      0.02789406013099
  N   -1.41350636982486      0.73767353964031      0.25428163551522
  O   -1.51403083521745      0.80570810844728      1.47578589715487
  O   -1.95275276802107      1.47146557408976     -0.56481926437734
  N   -1.00675448184572     -1.58914650437186      0.27419145409622
  H   -0.60582382372702     -2.37418502187863     -0.21916609183808
  H   -0.79442422690914     -1.66489335569391      1.26094061748200
