14
Coordinates from ORCA-job run
  C   0.99058509412636      0.06400431943904      0.04345336793747
  C   -0.41850170126295     -0.43686866332504     -0.26674925459214
  Br  2.26269038106735     -1.14508189961936     -0.92157815259766
  H   -0.60746223617811     -0.42278826608709     -1.34123389094205
  H   1.21362019754869     -0.10414455203896      1.09783571016227
  N   1.12933314327141      1.43291205232992     -0.26418421778997
  H   2.01832823750682      1.80436124202373      0.03961294692902
  H   1.00039383951168      1.62585465522837     -1.24943164009837
  N   -1.35027934642548      0.63811277169426      0.30180222638334
  O   -1.89503774885663      1.39734583385301     -0.49178087057486
  O   -1.47134048309431      0.65058315483741      1.52394657301948
  N   -0.66603058933271     -1.71908864325413      0.27903275293204
  H   -0.65913645878893     -1.68561223816486      1.29071954675198
  H   -1.54616232909321     -2.09958976691630     -0.04044509752054
