14
Coordinates from ORCA-job run
  C   0.98221542106172     -0.00263862058297      0.04432393739274
  C   -0.47819340405085     -0.34022095711020     -0.20573864550890
  Br  2.05298165258970     -1.43507159382963     -0.74404459485757
  H   -0.66072856752644     -0.34236715282494     -1.28634494337287
  H   1.18679033301555     -0.04503593023970      1.11803934034143
  N   1.31815465111083      1.23651839638685     -0.62262871972783
  H   2.31916380270181      1.30433960962482     -0.75273128782237
  H   1.02323305349474      2.00294143699176     -0.02799960265475
  N   -1.34118814667661      0.79133084849672      0.31493829525117
  O   -2.49293732371172      0.80323891540584     -0.10660361370036
  O   -0.87298547101010      1.56303572751484      1.14879007040092
  N   -0.92150233101879     -1.49542617779559      0.52939477087845
  H   -0.27724366867542     -2.26229544048037      0.38748074886417
  H   -1.83676000130441     -1.77934906155742      0.20212424451577
