19

C	-0.260535	-0.040115	-1.496148
C	0.0	0.0	0.0
Cl	-2.077897	-0.263695	-1.847415
H	1.100446	0.0	0.0
C	0.14314	1.263534	-2.159542
H	0.006037	1.190793	-3.243525
H	-0.430066	2.10093	-1.766033
H	1.204507	1.415592	-1.931013
N	0.431461	-1.195091	-2.018458
H	1.375179	-1.156891	-1.61798
H	0.518892	-1.103994	-3.024252
C	-0.474152	-1.242352	0.737903
H	-0.036123	-1.245025	1.741164
H	-1.56659	-1.252055	0.827861
H	-0.164854	-2.150887	0.21984
N	-0.452009	1.251844	0.598926
H	0.221426	1.511193	1.311912
H	-1.34966	1.109644	1.049348
H	2.910825	0.0	0.0
