19

C	-0.523014	-0.029699	-1.435638
C	0.0	0.0	0.0
Cl	0.207385	1.458594	-2.292424
H	1.094064	0.0	0.0
C	-0.029851	-1.22554	-2.223424
H	-0.272603	-1.116202	-3.284126
H	1.051575	-1.307928	-2.105095
H	-0.516789	-2.127175	-1.850284
N	-1.944957	0.070443	-1.431502
H	-2.286814	0.236245	-2.371729
H	-2.16572	0.876367	-0.852442
C	-0.437647	-1.232978	0.779614
H	0.004191	-1.172053	1.779024
H	-0.057682	-2.150213	0.32759
H	-1.527292	-1.300327	0.860484
N	-0.51726	1.218067	0.65383
H	-0.850235	0.981852	1.579526
H	0.272241	1.841355	0.78057
H	2.997848	0.0	0.0
