19

C	-0.505504	-0.034666	-1.437165
C	0.0	0.0	0.0
Cl	0.136056	1.541352	-2.259407
H	1.099397	0.0	0.0
C	0.117594	-1.149485	-2.248777
H	-0.12295	-1.033284	-3.309084
H	-0.279971	-2.107419	-1.906179
H	1.201624	-1.12632	-2.113512
N	-1.925855	-0.048188	-1.466644
H	-2.271825	0.138481	-2.399727
H	-2.245222	0.675929	-0.829594
C	-0.442688	-1.239157	0.767276
H	-0.012144	-1.190067	1.773264
H	-1.530993	-1.306836	0.839751
H	-0.052183	-2.147931	0.307
N	-0.563825	1.190591	0.668065
H	0.016567	1.977429	0.389722
H	-0.402769	1.072238	1.662905
H	3.051304	0.0	0.0
