19

C	-0.326996	0.151945	-1.491754
C	0.0	0.0	0.0
Cl	-0.106861	-1.529175	-2.321097
H	1.095785	0.0	0.0
C	-1.753552	0.546079	-1.820361
H	-1.97507	1.495617	-1.334238
H	-1.873875	0.644583	-2.903877
H	-2.453908	-0.208204	-1.460729
N	0.608202	1.088953	-1.997573
H	0.58122	1.147906	-3.007877
H	1.553745	0.846151	-1.678881
C	-0.581984	-1.19995	0.70924
H	-0.310878	-1.146037	1.769261
H	-1.674622	-1.218063	0.640698
H	-0.174869	-2.129186	0.312194
N	-0.488357	1.236562	0.659556
H	0.000812	2.002144	0.199512
H	-0.106493	1.21044	1.60263
H	3.015305	0.0	0.0
