19

C	-0.255566	-0.018572	-1.502326
C	0.0	0.0	0.0
Cl	-2.060629	-0.215649	-1.84273
H	1.09952	0.0	0.0
C	0.202495	1.275051	-2.140628
H	-0.347898	2.12068	-1.734503
H	0.078588	1.205243	-3.222452
H	1.264078	1.395064	-1.893397
N	0.424443	-1.119498	-2.169023
H	1.406026	-1.019171	-1.889186
H	0.10062	-1.993043	-1.76805
C	-0.456992	-1.243947	0.749508
H	-0.038464	-2.162117	0.329885
H	-1.54945	-1.32963	0.761493
H	-0.096785	-1.175332	1.780471
N	-0.461038	1.240464	0.617727
H	-1.361517	1.094555	1.057894
H	0.206798	1.493417	1.337026
H	2.916903	0.0	0.0
