19

C	-0.39786	0.029291	-1.457599
C	0.0	0.0	0.0
Cl	-2.347075	0.410862	-1.507705
H	1.097102	0.0	0.0
C	0.240074	1.180354	-2.188564
H	-0.047931	2.115414	-1.715801
H	-0.0502	1.189004	-3.243764
H	1.323648	1.04483	-2.085172
N	-0.175999	-1.188378	-2.11173
H	-0.664043	-1.957372	-1.676086
H	-0.418105	-1.136314	-3.091795
C	-0.45917	-1.246344	0.744914
H	-0.139658	-1.160959	1.786907
H	0.017662	-2.146569	0.345861
H	-1.549637	-1.360295	0.719738
N	-0.37272	1.25549	0.64559
H	0.328537	1.448716	1.35226
H	-1.280629	1.174826	1.089339
H	2.907465	0.0	0.0
