19

C	-0.216408	-0.020765	-1.511259
C	0.0	0.0	0.0
Cl	-2.033121	-0.210327	-1.918628
H	1.100888	0.0	0.0
C	0.218235	1.283376	-2.158584
H	0.120032	1.213468	-3.246393
H	-0.371108	2.134958	-1.816194
H	1.272389	1.429192	-1.893844
N	0.480644	-1.167499	-2.03113
H	0.607803	-1.06458	-3.03256
H	1.408835	-1.154523	-1.591312
C	-0.511702	-1.242989	0.703988
H	-0.240182	-2.146528	0.157192
H	-0.068413	-1.275456	1.701811
H	-1.601087	-1.20881	0.806974
N	-0.467904	1.194855	0.688346
H	0.18216	1.951204	0.517414
H	-1.381553	1.465702	0.340365
H	2.91928	0.0	0.0
