12
Coordinates from ORCA-job run
  C   -0.63342944523353     -0.12690705133229      0.40522222007870
  C   0.60000881979643      0.20053098510537     -0.40812607911021
  Cl  -0.95401059472339      1.09549525119928      1.61215318170282
  H   0.72951160668594     -0.53884709353619     -1.20008046372548
  H   -0.53448412712937     -1.09654718964835      0.88795562480941
  H   0.56780656874268      1.21309911203906     -0.80641915417715
  N   -1.78219254041522     -0.27435319889633     -0.58269458168011
  O   -2.64868422833246      0.58283984911106     -0.63682044791162
  O   -1.69223449015089     -1.28318540497292     -1.27602721727074
  N   1.81247122191612      0.10703203157775      0.46225617221249
  O   2.64342829926497      1.00170942162929      0.35637400437828
  O   1.89080890957873     -0.88086671227572      1.18620674069362
