12
Coordinates from ORCA-job run
  C   -0.62862694273660     -0.20901313700734      0.31955624445067
  C   0.63598652114945      0.25013138413403     -0.36737634990512
  Cl  -1.10274612534527      0.90446664938673      1.59903018466362
  H   0.86336002091574     -0.40092578163798     -1.21483011693789
  H   -0.52944076822816     -1.20458771777966      0.74315133538100
  H   0.57334852930023      1.28717711420277     -0.68317918907282
  N   -1.73544189412108     -0.28082736110733     -0.69974290264796
  O   -1.78643455601603      0.62512034169343     -1.52565429921521
  O   -2.49682564804112     -1.23731472435446     -0.60694819936255
  N   1.78244608344044      0.12504468737061      0.58356231365886
  O   1.87693673970309     -0.93841757731694      1.19045697493480
  O   2.54943803997930      1.07814612241613      0.66097400405260
