12
Coordinates from ORCA-job run
  C   -0.68541988539385     -0.60157824580899      0.14507790118752
  C   0.62924480388692     -0.12623919982667      0.70424301924688
  Cl  -1.73884827732212     -1.10206726411831      1.47035555605421
  H   1.12442387118467     -0.92845333984278      1.25316487309547
  H   -0.58789564730886     -1.42392924315727     -0.55751596585987
  H   0.50221419370135      0.73958590871295      1.34951371503601
  N   -1.37275480709820      0.50762968955646     -0.61616382408905
  O   -1.11615824889531      1.65814495837223     -0.27904112434077
  O   -2.14924851663451      0.15038098171823     -1.49151998142127
  N   1.56239953187082      0.28232392208225     -0.39272179405275
  O   1.25825692633423     -0.03034008605861     -1.54191280199737
  O   2.57378605567485      0.87554191837051     -0.04347957285899
