12
Coordinates from ORCA-job run
  C   -0.60221480961023     -0.28465840544205      0.31729088445634
  C   0.60258753300396      0.32963649431482     -0.35603270972941
  Cl  -1.07693644575940      0.63421900612075      1.74235867332674
  H   0.82585148423427     -0.19856818597506     -1.28614417258323
  H   -0.43114839964720     -1.31713978220184      0.60869988271344
  H   0.46734054863976      1.39162697202726     -0.53814497530134
  N   -1.74644697342130     -0.29607341790859     -0.66244613504671
  O   -2.42811464321310     -1.31504790549398     -0.68905418284813
  O   -1.90199396644125      0.71301517061763     -1.34268481122503
  N   1.79760440835068      0.16029772990417      0.52546684141700
  O   1.97397165048961     -0.95824846016704      1.00076572207308
  O   2.51949961337420      1.13894078420393      0.67992498274725
