16

C	-0.439262	0.057497	-1.414245
C	0.0	0.0	0.0
Cl	-2.204599	0.238021	-1.652365
H	1.099117	0.0	0.0
H	-0.31581	0.957394	0.428848
N	0.246068	1.262258	-2.07395
O	1.197635	1.028575	-2.804775
O	-0.182983	2.360827	-1.749534
N	-0.010785	-1.138899	-2.272961
O	-0.451291	-1.17872	-3.416388
O	0.760393	-1.940726	-1.763882
C	-0.560334	-1.155811	0.810137
H	-0.167198	-1.074116	1.825427
H	-1.654284	-1.161568	0.864754
H	-0.216783	-2.109658	0.413001
F	2.578243	0.0	0.0
