16

C	-0.443926	0.033429	-1.415152
C	0.0	0.0	0.0
Cl	0.379306	1.248788	-2.365291
H	1.102296	0.0	0.0
H	-0.373612	-0.926613	0.442282
N	-0.269147	-1.312552	-2.136399
O	0.207884	-2.243972	-1.506566
O	-0.656691	-1.343523	-3.300481
N	-1.966531	0.248443	-1.50459
O	-2.399629	1.366806	-1.743026
O	-2.63519	-0.736271	-1.199853
C	-0.467794	1.220419	0.782487
H	-1.553369	1.265838	0.933956
H	0.017844	1.195847	1.760107
H	-0.149713	2.141882	0.290083
F	2.58606	0.0	0.0
