16

C	-0.466257	0.010705	-1.40365
C	0.0	0.0	0.0
Cl	-2.229122	0.254244	-1.622536
H	1.095648	0.0	0.0
H	-0.344044	0.928824	0.461544
N	0.164919	1.132969	-2.231004
O	0.51063	2.132962	-1.620612
O	0.197489	0.967213	-3.445212
N	-0.056568	-1.293452	-2.084307
O	-0.90039	-2.174046	-2.203741
O	1.129956	-1.368578	-2.366973
C	-0.476356	-1.225573	0.767072
H	-0.171726	-1.111164	1.809634
H	0.024789	-2.12148	0.393006
H	-1.55906	-1.387842	0.732147
F	2.573568	0.0	0.0
