16

C	-0.424285	0.020944	-1.421148
C	0.0	0.0	0.0
Cl	-2.191142	0.181206	-1.700816
H	1.091802	0.0	0.0
H	-0.33377	-0.967731	0.391378
N	0.212203	1.123761	-2.27084
O	0.835461	2.00002	-1.687565
O	0.019991	1.043248	-3.478633
N	0.065118	-1.275871	-2.066273
O	-0.690833	-2.238373	-2.045232
O	1.218125	-1.250632	-2.473249
C	-0.531906	1.133176	0.864
H	-0.07383	1.041128	1.851708
H	-0.234459	2.099996	0.460666
H	-1.619895	1.112869	0.980264
F	2.585287	0.0	0.0
