14

C	-0.448786	0.035205	-1.467548
C	0.0	0.0	0.0
Br	0.034301	-1.661432	-2.336752
H	1.093783	0.0	0.0
H	-0.318011	0.940976	0.465196
C	-1.90062	0.163955	-1.585243
N	-3.063844	0.315485	-1.668627
C	0.2734	1.173454	-2.183116
H	1.349519	1.039603	-2.04627
H	0.02282	1.187028	-3.244644
H	-0.027435	2.124699	-1.732686
C	-0.555511	-1.109418	0.760553
N	-1.024807	-1.986002	1.3852
Br	3.478594	0.0	0.0
