14

C	-0.440213	0.025094	-1.473646
C	0.0	0.0	0.0
Br	0.137078	-1.671714	-2.286635
H	1.093712	0.0	0.0
H	-0.35625	-0.906444	0.494741
C	-1.89652	0.065752	-1.606139
N	-3.066856	0.120676	-1.704977
C	0.227425	1.17786	-2.215427
H	-0.119922	2.124575	-1.791813
H	-0.018627	1.148911	-3.277958
H	1.308191	1.097075	-2.073569
C	-0.504742	1.176534	0.699731
N	-0.910503	2.133505	1.24691
Br	3.48244	0.0	0.0
