14

C	-0.389607	-0.054692	-1.48203
C	0.0	0.0	0.0
Br	-2.359295	-0.22258	-1.682438
H	1.095886	0.0	0.0
H	-0.362208	0.916163	0.471511
C	-0.045035	1.214504	-2.120476
N	0.205529	2.239502	-2.638292
C	0.292141	-1.222814	-2.181078
H	-0.038671	-2.160936	-1.731417
H	1.371398	-1.11401	-2.028972
H	0.057414	-1.230434	-3.246306
C	-0.483681	-1.162719	0.731917
N	-0.875138	-2.100923	1.319701
Br	3.446196	0.0	0.0
