14

C	-0.560924	-0.026562	-1.430003
C	0.0	0.0	0.0
Br	0.140421	1.508524	-2.435084
H	1.092677	0.0	0.0
H	-0.317555	-0.923044	0.500824
C	-0.11329	-1.241405	-2.109666
N	0.137438	-2.251561	-2.656117
C	-2.086572	0.033655	-1.468328
H	-2.430231	0.960593	-1.007625
H	-2.493644	-0.816192	-0.911283
H	-2.446439	-0.010115	-2.497148
C	-0.521509	1.136104	0.74935
N	-0.980147	2.031103	1.355845
Br	3.456642	0.0	0.0
