14

C	-0.39112	-0.053624	-1.480914
C	0.0	0.0	0.0
Br	-2.361637	-0.201355	-1.677342
H	1.095861	0.0	0.0
H	-0.36139	0.91643	0.471329
C	-0.033393	1.209606	-2.122762
N	0.236778	2.230158	-2.639189
C	0.27512	-1.229764	-2.177
H	-0.063107	-2.163862	-1.723439
H	1.353611	-1.133283	-2.033169
H	0.033846	-1.234957	-3.23873
C	-0.487011	-1.162227	0.730375
N	-0.892379	-2.097786	1.31283
Br	3.445374	0.0	0.0
