15
Coordinates from ORCA-job run
  C   0.86128062204764     -0.51718045062954     -0.33591073149490
  C   -0.55162204755659     -0.08022130652121      0.02461134238016
  Cl  0.73700800183830     -2.12652657523554     -1.25488121955026
  H   -1.09842099207450      0.05928218833881     -0.92474878995706
  H   1.39855086615617     -0.78327945728270      0.57450964419704
  N   1.56439320707579      0.46872275788516     -1.06703698980073
  H   1.11097041726302      0.65876311004603     -1.95247991851475
  H   2.51919732600550      0.18796143510129     -1.24626511323622
  C   -0.51220527201872      1.24141148169976      0.77985465533590
  H   0.06606118482210      1.12108550211827      1.69898147803100
  H   -1.52708234888659      1.54388340113312      1.05463998744748
  H   -0.06204380805098      2.03087896505464      0.18098941369566
  N   -1.15129913780695     -1.09073327891106      0.88790833284007
  H   -2.05492694462438     -0.76448026564765      1.20793338917626
  H   -1.29886107418980     -1.95056750714935      0.37389451945034
