15
Coordinates from ORCA-job run
  C   0.80546272357199     -0.60899640888012     -0.48799848825767
  C   -0.60265523280073     -0.19757164569143     -0.06794356604549
  Cl  0.72278709570164     -2.03613476172756     -1.55825249400758
  H   -1.20051371332368     -0.16093463810102     -0.98356790327304
  H   1.35032471161632     -0.95727566832839      0.40145308911249
  N   1.46598106754652      0.45625391876331     -1.22256130315822
  H   1.76829301497966      1.17001382158043     -0.56868349694141
  H   2.29578266611535      0.08951849363378     -1.67326383028022
  C   -0.59957119436551      1.18736599605624      0.58062938981713
  H   0.06786147594630      1.20660868573362      1.45065976088798
  H   -0.29294564291131      1.96650946371340     -0.11902891118815
  H   -1.60543341623736      1.42705160359854      0.93311956713174
  N   -1.15247086921967     -1.24222085311514      0.79111553126885
  H   -0.86045576803163     -1.08958718187587      1.75008270011461
  H   -2.16344691858789     -1.21060082535979      0.77523995481896
