15
Coordinates from ORCA-job run
  C   0.77692898794925     -0.03337209072012     -0.79925323803121
  C   -0.50619060822785     -0.14778383388844      0.01715356892893
  Cl  1.87490552150030      1.23457129005871      0.02318874669059
  H   -1.10094696690182     -0.88674656419595     -0.53231893691677
  H   0.58363580538392      0.41752821042608     -1.77284361648280
  N   1.38044496413832     -1.29566355721628     -0.93328459844794
  H   1.45757083744473     -1.72983698610425     -0.02121185380869
  H   2.27783164330221     -1.25535102330087     -1.39543178993379
  C   -1.29273987550620      1.15536266254780      0.09447359672128
  H   -2.25637980756926      0.97826552314554      0.57897501022384
  H   -0.75023187668593      1.90613092577063      0.67149238852258
  H   -1.48543231310847      1.56474726763544     -0.90178446954841
  N   -0.17195595557033     -0.75075905289233      1.30610738315442
  H   0.21913847311135     -0.04364501277708      1.91852039999242
  H   -1.00757882926020     -1.11444775848889      1.74621740893555
