16

C	0.0	0.0	0.0
C	-0.50631	-0.116451	-1.440914
F	1.387468	0.0	0.0
H	-1.60531	-0.023487	-1.298115
N	-0.526402	1.179745	0.585054
H	-1.560974	0.989806	0.494513
H	-0.283021	1.192931	1.570808
C	-0.350178	-1.242163	0.758603
N	-0.551647	-2.179047	1.438371
C	-0.13706	-1.446432	-2.097836
H	-0.650472	-2.263947	-1.586809
H	-0.450158	-1.448009	-3.144347
H	0.942116	-1.621792	-2.059229
C	0.025524	0.999063	-2.218728
N	0.453362	1.84366	-2.915691
F	-2.759807	0.0	0.0
