16

C	0.0	0.0	0.0
C	-0.389649	-0.207748	-1.518803
F	1.374708	0.0	0.0
H	0.568667	-0.387225	-2.022512
N	-0.487463	1.158917	0.662481
H	-0.275465	1.966562	0.085976
H	-1.523297	0.964108	0.607492
C	-0.388193	-1.185271	0.80689
N	-0.505153	-2.14508	1.472645
C	-1.076215	1.009681	-2.1393
H	-2.00436	1.146065	-1.583554
H	-0.433426	1.893718	-2.085458
H	-1.289602	0.814878	-3.193804
C	-1.196005	-1.403103	-1.773074
N	-1.731286	-2.384801	-2.133324
F	-2.635549	0.0	0.0
