16

C	0.0	0.0	0.0
C	-0.206359	-0.001741	-1.558542
F	1.401403	0.0	0.0
H	0.336987	0.913199	-1.82465
N	-0.592421	1.136198	0.578461
H	-0.417607	1.108111	1.579783
H	-1.63782	0.870533	0.426732
C	-0.370346	-1.295731	0.630363
N	-0.529659	-2.306171	1.208223
C	-1.573058	0.033773	-2.236524
H	-2.16535	0.858593	-1.859303
H	-2.144149	-0.863274	-2.018163
H	-1.398833	0.12872	-3.315422
C	0.565761	-1.119308	-2.12207
N	1.141335	-2.005682	-2.634478
F	-2.784746	0.0	0.0
