16

C	0.0	0.0	0.0
C	-0.510795	0.028859	-1.445187
F	1.381002	0.0	0.0
H	-1.610824	0.093023	-1.289088
N	-0.525836	1.120116	0.696977
H	-1.560382	0.946568	0.590226
H	-0.28323	1.03568	1.679761
C	-0.355102	-1.312059	0.626666
N	-0.55574	-2.353957	1.132195
C	-0.125328	-1.218455	-2.239417
H	0.955097	-1.384919	-2.218804
H	-0.438822	-1.111968	-3.280376
H	-0.628148	-2.091802	-1.818926
C	0.000241	1.228223	-2.102133
N	0.405192	2.149114	-2.710653
F	-2.763313	0.0	0.0
