16

C	0.0	0.0	0.0
C	-0.479114	0.024607	-1.469914
F	1.38602	0.0	0.0
H	-1.581052	0.067733	-1.312413
N	-0.503401	1.05722	0.810546
H	-0.286682	1.933239	0.342056
H	-1.535339	0.879606	0.723103
C	-0.402535	-1.295201	0.606169
N	-0.550613	-2.360208	1.076319
C	-0.051945	-1.197022	-2.281513
H	-0.381065	-1.100694	-3.318994
H	1.033907	-1.320064	-2.269698
H	-0.513991	-2.091495	-1.859678
C	0.002499	1.255122	-2.086844
N	0.390707	2.241457	-2.595639
F	-2.72586	0.0	0.0
