16

C	0.0	0.0	0.0
C	-0.416343	0.118414	-1.500493
F	1.388912	0.0	0.0
H	0.538402	0.019164	-2.033316
N	-0.494204	1.073632	0.782957
H	-0.233262	0.896591	1.748779
H	-1.533737	0.886587	0.672889
C	-0.338649	-1.342858	0.558932
N	-0.457986	-2.381949	1.094742
C	-1.053781	1.458517	-1.871772
H	-2.026381	1.487789	-1.385671
H	-1.166564	1.515146	-2.95863
H	-0.427868	2.281859	-1.527103
C	-1.249498	-0.984794	-1.985459
N	-1.795637	-1.860083	-2.547108
F	-2.636553	0.0	0.0
