15

C	0.0	0.0	0.0
C	-0.485494	-0.055197	-1.450659
Br	1.967079	0.0	0.0
H	-1.58434	-0.043372	-1.403977
H	-0.153787	0.836342	-1.989264
C	-0.433948	1.315602	0.637854
H	-0.034625	2.179881	0.100195
H	-1.526787	1.336429	0.62867
H	-0.08083	1.358799	1.671604
N	-0.470013	-1.181232	0.67359
H	-0.248888	-1.112409	1.661441
H	-1.490986	-1.162603	0.584213
C	-0.040696	-1.241615	-2.175637
N	0.289536	-2.174652	-2.806492
Cl	-3.671053	0.0	0.0
