15

C	0.0	0.0	0.0
C	-0.21771	0.308509	-1.51207
Br	1.971176	0.0	0.0
H	0.31003	1.241779	-1.728117
H	0.30879	-0.482971	-2.051975
C	-0.461731	1.120986	0.913872
H	-1.554164	1.150948	0.852868
H	-0.03524	2.083991	0.622548
H	-0.165063	0.906425	1.944922
N	-0.515247	-1.302287	0.300567
H	-0.39868	-1.479948	1.293887
H	-1.52947	-1.228055	0.139364
C	-1.526107	0.425539	-2.169577
N	-2.33819	0.550403	-3.010988
Cl	-3.640807	0.0	0.0
