15

C	0.0	0.0	0.0
C	-0.19908	0.247121	-1.53236
Br	1.975081	0.0	0.0
H	0.350909	-0.546688	-2.048176
H	0.309708	1.180741	-1.787297
C	-0.480606	1.155932	0.849876
H	-0.050928	2.098208	0.50465
H	-1.572578	1.191477	0.782453
H	-0.188075	0.984627	1.88677
N	-0.518779	-1.226761	0.506893
H	-1.535871	-1.090158	0.556441
H	-0.336964	-1.987063	-0.141049
C	-1.507894	0.298124	-2.19953
N	-2.310774	0.362522	-3.055592
Cl	-3.646988	0.0	0.0
