15

C	0.0	0.0	0.0
C	-0.474015	-0.109703	-1.461394
Br	1.971133	0.0	0.0
H	-1.57241	-0.085091	-1.413498
H	-0.1661	-1.074892	-1.874461
C	-0.442527	1.313451	0.619812
H	-0.084472	1.3611	1.64972
H	-1.535438	1.340191	0.610748
H	-0.048707	2.164719	0.06154
N	-0.475495	-1.090359	0.810317
H	-1.491838	-0.974748	0.869321
H	-0.29022	-1.97085	0.3408
C	0.003337	0.953351	-2.340166
N	0.375195	1.810496	-3.051212
Cl	-3.672775	0.0	0.0
