15

C	0.0	0.0	0.0
C	-0.479596	-0.150763	-1.443624
Br	2.037449	0.0	0.0
H	-0.099396	0.666703	-2.060177
H	-1.579352	-0.096797	-1.381671
C	-0.462165	1.323324	0.571577
H	-0.113861	1.434906	1.60115
H	-0.076707	2.15744	-0.016417
H	-1.557483	1.302773	0.549505
N	-0.479038	-1.063807	0.763616
H	-0.358093	-0.956015	1.758343
H	-0.214713	-1.981669	0.436493
C	-0.088869	-1.424061	-2.037381
N	0.222001	-2.452532	-2.511132
Cl	-3.815808	0.0	0.0
