15

C	-0.341257	0.03565	-1.488152
C	0.0	0.0	0.0
F	-1.726596	0.109382	-1.68764
H	1.097416	0.0	0.0
C	0.327312	1.223337	-2.147622
H	1.396288	1.182716	-1.908293
H	0.166728	1.194061	-3.227498
H	-0.103234	2.14058	-1.741976
C	0.10303	-1.223313	-2.11323
N	0.459739	-2.225826	-2.609807
C	-0.504565	-1.183679	0.670115
N	-0.861305	-2.158996	1.22275
C	-0.455974	1.210707	0.658754
N	-0.796563	2.218691	1.160789
H	2.496669	0.0	0.0
