15

C	-0.382689	0.022391	-1.476251
C	0.0	0.0	0.0
F	-1.774807	0.031036	-1.632921
H	1.097456	0.0	0.0
C	0.199504	1.239052	-2.158016
H	-0.260795	2.133967	-1.734851
H	1.274982	1.254562	-1.967117
H	-0.006928	1.200632	-3.228208
C	0.094306	-1.215766	-2.120291
N	0.461257	-2.19941	-2.645799
C	-0.483051	-1.186212	0.68236
N	-0.83804	-2.167664	1.224953
C	-0.450208	1.208976	0.663933
N	-0.779906	2.214863	1.17737
H	2.496371	0.0	0.0
