15

C	-0.351729	0.031159	-1.487212
C	0.0	0.0	0.0
F	-1.739338	0.085068	-1.676507
H	1.097391	0.0	0.0
C	0.293586	1.227813	-2.151026
H	-0.146428	2.139226	-1.741862
H	1.364289	1.2024	-1.922697
H	0.124081	1.196592	-3.228585
C	0.10299	-1.222087	-2.122432
N	0.425576	-2.20885	-2.671492
C	-0.501748	-1.180921	0.675892
N	-0.86396	-2.152993	1.230633
C	-0.441528	1.211772	0.664764
N	-0.751108	2.221448	1.183216
H	2.496156	0.0	0.0
