15

C	-0.38333	0.01376	-1.490151
C	0.0	0.0	0.0
F	0.080261	-1.170104	-2.043739
H	1.096906	0.0	0.0
C	-1.877766	0.089016	-1.752921
H	-2.289602	1.016776	-1.353502
H	-2.361604	-0.761906	-1.269498
H	-2.061668	0.045509	-2.828974
C	0.291406	1.137946	-2.175212
N	0.685641	2.056282	-2.792474
C	-0.503354	-1.196725	0.641758
N	-0.87018	-2.185131	1.165308
C	-0.481317	1.19431	0.663622
N	-0.863027	2.169431	1.201428
H	2.471139	0.0	0.0
