15

C	-0.354179	-0.019406	-1.498936
C	0.0	0.0	0.0
F	0.051365	1.198665	-2.028643
H	1.097292	0.0	0.0
C	0.402837	-1.13121	-2.197316
H	0.265314	-1.039228	-3.276549
H	1.456667	-1.018109	-1.924776
H	0.042585	-2.107358	-1.867537
C	-1.811448	-0.11704	-1.728622
N	-2.964108	-0.22978	-1.926709
C	-0.451772	-1.215478	0.64994
N	-0.761681	-2.22957	1.16005
C	-0.509324	1.184434	0.665855
N	-0.875678	2.160331	1.210546
H	2.529637	0.0	0.0
