15

C	-0.415136	-0.001011	-1.480048
C	0.0	0.0	0.0
F	0.059702	1.176709	-2.042273
H	1.097337	0.0	0.0
C	0.206078	-1.176614	-2.205389
H	-0.211911	-2.115983	-1.840476
H	0.008377	-1.085219	-3.275403
H	1.281035	-1.14879	-2.005177
C	-1.885877	0.022475	-1.634766
N	-3.053857	0.021145	-1.769331
C	-0.478256	-1.202663	0.659104
N	-0.838094	-2.198926	1.170499
C	-0.474913	1.190197	0.686
N	-0.812344	2.170336	1.241652
H	2.528646	0.0	0.0
