15

C	-0.396091	0.019326	-1.475008
C	0.0	0.0	0.0
F	-1.792357	0.028298	-1.614845
H	1.097461	0.0	0.0
C	0.173579	1.242365	-2.161322
H	1.25399	1.256102	-1.987496
H	-0.051281	1.209192	-3.228725
H	-0.279762	2.133687	-1.724909
C	0.074941	-1.221732	-2.118409
N	0.419	-2.217236	-2.636671
C	-0.484022	-1.188358	0.681292
N	-0.814174	-2.165487	1.24665
C	-0.46721	1.199467	0.669939
N	-0.810326	2.203443	1.177355
H	2.500416	0.0	0.0
