18

C	-0.334541	0.002448	-1.481089
C	0.0	0.0	0.0
Cl	0.254851	1.540446	-2.137379
H	1.089264	0.0	0.0
C	0.380507	-1.121887	-2.209898
H	1.422071	-1.074259	-1.880605
H	0.295961	-0.959617	-3.286516
H	-0.048358	-2.08374	-1.936282
N	-1.834051	-0.121973	-1.765782
O	-2.400764	-0.97475	-1.088431
O	-2.341434	0.530749	-2.665093
N	-0.446505	-1.205152	0.749358
O	0.023256	-2.277307	0.382997
O	-1.19768	-1.052589	1.710143
N	-0.570735	1.171007	0.707536
O	-1.606213	1.669167	0.261025
O	0.024476	1.54899	1.711017
F	2.484733	0.0	0.0
