18

C	-0.582551	0.000425	-1.411676
C	0.0	0.0	0.0
Cl	0.274081	-1.243603	-2.36114
H	1.086268	0.0	0.0
C	-2.07118	-0.226873	-1.537937
H	-2.608423	0.550073	-0.996209
H	-2.354933	-0.204305	-2.587615
H	-2.322577	-1.200418	-1.118796
N	-0.201027	1.325169	-2.092052
O	0.803427	1.89346	-1.69809
O	-0.912114	1.675909	-3.029592
N	-0.477643	-1.229908	0.699634
O	-1.545047	-1.168648	1.318775
O	0.214153	-2.237461	0.584846
N	-0.484413	1.138383	0.811223
O	-1.175687	2.01147	0.277785
O	-0.115494	1.151063	1.980905
F	2.448847	0.0	0.0
