18

C	-0.372434	0.059342	-1.479962
C	0.0	0.0	0.0
Cl	-2.019134	0.654886	-1.781626
H	1.087163	0.0	0.0
C	0.666479	0.866719	-2.244158
H	0.52992	1.92375	-2.029646
H	0.547695	0.686288	-3.31494
H	1.645766	0.557292	-1.858188
N	-0.249668	-1.360767	-2.051666
O	0.642764	-2.042685	-1.566485
O	-0.952041	-1.661875	-3.006488
N	-0.57875	-1.152219	0.726673
O	-1.537639	-1.744622	0.229195
O	-0.054719	-1.421852	1.80259
N	-0.456805	1.230494	0.693796
O	0.015343	2.285183	0.279174
O	-1.253985	1.128993	1.624247
F	2.502809	0.0	0.0
