18

C	-0.304421	-0.003774	-1.489592
C	0.0	0.0	0.0
Cl	0.240689	1.560568	-2.121895
H	1.088517	0.0	0.0
C	0.477082	-1.093452	-2.203325
H	1.50366	-1.007508	-1.834337
H	0.077447	-2.072747	-1.950092
H	0.422922	-0.925305	-3.280524
N	-1.789068	-0.181616	-1.815317
O	-2.352213	-1.037969	-1.139853
O	-2.285523	0.437045	-2.74536
N	-0.445533	-1.208568	0.743753
O	-1.192094	-1.057627	1.70833
O	0.021731	-2.279624	0.372786
N	-0.596416	1.166179	0.692258
O	-1.659108	1.61311	0.254184
O	0.003087	1.589516	1.675875
F	2.491599	0.0	0.0
