18

C	-0.57681	0.01524	-1.408383
C	0.0	0.0	0.0
Cl	0.295076	-1.226555	-2.341552
H	1.086049	0.0	0.0
C	-2.058393	-0.206435	-1.582582
H	-2.314316	-0.14845	-2.639423
H	-2.609555	0.550525	-1.028706
H	-2.319907	-1.193788	-1.204566
N	-0.188771	1.352361	-2.061381
O	0.823233	1.898011	-1.642111
O	-0.88724	1.729737	-2.996993
N	-0.483472	-1.216292	0.72866
O	-1.587274	-1.137335	1.27831
O	0.274459	-2.17819	0.759404
N	-0.475897	1.145294	0.833711
O	-1.171901	2.029962	0.290202
O	0.069756	1.238994	1.926532
F	2.489747	0.0	0.0
