13

C	-0.590792	0.122773	-1.38101
C	0.0	0.0	0.0
Cl	-2.328724	0.461851	-1.328793
H	1.090424	0.0	0.0
H	-0.100254	0.95675	-1.882371
H	-0.318073	0.861124	0.586937
N	-0.303511	-1.073151	-2.283484
O	-1.230321	-1.723868	-2.740146
O	0.888775	-1.236091	-2.495599
N	-0.494264	-1.188917	0.733146
O	-0.680825	-1.061418	1.941064
O	-0.648554	-2.229556	0.095349
Cl	3.267448	0.0	0.0
