11
Coordinates from ORCA-job run
  C   0.58094244032634     -0.02441984082444      0.41711997859730
  C   -0.91211121687868     -0.40848407487247      0.30979635981470
  Br  1.23490865093413     -0.64364559247686      2.16131390247656
  H   -1.00130086547918     -1.49281950851376      0.41555154095669
  H   -1.45345237162294      0.06434270200534      1.13339278206952
  C   1.36245486346773     -0.68043434825171     -0.62912332506481
  N   1.96574736580265     -1.22073514679558     -1.48136469747191
  C   0.75013318594151      1.42554946227281      0.34894805328759
  N   0.85439866057676      2.59556276621318      0.29637660119902
  C   -1.46856225119742      0.02025487928560     -0.97121457278199
  N   -1.91315846187090      0.36482870195789     -2.00179662308268
