11
Coordinates from ORCA-job run
  C   0.49805894414360      0.11708199225384      0.37842642371497
  C   -0.90530541104498      0.25166840866208     -0.25569489997472
  Br  0.33732661282963     -0.65163485787158      2.17439713294348
  H   -0.79577914832412      0.73832979255550     -1.23063904847667
  H   -1.51416657276286      0.89588541172917      0.38408397942558
  C   1.35259787026172     -0.75282604256727     -0.42708870930096
  N   2.02141764198588     -1.44671994061850     -1.10062831345674
  C   1.09580574381028      1.44616763308493      0.49794362188071
  N   1.53541301345720      2.53413472124030      0.57067652424604
  C   -1.55204594493932     -1.04531393416228     -0.42327115740352
  N   -2.07532274941703     -2.08577318430619     -0.56820555359818
