11
Coordinates from ORCA-job run
  C   0.55540274250198      0.02073468737630      0.45129382263705
  C   -0.89148588368215     -0.48563092704979      0.25318741152588
  Br  1.15443646290153     -0.55581894735497      2.22935477297807
  H   -0.89530943080167     -1.57471464051980      0.34671641333451
  H   -1.51806261594989     -0.06855437542291      1.04578402900404
  C   1.44899911083714     -0.56060932812377     -0.54837952431535
  N   2.14234914929185     -1.04919662851656     -1.36262891371587
  C   0.60519609117874      1.48034595192572      0.39772348845220
  N   0.61070049861775      2.65532308699069      0.35466232943330
  C   -1.40358314958560     -0.09059132092062     -1.05686875154638
  N   -1.80764297530964      0.22871244161572     -2.11184507778747
