11
Coordinates from ORCA-job run
  C   0.52377655984264      0.09475698110377      0.34816632139182
  C   -0.96330805134015      0.13734097148500     -0.07180980308698
  Br  0.75300979897914     -1.17101925067615      1.82693199113094
  H   -1.07744740737930      0.89611367124555     -0.85324131993725
  H   -1.55948733338234      0.44109575589210      0.79260451263610
  C   1.36718875546745     -0.33103577205395     -0.76694245475739
  N   2.02901315983485     -0.65853106602762     -1.68186001667559
  C   0.92768215372609      1.42207290972859      0.80999415700026
  N   1.21620388372668      2.50447029648396      1.16643609580259
  C   -1.42274270066849     -1.15393648881061     -0.57189703440238
  N   -1.79488881880655     -2.18232800837061     -0.99738244910219
