11
Coordinates from ORCA-job run
  C   0.56451399218573     -0.00620914640943      0.29449460834697
  C   -0.73818215164630     -0.52364170615410     -0.35737493794858
  Br  0.44681276540847     -0.19882075392923      2.24179627174453
  H   -0.87064637453138     -1.57301151492670     -0.08116394952082
  H   -0.62435316009429     -0.46533412195179     -1.44499077166241
  C   1.68773802052437     -0.81272762188824     -0.18087673859047
  N   2.55729339853842     -1.48901981971343     -0.59184495504257
  C   0.78136792307842      1.40387338842711     -0.02279166287157
  N   0.93615443907986      2.53533682588302     -0.30252720364804
  C   -1.89984716636043      0.25444085066238      0.05901521701010
  N   -2.83985168618286      0.87611362000040      0.38626412218285
