11
Coordinates from ORCA-job run
  C   0.50913109821038      0.11462442189044      0.36317826545075
  C   -0.95534146081833      0.14648202705590     -0.13113234751361
  Br  0.64446068799508     -1.03700352125306      1.94343490141576
  H   -1.58631756713596      0.52518632234983      0.67719548483938
  H   -1.01775867015812      0.84412089798523     -0.97303845347355
  C   1.39632678343539     -0.40811262433073     -0.67395619230368
  N   2.08998650077667     -0.81978177900626     -1.52947404984357
  C   0.91491730491351      1.46732480464353      0.74222867108720
  N   1.20771636365718      2.56860152222059      1.03143306921047
  C   -1.41478535142615     -1.17293766024740     -0.55111662834521
  N   -1.78933568944964     -2.22950441130810     -0.89875272052394
