11
Coordinates from ORCA-job run
  C   0.51905944341021      0.17381236223032      0.32197995200621
  C   -0.93333796151744      0.19488902454529     -0.20712436373904
  Br  0.52626129290600     -0.38444930882383      2.20071066076316
  H   -1.51550027197757      0.88937740741000      0.40417554997146
  H   -0.91819159814036      0.57041275310650     -1.23576831979274
  C   1.33948514130109     -0.76013137727412     -0.44676332791446
  N   1.99060608689407     -1.50009698111311     -1.08772654078933
  C   1.07649436802894      1.52314552766649      0.23956088828868
  N   1.48547808121498      2.62193280480720      0.15345366210463
  C   -1.54001147214538     -1.13162410001829     -0.17703252809472
  N   -2.02934310997459     -2.19826811253643     -0.16546563280383
