11
Coordinates from ORCA-job run
  C   0.54948521897160      0.02788823618642      0.45493525051402
  C   -0.89831037035665     -0.47643856471802      0.25955855758748
  Br  1.13495309150907     -0.51048966853576      2.24922267955877
  H   -1.52803213319057     -0.03930191636827      1.03877175652311
  H   -0.90798758274378     -1.56314278133497      0.37695052762425
  C   1.44674379888331     -0.57942199967614     -0.52586933561030
  N   2.14693727220186     -1.08289971109190     -1.32498763755946
  C   0.60876158909177      1.48558588759831      0.36712308028525
  N   0.64861157990627      2.65806368950857      0.28910301411338
  C   -1.40133497222188     -0.10760631234427     -1.06169476299523
  N   -1.79982749205100      0.18976314077606     -2.12511313004129
