11
Coordinates from ORCA-job run
  C   0.54215617883890      0.00103478693728      0.46578639483063
  C   -0.91405938037902     -0.45951346861509      0.22912216829825
  Br  1.07814065915266     -0.60099519197450      2.25534460140240
  H   -1.54729970637017     -0.02652364446867      1.00784825002152
  H   -0.95462501733681     -1.54827321101730      0.31699281178285
  C   1.44263930669435     -0.60283869313834     -0.51417668457563
  N   2.14372392973163     -1.10577033263142     -1.31293641709293
  C   0.63944243219649      1.45861257401774      0.41986046089180
  N   0.69926792057542      2.63209455696692      0.37705677152291
  C   -1.38115015423407     -0.04198061903693     -1.09082984511230
  N   -1.74823616886935      0.29415324296033     -2.15406851196953
