11
Coordinates from ORCA-job run
  C   0.57650666416435      0.00009017480809      0.42410048480981
  C   -0.89137032702552     -0.46481047477698      0.29051372268131
  Br  1.24308195246586     -0.61090436961743      2.16618115129048
  H   -1.46810371645629     -0.03975239010739      1.11608641148473
  H   -0.92099376097755     -1.55431026164514      0.37366558748313
  C   1.40572269378025     -0.59441496189466     -0.62225528297097
  N   2.04730266433392     -1.09203576685419     -1.47268485630071
  C   0.66429002458825      1.45828971818776      0.38137883829273
  N   0.70154445139087      2.63303122618336      0.34896467262420
  C   -1.45498265183496     -0.04007428129045     -0.98872851053211
  N   -1.90199799442922      0.30689138700705     -2.01722221886258
