11
Coordinates from ORCA-job run
  C   0.55342052695387      0.09363554393394      0.30152430196739
  C   -0.96749024288881      0.10359944360749      0.02482557024378
  Br  0.96653603357840     -1.26009724314132      1.65719810206287
  H   -1.48898912036413      0.32349612588086      0.96007396651960
  H   -1.18153669634934      0.90820635167310     -0.68653485247589
  C   1.30061353461863     -0.21942504643263     -0.91496947575505
  N   1.87517836709956     -0.46192912067925     -1.91171611504099
  C   0.95241195307626      1.40171700390894      0.81920065344759
  N   1.22689347134855      2.46901178904133      1.22864380944117
  C   -1.42822898073888     -1.16970376138978     -0.51830915760738
  N   -1.80680884633412     -2.18851108640268     -0.96093680280308
