11
Coordinates from ORCA-job run
  C   0.51881340190680      0.14140807403086      0.34193403951109
  C   -0.92410785063604      0.22809585661511     -0.20602218696065
  Br  0.48464493709285     -0.54043481224464      2.17916991829490
  H   -1.50152002574098      0.89380474046656      0.44076179708180
  H   -0.88469129786988      0.66921573437749     -1.20764031020415
  C   1.33197662986451     -0.75685193043849     -0.47536226145324
  N   1.96832244487826     -1.47145465870195     -1.15865204445397
  C   1.10401582939438      1.48133179919913      0.35757475653366
  N   1.53320054727754      2.57573823567155      0.34402646955719
  C   -1.55860567097899     -1.08395161243958     -0.27251184532620
  N   -2.07204894518843     -2.13690142653610     -0.34327833258045
