11
Coordinates from ORCA-job run
  C   0.55205158218129      0.00776430371975      0.45409378796091
  C   -0.90329485089333     -0.46991130338811      0.24756519648349
  Br  1.13102246576960     -0.58507414370100      2.23340311602773
  H   -0.92900991941035     -1.55877479839884      0.34015164722313
  H   -1.52618419244834     -0.04149631557683      1.03706100980381
  C   1.44006728869743     -0.58715822120444     -0.54252047277105
  N   2.13737336636248     -1.07522589981531     -1.35362916550536
  C   0.63071685451481      1.46612834889478      0.40433579797526
  N   0.66245044230388      2.64071922495772      0.36320793356969
  C   -1.40078574533739     -0.06308541900671     -1.06438729171043
  N   -1.79340729174011      0.26711422351894     -2.12028155905716
