11
Coordinates from ORCA-job run
  C   0.54403173728731      0.02812366893552      0.32542204110266
  C   -0.74367313287187     -0.56249267917264     -0.29332456169964
  Br  0.31850520469977      0.21179408905527      2.26285204162438
  H   -0.57154491307751     -0.71470507497689     -1.36408049060815
  H   -0.93560767205582     -1.53537526690783      0.16666032193585
  C   1.65833537853481     -0.88499743518172      0.07347536150709
  N   2.54230068530743     -1.62553922411525     -0.15531318396282
  C   0.83528226047236      1.34465745393839     -0.23926035459499
  N   1.06143549223753      2.39442748650124     -0.71812399502058
  C   -1.89084535668900      0.31849643256670     -0.10099259569765
  N   -2.81721968384499      1.02461054935724      0.04268541541386
