15

C	-0.523552	0.100081	-1.425097
C	0.0	0.0	0.0
Cl	0.003364	-1.438639	-2.297832
H	1.091766	0.0	0.0
H	-0.363612	-0.925363	0.471486
N	-1.945379	0.230567	-1.425507
H	-2.253601	0.379277	-2.378944
H	-2.379215	-0.607324	-1.059954
N	0.021828	1.209313	-2.167875
H	1.016336	1.029249	-2.285913
H	-0.044637	1.987639	-1.51685
N	-0.391705	1.230248	0.692679
H	0.269405	1.403863	1.437664
H	-1.323296	1.161955	1.07555
Cl	3.520398	0.0	0.0
