15

C	-0.442778	0.087602	-1.458094
C	0.0	0.0	0.0
Cl	-0.190716	-1.613255	-2.18946
H	1.10056	0.0	0.0
H	-0.397075	-0.902792	0.465819
N	-1.839281	0.388476	-1.69378
H	-2.38625	-0.413164	-1.401719
H	-2.046312	1.136666	-1.036053
N	0.344875	1.076723	-2.083746
H	0.119466	1.148814	-3.066829
H	1.336128	0.900791	-1.937801
N	-0.540598	1.185335	0.697832
H	0.019509	1.974238	0.390002
H	-0.338722	1.072805	1.685175
Cl	3.521141	0.0	0.0
