15

C	-0.414571	0.080785	-1.456588
C	0.0	0.0	0.0
Cl	-2.284007	0.541009	-1.471859
H	1.094872	0.0	0.0
H	-0.332889	0.918631	0.490421
N	0.239796	1.197137	-2.067747
H	1.238694	1.0639	-1.905135
H	0.071486	1.191644	-3.067005
N	-0.248256	-1.166915	-2.087164
H	-0.554551	-1.89143	-1.444424
H	-0.742136	-1.220553	-2.966234
N	-0.492255	-1.225915	0.622792
H	0.211949	-1.569049	1.262911
H	-1.341286	-1.04277	1.140704
Cl	3.489654	0.0	0.0
