15

C	-0.384544	0.00228	-1.468716
C	0.0	0.0	0.0
Cl	-2.268978	0.5587	-1.480886
H	1.094595	0.0	0.0
H	-0.328824	0.946965	0.443192
N	0.26776	0.994008	-2.273866
H	1.263605	0.788373	-2.197509
H	0.109405	1.908276	-1.866408
N	-0.220115	-1.249194	-2.027732
H	-0.562513	-1.308387	-2.973757
H	-0.55388	-1.971311	-1.40367
N	-0.510906	-1.183494	0.684372
H	-1.381631	-0.970008	1.154955
H	0.169323	-1.480464	1.372332
Cl	3.490973	0.0	0.0
