11
Coordinates from ORCA-job run
  C   0.69624833083627     -0.47381032197499     -0.23654339278499
  C   -0.31445512428048      0.57495742842140      0.19734412804621
  Br  0.63447916300308     -2.01119964444245      0.95726255351283
  H   -0.25447027851253      1.44688011882494     -0.45955462355048
  H   0.43798199505214     -0.84775984387992     -1.22821514043418
  H   -0.18745180228785      0.86850178192297      1.23721145473311
  C   2.03442638522277      0.09869765672023     -0.24379258604445
  N   3.09852317775865      0.59626868463342     -0.25516248131800
  N   -1.70364046042994      0.03854512044031      0.05279681404129
  O   -2.48748972462491      0.27047701372874      0.96599556034263
  O   -1.95315166173720     -0.56155799439464     -0.98834228654397
