11
Coordinates from ORCA-job run
  C   0.65951345022889     -0.44776150992753     -0.35343843167193
  C   -0.27202592625002      0.52830885149714      0.34584723072811
  Br  0.46864500703466     -2.23075442580542      0.40801733666819
  H   -0.13650393506277      1.53317016571331     -0.06313308993611
  H   0.37976686927568     -0.53467071611405     -1.40421088456102
  H   -0.13609570004043      0.53212812008159      1.42525570628019
  C   2.03861834207909      0.00032459351803     -0.23290265720210
  N   3.14632900838662      0.38311357086037     -0.15194222350753
  N   -1.69687505912722      0.15807287795794      0.07881977711155
  O   -1.97932306686293     -0.13165907789952     -1.08002535674471
  O   -2.47204898966158      0.21072755011813      1.02671259283535
