11
Coordinates from ORCA-job run
  C   0.66300450886149     -0.53165780309798     -0.21079948984261
  C   -0.28063442610861      0.60644613066488      0.13974816552347
  Br  0.66641265758350     -1.87057606041301      1.20362844705192
  H   -0.24471795153276      1.37609699958101     -0.63592861927805
  H   0.30983191857092     -1.03986143259556     -1.10905675731768
  H   -0.06805224377839      1.03750833951836      1.11564385159863
  C   2.00910084998636     -0.01758956563325     -0.41657708906055
  N   3.08010878480332      0.42991086297210     -0.59716418510236
  N   -1.69326581914156      0.11424486583422      0.17105995247496
  O   -2.40634533162012      0.53236865745145      1.07622425840646
  O   -2.03444294762416     -0.63689099428221     -0.73777853445419
