11
Coordinates from ORCA-job run
  C   0.72595244503162     -0.67118136854277     -0.12043978448868
  C   -0.72327955112436     -0.27305068573479     -0.34397402950681
  Br  1.00239878178649     -1.24527813515228      1.72131797548703
  H   -1.38811807858639     -1.11525448855696     -0.16255386146845
  H   0.91795091579638     -1.55877542802607     -0.72893918362945
  H   -0.85893762948837      0.10180852077151     -1.36240259317252
  C   1.69766915189123      0.34899341527205     -0.49253460194164
  N   2.50713963075216      1.11818294305533     -0.85662663280796
  N   -1.17500649815099      0.82356422490780      0.56877709697565
  O   -2.33121720780138      0.75098305111155      0.97132950251318
  O   -0.37355196010640      1.72000795089462      0.80604611203963
