11
Coordinates from ORCA-job run
  C   0.66332307347489     -0.72834618514540     -0.14790619432256
  C   -0.68314102190741     -0.11094484553671     -0.48638406784717
  Br  0.58240230692233     -1.65062259135714      1.56722801188620
  H   -0.61538351788026      0.45341964697611     -1.42081107554568
  H   0.85760618620485     -1.51211816272377     -0.88473979470358
  H   -1.45141231794900     -0.87756160438701     -0.56641900848964
  C   1.78109323963654      0.20597540544543     -0.17797362240204
  N   2.71197165599059      0.91614978765287     -0.27124534306210
  N   -1.16039398183349      0.85573844350545      0.55189278379587
  O   -0.31887599015318      1.57909095159035      1.07254844499412
  O   -2.36818963250589      0.86921915397982      0.76380986569656
