11
Coordinates from ORCA-job run
  C   0.72497944246026     -0.65622196377763     -0.18907712124974
  C   -0.73365151579353     -0.25671376323455     -0.33489138968990
  Br  1.07057458303836     -1.34537826741877      1.60125926012256
  H   -0.90847250873095      0.18080051940689     -1.32187986720402
  H   0.90064452366526     -1.50180353433479     -0.85917136151110
  H   -1.38617610929073     -1.11440361523482     -0.18384012830215
  C   1.67682352148560      0.39353815340748     -0.52849737560692
  N   2.46852581197679      1.19069791992016     -0.87086802216776
  N   -1.15888120722410      0.77617923912625      0.66109130236063
  O   -2.30082193362145      0.67088242642319      1.09579327936779
  O   -0.35354460796551      1.66042288571658      0.92908142388064
