11
Coordinates from ORCA-job run
  C   0.70540156316766     -0.55975141423160     -0.38680400839226
  C   -0.73008725786855     -0.35730403778643      0.07217003696556
  Br  1.07777978495700     -2.47388175722134     -0.38666327848988
  H   -1.42252448594860     -0.88659398837665     -0.58463193321113
  H   0.83250778802275     -0.21596186198234     -1.41215759011017
  H   -0.88162073521717     -0.67299254376767      1.10274223499490
  C   1.64815162447086      0.13019754144770      0.48255360298352
  N   2.38660864160352      0.69617311332939      1.19964870414162
  N   -1.10276923460130      1.09420766224101     -0.00105813544860
  O   -0.54665419570251      1.77023649390681     -0.86331030127010
  O   -1.96779349288364      1.47567079244113      0.77751066783655
