11
Coordinates from ORCA-job run
  C   0.73174418995811     -0.66262668421307     -0.14302454590958
  C   -0.72684657414915     -0.27974303963369     -0.32887448383357
  Br  1.05883078427906     -1.24965194722903      1.68641620162881
  H   -1.37740216781458     -1.13102409622395     -0.13815086168198
  H   0.91908308001134     -1.54282379095548     -0.76362047168669
  H   -0.89127737165008      0.10029293014654     -1.34114336242984
  C   1.68196886317177      0.37238347564354     -0.52912155219273
  N   2.46660152760278      1.16270339524365     -0.90216858706494
  N   -1.17118370069796      0.80481988301163      0.60190073805998
  O   -2.32284057613523      0.72314170242318      1.01561576841940
  O   -0.37067805457605      1.70152817178670      0.84117115669116
