11
Coordinates from ORCA-job run
  C   0.73329119601341     -0.64653733060153     -0.18640976173950
  C   -0.73212679383999     -0.27035878583749     -0.33304704424355
  Br  1.09400365751104     -1.30026119629890      1.61395662905374
  H   -1.37078670970133     -1.13716102186486     -0.17539680083005
  H   0.91953302200254     -1.49965716562089     -0.84395697487082
  H   -0.91320900766431      0.15981975599150     -1.32199310409841
  C   1.66847633875683      0.41217384120935     -0.54402208584908
  N   2.44244497033420      1.22362334577264     -0.89328281869954
  N   -1.16683367745586      0.76053628472858      0.65996027221463
  O   -2.27765785221669      0.60519490751886      1.15627742606160
  O   -0.39713514373988      1.69162736500283      0.86791426300099
