15

C	0.0	0.0	0.0
C	-0.531991	0.116784	-1.430275
Cl	1.778887	0.0	0.0
H	-1.616595	0.293673	-1.262236
H	-0.273601	0.921349	0.523094
N	-0.567389	-1.194913	0.553865
H	-0.358851	-1.211946	1.548106
H	-1.59611	-0.989938	0.475179
N	-0.333878	-1.007605	-2.287833
H	-0.938872	-1.739085	-1.932494
H	0.622874	-1.335893	-2.205622
N	0.04076	1.353486	-2.04552
O	0.741265	1.256652	-3.051267
O	-0.2141	2.413224	-1.470311
H	-2.998485	0.0	0.0
