15

C	0.0	0.0	0.0
C	-0.53089	-0.081956	-1.430765
Cl	1.7808	0.0	0.0
H	-0.328054	0.847411	-1.966398
H	-0.290691	0.952214	0.44955
N	-0.518883	-1.088926	0.775355
H	-0.061774	-1.112284	1.679506
H	-0.286986	-1.928933	0.234519
N	-1.993234	-0.319784	-1.307747
H	-2.427488	-0.070988	-2.199324
H	-2.020101	-1.342829	-1.239635
N	0.012411	-1.148828	-2.217427
O	0.832674	-0.872899	-3.193097
O	-0.121997	-2.360875	-1.645796
H	-2.948546	0.0	0.0
