15

C	0.0	0.0	0.0
C	-0.575233	0.215102	-1.381268
Cl	1.806913	0.0	0.0
H	-1.667533	0.350697	-1.141594
H	-0.261472	0.871934	0.60153
N	-0.534514	-1.244976	0.487472
H	-0.278614	-1.327374	1.46691
H	-1.565015	-1.060844	0.464821
N	-0.27131	-0.86658	-2.271574
H	-0.272169	-1.701394	-1.695304
H	-1.015518	-0.953993	-2.951825
N	-0.135933	1.520397	-1.95827
O	-0.058631	2.478449	-1.187507
O	-0.000506	1.597899	-3.179107
H	-3.002126	0.0	0.0
