15

C	0.0	0.0	0.0
C	-0.376603	-0.0363	-1.495862
Cl	1.830648	0.0	0.0
H	0.153175	0.794458	-1.979813
H	-0.289222	0.969609	0.401479
N	-0.537356	-1.034734	0.764645
H	-0.304501	-1.937093	0.380067
H	-0.317089	-0.967592	1.748218
N	-1.743276	-0.084376	-1.764243
H	-2.452513	-0.130743	-0.913449
H	-2.025909	0.710791	-2.329905
N	0.331012	-1.262377	-2.135017
O	0.163063	-2.358088	-1.608575
O	0.950543	-1.085241	-3.182188
H	-3.541327	0.0	0.0
