11
Coordinates from ORCA-job run
  C   1.46662903348547      0.14211486337029      0.15707087045889
  C   0.16036296252733     -0.12627311416160     -0.01693896724489
  H   2.23886639983865     -0.55459016950419     -0.15272468506308
  H   1.78373231183469      1.05783652857687      0.63761409198564
  C   -0.92787569593526      0.81466366432867      0.41151352780938
  H   -1.57713168487086      0.33130352213877      1.14637455905437
  H   -1.55253789005734      1.09991394556143     -0.44212932094481
  H   -0.51456361443807      1.72375405600474      0.84741192059012
  N   -0.32058389202968     -1.34688071968243     -0.51324372292078
  H   0.38585219642120     -1.89391268234759     -0.98401858079715
  H   -1.14275012677614     -1.24692989428495     -1.09092969292768
