11
Coordinates from ORCA-job run
  C   1.46999474912296      0.14003849053726     -0.12132065330906
  C   0.14851672277045     -0.10770009967841     -0.09153660658634
  H   1.85843250804566      1.10740154540451      0.16728044514072
  H   2.18201588914597     -0.60408722531528     -0.46355834276449
  C   -0.85917919344376      0.90677821991943      0.36516089017172
  H   -0.37448489337142      1.83151813480302      0.67695615533991
  H   -1.43906428764162      0.52395071464417      1.21221026878152
  H   -1.56390085448722      1.12869972558603     -0.44067554822180
  N   -0.42960491732498     -1.29031785325067     -0.57468800042416
  H   0.23450311384345     -2.04172201754047     -0.69378562230742
  H   -1.22722883665951     -1.59555963510958     -0.03604298582060
