11
Coordinates from ORCA-job run
  C   1.47029828556254      0.07391476097730      0.16805864858506
  C   0.15044678365150     -0.13777096146301      0.02058243495660
  H   1.84819431876119      1.05377871291153      0.42695497142656
  H   2.19171105496789     -0.73035345491668      0.06539316700909
  C   -0.86994192167217      0.95305965461104      0.16921838712178
  H   -1.45663572825065      1.06372032366283     -0.74940040554218
  H   -1.56700731422182      0.71110013362414      0.97594489532826
  H   -0.39574857954007      1.90996136716029      0.38547906182795
  N   -0.41328923167600     -1.40523668178623     -0.18431503064570
  H   -1.21473595045855     -1.39279656294772     -0.79835340576481
  H   0.25770828287615     -2.09937729183351     -0.48056272430261
