11
Coordinates from ORCA-job run
  C   1.46482438773049      0.12068479146162      0.18786974619247
  C   0.16413843317181     -0.09526223171967     -0.07672379658664
  H   2.23361901453541     -0.57626472569775     -0.13003291858146
  H   1.78356229707206      1.01550506636188      0.70517314863143
  C   -0.92004225460260      0.85594126962793      0.33922758463245
  H   -1.45263096700987      1.22877842575812     -0.53971655860421
  H   -1.65375640764551      0.35297973066438      0.97876488611977
  H   -0.51230476994646      1.70158630263805      0.89233438646567
  N   -0.30127362191394     -1.16591520626947     -0.85405210627866
  H   -1.18570856010585     -1.53571672246545     -0.53677217748548
  H   0.37857244871445     -1.90431670035964     -0.96607219450533
