11
Coordinates from ORCA-job run
  C   1.45691450401653      0.04925087001534      0.26625233134191
  C   0.15422437208220     -0.13385097499282     -0.01285265671483
  H   2.20930792272385     -0.67539654527145     -0.02808940914314
  H   1.78799638490815      0.91770128361390      0.81949087553573
  C   -0.91025050217942      0.84413189693882      0.39172636847430
  H   -0.48091119563734      1.70648511862935      0.90094491698421
  H   -1.63302741843927      0.36212439725716      1.05540189625086
  H   -1.45942691171411      1.20521497791942     -0.48482273591308
  N   -0.35444755203987     -1.29650831657412     -0.61001325783203
  H   -1.12473453895942     -1.11923428295509     -1.23840137186846
  H   0.35435493523869     -1.85891842458052     -1.05863695711546
