11
Coordinates from ORCA-job run
  C   1.47126629765628      0.12606088370478     -0.12513563956188
  C   0.14776815552045     -0.11043472086514     -0.08964408907314
  H   1.86805241770339      1.09456583119312      0.14777226507968
  H   2.17627952108446     -0.62933336947298     -0.45705389089828
  C   -0.85080412787275      0.91928270022514      0.35315891656913
  H   -1.43288091490098      0.55403420428744      1.20643304052350
  H   -0.35787898023232      1.84434839011855      0.65073617896289
  H   -1.55445374398418      1.13528479197103     -0.45518114063556
  N   -0.44115960358110     -1.29482950787887     -0.55461187301954
  H   0.21558629631035     -2.05395708324150     -0.66479788356348
  H   -1.24077531770361     -1.58502212004155     -0.01067588438333
