19

C	-0.406646	0.021545	-1.482757
C	0.0	0.0	0.0
Br	-0.056103	1.873651	-2.178402
H	1.097223	0.0	0.0
N	0.414485	-0.843737	-2.294016
H	1.387367	-0.75161	-1.999929
H	0.126268	-1.804763	-2.145989
C	-1.878695	-0.245369	-1.726626
H	-2.116688	-0.091336	-2.780153
H	-2.478662	0.418375	-1.102608
H	-2.114666	-1.282566	-1.464469
C	-0.427761	-1.311607	0.656222
H	-1.507785	-1.336896	0.824561
H	-0.12488	-2.179371	0.068149
H	0.077044	-1.397418	1.622309
N	-0.602344	1.093927	0.76778
H	-0.31446	0.966855	1.732614
H	-0.165388	1.957522	0.466161
Br	3.644579	0.0	0.0
