19

C	-0.441496	0.050557	-1.474371
C	0.0	0.0	0.0
Br	0.191179	-1.666843	-2.394144
H	1.094451	0.0	0.0
N	-1.860217	0.164785	-1.586379
H	-2.312159	-0.653253	-1.194147
H	-2.13256	0.239354	-2.559887
C	0.259453	1.163273	-2.231455
H	1.337191	1.080919	-2.079536
H	0.039068	1.108165	-3.301053
H	-0.090791	2.126286	-1.852345
C	-0.544327	-1.17955	0.790645
H	-1.631419	-1.101264	0.916186
H	-0.298363	-2.136663	0.330719
H	-0.100685	-1.142415	1.786428
N	-0.404058	1.240115	0.68177
H	-1.289311	1.559057	0.301696
H	0.298902	1.950367	0.516809
Br	3.664607	0.0	0.0
