19

C	-0.555344	0.02549	-1.426504
C	0.0	0.0	0.0
Br	0.29165	1.537132	-2.394615
H	1.099983	0.0	0.0
N	-0.142415	-1.170945	-2.141186
H	-0.68025	-1.954967	-1.78216
H	-0.363623	-1.066683	-3.126495
C	-2.058711	0.283552	-1.479593
H	-2.389598	0.328963	-2.520297
H	-2.577371	-0.545942	-0.986484
H	-2.325518	1.204727	-0.965286
C	-0.429431	-1.26349	0.741555
H	-0.004455	-1.230664	1.748141
H	-0.015828	-2.152693	0.264135
H	-1.516168	-1.346094	0.835523
N	-0.512392	1.170207	0.742308
H	-0.069319	1.988571	0.331564
H	-0.116746	1.104633	1.676117
Br	3.734547	0.0	0.0
