19

C	-0.323502	-0.053327	-1.477379
C	0.0	0.0	0.0
Br	-2.654788	-0.340899	-1.519055
H	1.102327	0.0	0.0
N	-0.069087	1.118956	-2.082868
H	-0.24455	1.920888	-1.487533
H	-0.274707	1.202071	-3.064013
C	0.1246	-1.274983	-2.227484
H	1.213358	-1.327512	-2.108671
H	-0.126502	-1.193382	-3.28719
H	-0.33532	-2.177572	-1.83489
C	-0.437722	-1.200191	0.824553
H	-1.525933	-1.268036	0.883756
H	-0.022041	-1.09103	1.830255
H	-0.04578	-2.134368	0.416362
N	-0.431328	1.293068	0.530275
H	-1.371693	1.20893	0.901018
H	0.200364	1.567949	1.271631
Br	3.552684	0.0	0.0
