19

C	-0.338983	-0.01746	-1.483836
C	0.0	0.0	0.0
F	-1.743851	0.107746	-1.661926
H	1.091505	0.0	0.0
C	0.346544	1.196298	-2.083185
H	-0.091564	2.105422	-1.674917
H	1.396925	1.142645	-1.781941
H	0.251213	1.190219	-3.172914
C	0.114142	-1.280954	-2.183668
H	1.164114	-1.441872	-1.930934
H	-0.004415	-1.15625	-3.264033
H	-0.465967	-2.145906	-1.863704
N	-0.498537	-1.257195	0.681552
O	-1.451799	-1.163534	1.465
O	0.074542	-2.318096	0.438753
N	-0.50272	1.17464	0.641351
H	0.026036	1.324357	1.490884
H	-1.478363	1.052433	0.88129
F	2.619365	0.0	0.0
