19

C	-0.453756	-0.001884	-1.466898
C	0.0	0.0	0.0
F	-0.242348	-1.287043	-1.999152
H	1.09106	0.0	0.0
C	-1.928977	0.292238	-1.658017
H	-2.172126	1.280523	-1.264603
H	-2.535554	-0.456458	-1.141306
H	-2.173291	0.261708	-2.72386
C	0.478137	0.945172	-2.200122
H	0.251761	1.976867	-1.92473
H	1.499506	0.714002	-1.878738
H	0.360179	0.819734	-3.281391
N	-0.537959	-1.233345	0.67797
O	0.056968	-2.29235	0.519527
O	-1.581979	-1.123406	1.34196
N	-0.441793	1.20715	0.6467
H	-1.336594	1.055432	1.095696
H	0.246508	1.440384	1.351133
F	2.630826	0.0	0.0
