19

C	-0.400641	-0.087363	-1.492989
C	0.0	0.0	0.0
F	-0.214594	1.216828	-1.982589
H	1.090487	0.0	0.0
C	0.575524	-0.951448	-2.273494
H	0.507799	-0.682817	-3.332477
H	1.575405	-0.741521	-1.880228
H	0.362876	-2.012294	-2.15299
C	-1.865339	-0.408447	-1.710895
H	-2.097665	-1.422041	-1.376814
H	-2.478887	0.308836	-1.159252
H	-2.108279	-0.327784	-2.774372
N	-0.426002	-1.257333	0.693924
O	-1.062585	-1.17344	1.752593
O	-0.119583	-2.335535	0.184252
N	-0.530822	1.163137	0.65298
H	0.2298	1.583337	1.172073
H	-1.244774	0.887982	1.315058
F	2.605561	0.0	0.0
