17

C	-0.589899	0.144975	-1.461925
C	0.004384	0.072478	-0.067195
Br	0.074352	1.689489	-2.466874
H	1.096329	-0.042896	-0.063684
N	-0.023816	-1.094712	-2.23972
O	-0.851662	-1.960508	-2.533102
O	1.174877	-1.14409	-2.454337
N	-1.998525	0.181505	-1.475778
H	-2.35984	-0.575165	-0.908336
H	-2.359159	0.091333	-2.417878
C	-0.454497	-1.166231	0.710198
H	0.320584	-1.315092	1.471749
H	-1.443232	-1.053819	1.164377
H	-0.435396	-2.054207	0.073701
C	-0.330787	1.282757	0.667105
N	-0.590914	2.236553	1.303291
H	2.452638	-0.684529	0.693739
