17

C	-0.520789	-0.039795	-1.442701
C	0.0	0.0	0.0
Br	0.379711	-1.414524	-2.472354
H	1.092979	0.0	0.0
C	-1.955842	-0.302648	-1.502523
N	-3.108058	-0.537187	-1.475996
N	-0.259322	1.313249	-2.102974
O	-1.214207	2.090757	-2.125189
O	0.876197	1.556254	-2.474186
N	-0.416116	-1.253754	0.621989
H	-1.142147	-1.10576	1.311843
H	0.402327	-1.639907	1.076417
C	-0.495061	1.235372	0.737529
H	-1.590294	1.293768	0.79745
H	-0.118313	2.157219	0.290369
H	-0.086089	1.183179	1.749637
F	2.588446	0.0	0.0
