17

C	-0.421631	-0.086388	-1.483661
C	0.0	0.0	0.0
Br	0.57176	-1.475583	-2.414015
H	1.093138	0.0	0.0
C	-1.842303	-0.384819	-1.641846
N	-2.980732	-0.682249	-1.658166
N	-0.145573	1.250119	-2.169749
O	1.003948	1.503695	-2.485331
O	-1.11427	2.004351	-2.264878
N	-0.396273	-1.186487	0.737587
H	0.302164	-1.90166	0.585558
H	-1.311989	-1.542127	0.488224
C	-0.559267	1.255434	0.647301
H	-0.13677	2.160911	0.207543
H	-1.654366	1.316504	0.606186
H	-0.252755	1.216606	1.693185
F	2.587756	0.0	0.0
