17

C	-0.426056	-0.006195	-1.454653
C	0.0	0.0	0.0
Br	-0.250062	1.73126	-2.344404
H	1.095745	0.0	0.0
C	0.360613	-0.9697	-2.219583
N	0.973337	-1.74768	-2.852588
N	-1.90952	-0.387206	-1.637035
O	-2.696575	0.102506	-0.836088
O	-2.2061	-1.127743	-2.564697
N	-0.387749	-1.333147	0.473012
H	0.426182	-1.743288	0.914134
H	-1.14728	-1.283168	1.140852
C	-0.464453	1.143628	0.88049
H	0.057511	1.028258	1.832489
H	-0.170774	2.110096	0.47224
H	-1.54203	1.146991	1.057789
F	2.580364	0.0	0.0
