17

C	-0.483126	0.026467	-1.429364
C	0.0	0.0	0.0
Br	-2.465858	0.105136	-1.590898
H	1.095401	0.0	0.0
C	0.029509	1.166704	-2.178941
N	0.423965	2.108069	-2.762568
N	-0.006293	-1.251348	-2.141099
O	1.159648	-1.199072	-2.513661
O	-0.765288	-2.201985	-2.232898
N	-0.398929	-1.252242	0.62054
H	-1.182472	-1.131153	1.250891
H	0.401947	-1.587909	1.142
C	-0.411319	1.247505	0.763643
H	-1.488276	1.276935	0.972793
H	-0.131516	2.160266	0.230884
H	0.138203	1.243137	1.70839
F	2.552045	0.0	0.0
