18

C	0.0	0.0	0.0
C	-0.484827	-0.255559	-1.426188
Cl	1.814199	0.0	0.0
H	-0.043359	0.510631	-2.07406
H	-1.568463	-0.091751	-1.396552
C	-0.462487	1.373765	0.454
H	-0.068781	1.608854	1.44614
H	-0.125995	2.143187	-0.245818
H	-1.555972	1.36186	0.485047
C	-0.477361	-1.065056	0.970016
H	-1.570491	-1.090542	0.91975
H	-0.16865	-0.812365	1.987816
H	-0.069795	-2.047106	0.723404
C	-0.197071	-1.643294	-1.985291
H	0.863894	-1.898231	-1.911937
H	-0.778979	-2.403797	-1.462372
H	-0.483542	-1.685842	-3.039883
Cl	-3.919352	0.0	0.0
