13

C	-0.419839	0.172947	-1.442846
C	0.0	0.0	0.0
Br	0.016277	-1.547903	-2.445413
H	1.098048	0.0	0.0
H	0.230957	0.896274	-1.935695
H	-0.444872	-0.910444	0.421901
N	-1.789737	0.526856	-1.624805
H	-2.017443	0.622137	-2.606084
H	-2.381103	-0.192947	-1.226566
N	-0.370868	1.192212	0.784603
H	-1.106422	1.713815	0.320945
H	0.462877	1.769233	0.816093
F	2.695137	0.0	0.0
