13

C	-0.527872	-0.089771	-1.410355
C	0.0	0.0	0.0
Br	-0.201705	-1.849244	-2.222989
H	1.093105	0.0	0.0
H	0.071943	0.579718	-2.03789
H	-0.296614	1.014646	0.339834
N	-1.964469	0.150355	-1.48654
H	-2.250094	0.220753	-2.457307
H	-2.136815	1.047974	-1.044128
N	-0.496485	-1.056666	0.872874
H	-1.31711	-0.774694	1.389798
H	0.245305	-1.273818	1.524673
F	2.710097	0.0	0.0
