13

C	-0.136871	0.068347	-1.504571
C	0.0	0.0	0.0
Br	-1.969298	0.972296	-2.052203
H	1.097204	0.0	0.0
H	-0.350989	-0.915038	-1.927075
H	-0.342311	0.938285	0.450973
N	0.948826	0.7798	-2.035795
H	1.780124	0.635429	-1.422641
H	1.137058	0.548997	-2.999768
N	-0.58441	-1.208155	0.565915
H	-1.493587	-1.007325	0.96292
H	0.018948	-1.525123	1.31388
F	2.744866	0.0	0.0
