13

C	-0.557401	0.000305	-1.412723
C	0.0	0.0	0.0
Br	-0.327605	-1.776064	-2.215128
H	1.097356	0.0	0.0
H	0.049533	0.665126	-2.028525
H	-0.415641	-0.845651	0.563896
N	-1.955194	0.381712	-1.561349
H	-2.510275	-0.29893	-1.050926
H	-2.009954	1.247904	-1.027444
N	-0.385988	1.308981	0.599498
H	-0.91428	1.16483	1.45089
H	0.493599	1.735845	0.869973
F	2.706001	0.0	0.0
