13

C	-0.111859	-0.19083	-1.516267
C	0.0	0.0	0.0
Br	-0.441973	1.992094	-2.464278
H	1.094814	0.0	0.0
H	-1.030102	-0.486715	-2.01501
H	-0.365552	-0.944032	0.421289
N	1.021488	-0.732522	-1.957927
H	1.887598	-0.505816	-1.382882
H	1.098957	-0.976135	-2.933226
N	-0.588037	1.131043	0.681483
H	0.031846	1.918719	0.525713
H	-1.467375	1.386744	0.252032
F	2.764787	0.0	0.0
