14

C	0.0	0.0	0.0
C	-0.489673	-0.348307	-1.440882
F	1.37676	0.0	0.0
H	0.450438	-0.444352	-1.997526
H	-0.354507	-0.73781	0.720893
C	-0.390705	1.356883	0.426128
N	-0.59311	2.465087	0.753107
N	-1.306772	0.634853	-2.128836
H	-0.845915	1.538125	-2.141404
H	-2.188142	0.727577	-1.620527
N	-1.12523	-1.652054	-1.378804
H	-2.007735	-1.515708	-0.881834
H	-1.385414	-1.891508	-2.329546
Cl	-3.714993	0.0	0.0
