14

C	0.0	0.0	0.0
C	-0.454004	-0.237101	-1.476502
F	1.387424	0.0	0.0
H	0.502665	-0.354301	-1.999432
H	-0.348069	-0.809006	0.643803
C	-0.402761	1.289522	0.581381
N	-0.592831	2.341116	1.066125
N	-1.112141	0.939732	-2.004093
H	-1.9954	1.032745	-1.498869
H	-1.361929	0.719649	-2.962556
N	-1.2155	-1.457628	-1.702759
H	-2.102083	-1.365976	-1.204078
H	-0.713754	-2.256317	-1.326058
Cl	-3.573591	0.0	0.0
