14

C	0.0	0.0	0.0
C	-0.420025	-0.052501	-1.478757
F	1.38983	0.0	0.0
H	0.111036	0.794812	-1.946304
H	-0.366298	-0.875851	0.538694
C	-0.423886	1.248555	0.649119
N	-0.674805	2.27397	1.161748
N	-1.810899	0.083034	-1.780016
H	-2.14622	1.024909	-1.622723
H	-2.421774	-0.499933	-1.210082
N	0.033153	-1.350663	-1.970715
H	1.043364	-1.365255	-2.034886
H	-0.359594	-1.460056	-2.89801
Cl	-4.493009	0.0	0.0
