14

C	0.0	0.0	0.0
C	-0.504993	-0.2021	-1.438177
F	1.3795	0.0	0.0
H	-1.563283	-0.456513	-1.353341
H	-0.354234	-0.821428	0.627363
C	-0.407622	1.283958	0.592893
N	-0.583995	2.344152	1.064237
N	0.197233	-1.284489	-2.107625
H	1.19093	-1.185105	-1.933745
H	-0.109741	-2.171033	-1.726017
N	-0.254243	1.018145	-2.200088
H	-0.931203	1.714488	-1.901539
H	-0.471932	0.790949	-3.163924
Cl	-3.493145	0.0	0.0
