14

C	0.0	0.0	0.0
C	-0.475277	0.423509	-1.398717
F	1.389034	0.0	0.0
H	-0.169372	-0.398655	-2.069342
H	-0.350317	-1.005516	0.250106
C	-0.424625	0.952249	1.037734
N	-0.656437	1.687758	1.922072
N	0.177973	1.691667	-1.697482
H	1.164268	1.557693	-1.87337
H	-0.266536	2.056583	-2.529311
N	-1.883253	0.620089	-1.555003
H	-2.261476	1.266198	-0.869308
H	-2.444182	-0.217427	-1.440686
Cl	-4.600438	0.0	0.0
