14

C	0.0	0.0	0.0
C	-0.48778	0.280449	-1.422148
F	1.393016	0.0	0.0
H	-1.54308	0.546795	-1.334511
H	-0.362495	-0.968345	0.345029
C	-0.404538	1.056657	0.949094
N	-0.579057	1.919844	1.723832
N	-0.406677	-0.907243	-2.277219
H	0.446872	-1.422312	-2.076804
H	-1.196094	-1.505546	-2.051101
N	0.258764	1.41533	-1.932843
H	-0.096809	1.61096	-2.860282
H	1.232839	1.151573	-2.030649
Cl	-3.476159	0.0	0.0
