14

C	0.0	0.0	0.0
C	-0.448368	0.106599	-1.49696
F	1.376014	0.0	0.0
H	0.511972	0.17121	-2.022417
H	-0.363868	-0.918952	0.458677
C	-0.39755	1.16928	0.800887
N	-0.602302	2.126201	1.448146
N	-1.23031	1.266195	-1.893473
H	-0.755894	2.120739	-1.620101
H	-2.119393	1.223752	-1.394036
N	-1.082816	-1.147804	-1.856952
H	-1.321135	-1.076653	-2.840729
H	-1.973058	-1.166956	-1.356434
Cl	-3.549551	0.0	0.0
