18

C	-0.378715	-0.032341	-1.481616
C	0.0	0.0	0.0
Cl	-2.206607	0.031488	-1.644888
H	1.093377	0.0	0.0
C	0.169632	1.218917	-2.149494
H	-0.237869	2.120435	-1.696007
H	1.256552	1.210211	-2.022095
H	-0.077941	1.197608	-3.215143
N	0.068961	-1.262495	-2.067973
H	0.986554	-1.496719	-1.695583
H	0.13641	-1.151678	-3.074684
N	-0.442546	-1.296571	0.668523
O	-1.473304	-1.261911	1.346777
O	0.254726	-2.292226	0.502458
N	-0.495417	1.149798	0.670164
H	-1.465931	1.013995	0.919734
H	0.048612	1.301397	1.507208
Cl	3.335009	0.0	0.0
