18

C	-0.567823	-0.048581	-1.428898
C	0.0	0.0	0.0
Cl	0.209124	1.404672	-2.268615
H	1.088037	0.0	0.0
C	-0.160962	-1.255829	-2.248668
H	0.917889	-1.397837	-2.190004
H	-0.446922	-1.093104	-3.291162
H	-0.665609	-2.14645	-1.876208
N	-1.983388	0.091961	-1.358504
H	-2.375509	0.14051	-2.291431
H	-2.188693	0.960227	-0.874181
N	-0.414457	-1.288181	0.704845
O	0.143674	-2.321973	0.354654
O	-1.282026	-1.22798	1.579233
N	-0.508308	1.140585	0.712269
H	-1.210119	0.829741	1.373581
H	0.258046	1.564542	1.219531
Cl	3.328166	0.0	0.0
