18

C	-0.396543	0.039571	-1.479534
C	0.0	0.0	0.0
Cl	-2.192846	0.656377	-1.635817
H	1.090924	0.0	0.0
C	0.445656	1.095165	-2.170754
H	0.176383	1.151206	-3.228581
H	1.497432	0.821098	-2.052797
H	0.280454	2.074213	-1.722548
N	-0.231472	-1.209004	-2.099838
H	-0.312752	-1.139461	-3.104291
H	-0.870721	-1.897923	-1.728747
N	-0.449861	-1.276378	0.679035
O	-1.47885	-1.837147	0.280171
O	0.210075	-1.641436	1.642773
N	-0.433252	1.085732	0.820587
H	0.332103	1.714542	1.006675
H	-1.237337	1.562725	0.443195
Cl	3.371077	0.0	0.0
