18

C	-0.499695	0.04847	-1.442324
C	0.0	0.0	0.0
Cl	-2.448533	-0.039254	-1.273609
H	1.094808	0.0	0.0
C	-0.229142	1.406252	-2.052571
H	-0.725237	2.194061	-1.494739
H	-0.569768	1.413986	-3.091631
H	0.85282	1.560893	-2.020544
N	-0.013031	-0.96339	-2.252506
H	-0.37008	-0.928762	-3.194362
H	-0.037207	-1.883125	-1.841124
N	-0.40531	-1.320505	0.670183
O	-0.940509	-1.257853	1.773699
O	-0.143803	-2.375756	0.092813
N	-0.432454	1.123007	0.751741
H	0.177872	1.239898	1.548203
H	-1.384576	1.006803	1.070973
Cl	3.279663	0.0	0.0
