15

C	-0.248315	0.015226	-1.512802
C	0.0	0.0	0.0
F	-1.570266	0.38019	-1.798305
H	1.092611	0.0	0.0
N	0.640308	1.002003	-2.022704
H	1.54973	0.886429	-1.546979
H	0.773183	0.887468	-3.018487
C	-0.082727	-1.294273	-2.191105
N	0.09124	-2.213304	-2.903043
N	-0.466745	-1.181791	0.721513
O	-0.108484	-2.273123	0.268708
O	-1.094135	-1.026313	1.773135
C	-0.499849	1.219636	0.595121
N	-0.87465	2.214091	1.095706
H	2.470685	0.0	0.0
