17

C	-0.548875	-0.050498	-1.429357
C	0.0	0.0	0.0
F	0.03945	-1.149482	-2.049568
H	1.099258	0.0	0.0
N	-1.974279	-0.229691	-1.499
H	-2.454083	0.658707	-1.533276
H	-2.238399	-0.738387	-0.659188
C	-0.179746	1.152084	-2.205399
N	0.093064	2.129066	-2.795473
N	-0.523807	-1.213041	0.65795
H	-0.298636	-1.13784	1.644124
H	0.025873	-1.99356	0.310981
C	-0.492786	1.230882	0.74021
H	-0.180129	2.145214	0.232289
H	-0.045921	1.250573	1.737251
H	-1.581984	1.225791	0.846887
Cl	3.470329	0.0	0.0
