17

C	-0.341751	-0.036665	-1.483995
C	0.0	0.0	0.0
F	-0.050792	1.227029	-2.046571
H	1.105829	0.0	0.0
N	0.408161	-1.069261	-2.097881
H	1.39293	-0.933053	-1.871183
H	0.277739	-1.067767	-3.100721
C	-1.791104	-0.226585	-1.729421
N	-2.936736	-0.312494	-1.968296
N	-0.55206	-1.219842	0.602544
H	-0.095819	-2.010369	0.15886
H	-0.25644	-1.232232	1.573727
C	-0.553627	1.221443	0.701475
H	-1.648133	1.213571	0.683759
H	-0.18207	2.134133	0.237284
H	-0.223697	1.217835	1.744352
Cl	3.493843	0.0	0.0
