17

C	-0.334913	0.048101	-1.493878
C	0.0	0.0	0.0
F	-1.629567	0.536575	-1.714417
H	1.10251	0.0	0.0
N	0.591461	0.920308	-2.138598
H	1.52823	0.789743	-1.756958
H	0.608219	0.777198	-3.139738
C	-0.359487	-1.320567	-2.07958
N	-0.338542	-2.379592	-2.586511
N	-0.589739	-1.189019	0.619669
H	0.044035	-1.969158	0.476657
H	-0.617385	-1.033896	1.621275
C	-0.504549	1.2585	0.682039
H	-0.063623	1.328234	1.680322
H	-0.212011	2.14359	0.117421
H	-1.593839	1.230034	0.766822
Cl	3.44444	0.0	0.0
