17

C	-0.348719	0.046138	-1.487877
C	0.0	0.0	0.0
F	-1.668303	0.461207	-1.694584
H	1.103724	0.0	0.0
N	0.515722	0.977334	-2.140677
H	1.472298	0.854698	-1.81131
H	0.484383	0.861984	-3.145475
C	-0.29578	-1.320759	-2.072797
N	-0.214859	-2.39888	-2.531136
N	-0.57486	-1.196158	0.622127
H	0.080291	-1.962977	0.503399
H	-0.631083	-1.03139	1.621048
C	-0.514738	1.254438	0.681371
H	-1.602475	1.207215	0.780688
H	-0.246323	2.142006	0.108887
H	-0.061718	1.334548	1.673069
Cl	3.471888	0.0	0.0
