17

C	-0.508165	-0.012009	-1.438488
C	0.0	0.0	0.0
F	-0.099844	-1.149196	-2.092023
H	1.096265	0.0	0.0
N	-1.960749	-0.027309	-1.479266
H	-2.312134	0.874655	-1.179198
H	-2.245458	-0.159528	-2.444395
C	0.028497	1.141225	-2.217726
N	0.328714	2.103526	-2.821425
N	-0.424814	-1.23899	0.637684
H	0.296099	-1.526951	1.285249
H	-1.29711	-1.115319	1.1347
C	-0.453428	1.264559	0.730393
H	0.041966	1.295685	1.702542
H	-0.175924	2.176446	0.194162
H	-1.536956	1.263816	0.902594
Cl	3.446551	0.0	0.0
