17

C	-0.363494	-0.049801	-1.486359
C	0.0	0.0	0.0
F	-0.112816	1.190804	-2.055058
H	1.09705	0.0	0.0
N	0.388043	-1.025228	-2.229988
H	0.233965	-1.911717	-1.758204
H	1.370538	-0.793349	-2.068273
C	-1.819429	-0.311625	-1.642673
N	-2.972614	-0.524401	-1.698287
N	-0.410419	-1.292046	0.559572
H	0.282401	-1.590367	1.234065
H	-1.303385	-1.208842	1.031733
C	-0.555233	1.212292	0.724776
H	-1.652469	1.202274	0.727145
H	-0.214845	2.137049	0.257535
H	-0.205309	1.204441	1.76022
Cl	3.432103	0.0	0.0
