17

C	-0.296577	0.062431	-1.504956
C	0.0	0.0	0.0
F	-1.650351	0.383793	-1.728497
H	1.095968	0.0	0.0
N	0.515322	1.061999	-2.113946
H	1.463924	1.004284	-1.746584
H	0.537779	0.961107	-3.117958
C	-0.150821	-1.285425	-2.122442
N	-0.039133	-2.348649	-2.609401
N	-0.498033	-1.19113	0.668064
H	-1.433108	-1.413008	0.345357
H	0.106089	-1.976721	0.461628
C	-0.522336	1.25193	0.687282
H	-0.126804	1.270078	1.70379
H	-0.206484	2.152408	0.159271
H	-1.615401	1.236853	0.735028
Cl	3.413233	0.0	0.0
