17

C	-0.45422	-0.010985	-1.460783
C	0.0	0.0	0.0
F	0.025252	-1.14677	-2.089714
H	1.095849	0.0	0.0
N	-1.898587	-0.097662	-1.553504
H	-2.16838	-0.106601	-2.531457
H	-2.31295	0.719217	-1.120973
C	0.065078	1.150937	-2.227024
N	0.362239	2.111041	-2.834729
N	-0.436338	-1.215215	0.684471
H	0.270248	-1.923426	0.536246
H	-1.300372	-1.541879	0.268964
C	-0.506623	1.235104	0.733047
H	-0.261643	2.161544	0.205963
H	-1.588285	1.183415	0.903913
H	-0.022816	1.26203	1.709482
Cl	3.452104	0.0	0.0
