15
Coordinates from ORCA-job run
  C   -0.57860929788953      0.06203532606533      0.54033601435621
  C   0.89029900823602      0.32142840150147      0.21804346010202
  F   -0.90443889532197      0.76523210854522      1.62686996747029
  H   1.45730482203725     -0.01704990867525      1.09257731428260
  N   -1.50011742459053      0.45500084486764     -0.59360957153887
  O   -1.02330651873764      0.33268918142079     -1.71523448712260
  O   -2.61631304368005      0.82729295238319     -0.27298856337375
  N   -0.83662807612422     -1.40672309969445      0.87157402730786
  O   -1.65701338778401     -2.00530678077649      0.19636277265146
  O   -0.19266235583967     -1.80216267866698      1.83071559990641
  C   1.09794281211951      1.74032883032093     -0.01981380760116
  N   1.23427259770189      2.89747297268951     -0.16852890402807
  N   1.40881479772797     -0.51585903777765     -0.94462618859551
  O   2.13734040979494      0.04068478541529     -1.74710401304955
  O   1.08311455235006     -1.69306389761856     -0.91357362076735
