15
Coordinates from ORCA-job run
  C   -0.40923203676693     -0.65477629907221      0.15321939048335
  C   0.91534627730476      0.09615867343589      0.08118823411285
  F   -0.22780874021362     -1.96275717840811      0.01265092699735
  H   1.63672723006497     -0.49188100862418      0.65917896809850
  N   -1.00174754051485     -0.42437661370887      1.54716225137818
  O   -2.07759602980991      0.14766281529485      1.62770750015293
  O   -0.29782966711275     -0.86502875001782      2.44570990895428
  N   -1.42760789091759     -0.16151526754437     -0.85087277386149
  O   -2.24530166592361     -0.98242657295083     -1.22882751989007
  O   -1.33479238495986      1.02298621701372     -1.14080803144122
  C   0.85061191383745      1.44842599569295      0.61065491782682
  N   0.80802491241382      2.51844548408752      1.09315713376188
  N   1.46081080646147      0.11235314650426     -1.34321057744585
  O   0.92212692737973     -0.63632461587113     -2.14598498623922
  O   2.42726788875694      0.83505397416833     -1.52092534288828
