15
Coordinates from ORCA-job run
  C   -0.60456706415555      0.20164518359567      0.19550464975594
  C   0.85230921023234     -0.11278998254474     -0.10184561751126
  F   -0.82691892711419      1.48904123926321      0.37226578645131
  H   0.95432930126431     -1.17539484836921     -0.33079845791957
  N   -1.53302733541454     -0.34116268825394     -0.89087731772220
  O   -2.50460603904866      0.34503793177568     -1.15256920254561
  O   -1.21578672631271     -1.43236481394774     -1.34278326123982
  N   -1.02798497889352     -0.55306916184455      1.46148427608204
  O   -0.58147499751719     -1.68888768976744      1.56133505441056
  O   -1.78226447782086      0.04283896893428      2.21199157866062
  C   1.69107449180533      0.26884906430234      1.02404575320146
  N   2.33419908347689      0.57778873889323      1.95717790406904
  N   1.30576026586694      0.63361119433638     -1.35381822051549
  O   2.51229922529637      0.75313938291343     -1.48879495162051
  O   0.42465896833502      0.98971748071334     -2.12431797355654
