15
Coordinates from ORCA-job run
  C   -0.60509739393801      0.22353633745272      0.16919474582626
  C   0.85214375196925     -0.12271138593546     -0.08835701635709
  F   -0.83049410073797      1.52248521761583      0.17947093464200
  H   0.95597703237185     -1.20543001984563     -0.18313534774999
  N   -1.53399192880696     -0.45635032889513     -0.83740769728606
  O   -1.21534336585663     -1.59617232123612     -1.14516202726884
  O   -2.50498568895719      0.19030080229980     -1.18694239963796
  N   -1.02537437581538     -0.36369863279118      1.52149661382998
  O   -0.56933048711430     -1.47277892423858      1.76944357409555
  O   -1.78096859311664      0.32146796381212      2.19020251772718
  C   1.69175499441360      0.39805945300128      0.97961340533300
  N   2.33695366048016      0.81995751345659      1.86589771164406
  N   1.30136295384229      0.46256067209698     -1.42481636452764
  O   2.50688595203414      0.57594174281939     -1.57349889987188
  O   0.41850758923175      0.70283191038740     -2.23699975039852
