18

C	0.0	0.0	0.0
C	-0.222061	-0.032593	-1.580396
Br	1.982737	0.0	0.0
H	0.40619	0.811159	-1.8872
N	-0.247742	1.303014	0.581163
H	-1.262808	1.337256	0.648141
H	0.109702	1.256668	1.530597
N	-0.60827	-1.111532	0.759838
O	-0.589397	-0.977244	2.008354
O	-0.654416	-2.244196	0.209003
C	-1.603525	0.239566	-2.170052
H	-2.285453	-0.590758	-1.990055
H	-1.461145	0.345583	-3.255073
H	-2.053167	1.148762	-1.772564
N	0.294707	-1.224942	-2.259202
H	1.291347	-1.261286	-2.087615
H	-0.089293	-2.017191	-1.752191
H	-2.079429	0.0	0.0
