18

C	0.0	0.0	0.0
C	-0.398901	-0.048431	-1.504935
Br	1.959238	0.0	0.0
H	0.388431	-0.613111	-2.014483
N	-0.607774	0.942315	0.84766
H	-1.623515	0.718186	0.84975
H	-0.490794	1.865332	0.446797
N	-0.317838	-1.415067	0.571156
O	-1.044362	-1.473518	1.5518
O	0.182584	-2.36401	-0.016011
C	-0.419658	1.377602	-2.069307
H	0.5112	1.924918	-1.878985
H	-0.558557	1.322992	-3.152922
H	-1.268332	1.927887	-1.65744
N	-1.642039	-0.778498	-1.651078
H	-1.988085	-0.63575	-2.595345
H	-2.395468	-0.422975	-0.999825
H	-3.450376	0.0	0.0
