18

C	0.0	0.0	0.0
C	-0.220142	-0.076423	-1.580921
Br	1.960667	0.0	0.0
H	0.340024	0.837563	-1.853498
N	-0.666162	1.049831	0.619096
H	-1.723219	0.718776	0.531434
H	-0.563722	1.87516	0.035722
N	-0.363767	-1.275255	0.776664
O	-0.501166	-1.157303	1.985127
O	-0.423623	-2.324223	0.146518
C	-1.611478	0.119243	-2.16526
H	-2.119065	0.992733	-1.769768
H	-1.461873	0.246474	-3.249416
H	-2.249814	-0.735303	-1.972009
N	0.337105	-1.253188	-2.264672
H	0.499655	-0.978219	-3.230306
H	1.230348	-1.510341	-1.866275
H	-2.999172	0.0	0.0
