18

C	0.0	0.0	0.0
C	-0.247076	-0.123838	-1.558079
Br	1.946557	0.0	0.0
H	0.332413	0.738686	-1.903349
N	-0.690334	1.073109	0.533779
H	-0.517671	1.123313	1.535271
H	-1.743487	0.78095	0.388257
N	-0.337888	-1.323768	0.772089
O	-0.688797	-2.321072	0.15118
O	-0.26115	-1.246163	1.992865
C	-1.643303	0.055465	-2.143035
H	-2.307065	-0.763474	-1.882779
H	-1.496728	0.102487	-3.233873
H	-2.135587	0.961826	-1.801593
N	0.417728	-1.306671	-2.114562
H	-0.191139	-2.099236	-1.975148
H	0.513305	-1.161716	-3.110496
H	-3.065524	0.0	0.0
