18

C	0.0	0.0	0.0
C	-0.358898	-0.07044	-1.537895
Br	1.962467	0.0	0.0
H	0.422434	-0.676559	-2.001341
N	-0.631231	0.958858	0.80313
H	-1.651259	0.714046	0.763763
H	-0.5202	1.869506	0.372264
N	-0.297275	-1.384978	0.627131
O	-0.100802	-2.36192	-0.090268
O	-0.654235	-1.424053	1.795065
C	-0.304353	1.344189	-2.108576
H	0.610352	1.880016	-1.838464
H	-1.176266	1.90803	-1.768593
H	-0.369063	1.272097	-3.195753
N	-1.634536	-0.651932	-1.874343
H	-2.37927	-0.304864	-1.224161
H	-1.586043	-1.650961	-1.710858
H	-3.296781	0.0	0.0
