15

C	0.0	0.0	0.0
C	-0.629695	-0.027433	-1.361183
F	1.354042	0.0	0.0
H	-1.772119	-0.013545	-0.984536
H	-0.366323	0.856939	0.564008
N	-0.358799	-1.182533	0.876458
O	-0.420692	-0.947514	2.080723
O	-0.434701	-2.297221	0.368498
C	-0.282408	-1.19793	-2.280909
H	-0.575689	-0.951845	-3.304474
H	0.791523	-1.412507	-2.27862
H	-0.815438	-2.093815	-1.969676
C	-0.307573	1.234302	-1.997228
N	-0.070374	2.254045	-2.53787
H	-2.862559	0.0	0.0
