15

C	0.0	0.0	0.0
C	-0.26786	0.06118	-1.535787
F	1.354048	0.0	0.0
H	0.485955	0.787998	-1.867458
H	-0.408341	0.881066	0.522028
N	-0.621512	-1.142328	0.63607
O	-0.422282	-1.242578	1.872636
O	-1.764807	-1.371301	0.042863
C	-1.595825	0.509927	-2.144923
H	-1.93514	1.436194	-1.68291
H	-2.368938	-0.234036	-1.986856
H	-1.433436	0.678481	-3.216796
C	0.150343	-1.215867	-2.126693
N	0.498809	-2.191123	-2.679667
H	-2.856521	0.0	0.0
