15

C	0.0	0.0	0.0
C	-0.219801	-0.099557	-1.541659
F	1.368894	0.0	0.0
H	0.348533	0.776356	-1.886333
H	-0.372526	0.903371	0.461312
N	-0.471699	-1.138893	0.811529
O	-0.45478	-0.956627	2.039572
O	-0.530051	-2.251406	0.265664
C	-1.568427	-0.056184	-2.254749
H	-2.184786	-0.901995	-1.966316
H	-2.113263	0.841281	-1.978021
H	-1.368045	-0.067818	-3.338099
C	0.539982	-1.247759	-2.070079
N	1.121854	-2.111701	-2.612618
H	-2.327135	0.0	0.0
