12
Coordinates from ORCA-job run
  C   0.53924980963151      0.26650603260787     -0.34857170313124
  C   -0.66213668038470     -0.04924533950521      0.24722888492826
  N   1.67175984179028     -0.64014181459142     -0.32529458645005
  O   2.71685427650396     -0.24748759997203     -0.83123178904733
  O   1.50721014938147     -1.74830104711731      0.19905244087452
  C   0.76335778477833      1.52525545565151     -0.96637662326775
  N   0.91895761407792      2.57577315950864     -1.47370713950709
  N   -1.01779506697449     -1.21235137688063      0.82458782306847
  H   -0.29935995600906     -1.90477670651594      0.97662806781203
  H   -1.87250133571866     -1.25089075430101      1.35456760605381
  C   -1.69797128765034      0.94814071213065      0.18313451486580
  N   -2.56962514942621      1.73851927898491      0.15798250380058
