12
Coordinates from ORCA-job run
  C   0.54732295384834      0.28120754388294     -0.32305758585288
  C   -0.67261891131210     -0.07228403362134      0.21077051488604
  N   1.70840303708848     -0.58378597596052     -0.22935735684152
  O   1.55833822822317     -1.68573382961528      0.31227757131763
  O   2.76049610559312     -0.16600043939699     -0.69898649330646
  C   0.75872543234633      1.54176883334841     -0.94151634274768
  N   0.90382519934369      2.59344186999656     -1.44946088187304
  N   -1.01752352495392     -1.24127526952768      0.78328539334127
  H   -0.28147282428756     -1.90012835772049      0.99016064767685
  H   -1.89715170713203     -1.30328118634679      1.26836753027506
  C   -1.73782603277471      0.88652742817936      0.07765817742688
  N   -2.63051795598281      1.64954341678180     -0.00214117430214
