12
Coordinates from ORCA-job run
  C   0.55131339379644      0.29898446184337     -0.29949768246307
  C   -0.67195369464830     -0.07587460945461      0.21131220875109
  N   1.69166178222495     -0.59854923164327     -0.30417291338721
  O   1.51887908282385     -1.74508124687116      0.12643362817608
  O   2.74997481066737     -0.16068342324636     -0.74031271712873
  C   0.78830093333889      1.60740835786069     -0.79731195373604
  N   0.95214694631691      2.69969676320577     -1.20376382277810
  N   -1.04018345370604     -1.28697191475375      0.67124162380801
  H   -0.31720781813462     -1.97805001101425      0.80702183475649
  H   -1.91395533528845     -1.37261736926538      1.16329027415853
  C   -1.71546661125367      0.91498916220279      0.18211972031521
  N   -2.59451003613735      1.69774906113616      0.18363979952774
