12
Coordinates from ORCA-job run
  C   0.64567863238858      0.17617622513767     -0.20272985577977
  C   -0.59677302058797     -0.21287879282899      0.22333550972662
  N   1.23048211609669     -0.24204751656682     -1.47060889207402
  O   2.27567295549735      0.32122514768153     -1.78526195624451
  O   0.65071711874450     -1.11011463186622     -2.11363074306383
  C   1.41139181986075      1.06492037777790      0.59362848900983
  N   1.93753526657300      1.79700867830292      1.35180218039787
  N   -1.09950391855248      0.13856205690035      1.43510296189149
  H   -0.63144929143678      0.85867998033039      1.96641176602589
  H   -2.08809181612137      0.02787326981483      1.59103417808964
  C   -1.45627789192609     -1.07471935947877     -0.54220379712471
  N   -2.28038197053619     -1.74568543520479     -1.04687984085450
