12
Coordinates from ORCA-job run
  C   0.54936995866167      0.29929814129542     -0.30178655476944
  C   -0.67330087687515     -0.08097101473779      0.20664858411291
  N   1.70121420330381     -0.58231785306709     -0.27721588113602
  O   2.76131553946915     -0.13459840176943     -0.69918670536161
  O   1.53652750047322     -1.72631998755556      0.16335906612071
  C   0.77148622121737      1.59863799660656     -0.83001745058604
  N   0.92491292489827      2.68143838811888     -1.26483848417579
  N   -1.02950591178986     -1.28627071842500      0.68994945698685
  H   -0.30123892276216     -1.96964335110814      0.83603768760708
  H   -1.90578805286966     -1.37404961800326      1.17697095974187
  C   -1.72675754458891      0.89852414006852      0.15618713487230
  N   -2.61023503913775      1.67627227857686      0.14489218658718
