12
Coordinates from ORCA-job run
  C   0.54522208952876      0.30688318163840     -0.30299680117655
  C   -0.65048551172817     -0.06010386365492      0.27458284584325
  N   1.69956919849407     -0.57238112165134     -0.30859073144562
  O   1.59841049616831     -1.65266771346230      0.28546211942616
  O   2.70008315989879     -0.18325198392566     -0.89961886588873
  C   0.70046915995718      1.54073272597442     -0.98844076767217
  N   0.80200624967848      2.57230141830198     -1.54582587557710
  N   -0.91822954543209     -1.17213822982809      0.98560568360022
  H   -1.87622616203444     -1.38626805198498      1.20776952278299
  H   -0.22500833697445     -1.90573490737639      0.99114386648289
  C   -1.73144010402591      0.88547394377127      0.18067556009967
  N   -2.64337069353054      1.62715460219761      0.12123344352499
