12
Coordinates from ORCA-job run
  C   0.64125087373654      0.16252014432520     -0.22844797909691
  C   -0.59732045981301     -0.19056906656585      0.23792696162841
  N   1.16814761100728     -0.26222323272618     -1.52007982372887
  O   2.26499259745586      0.19941028752471     -1.82445165437809
  O   0.49314422988354     -1.03347167456270     -2.19246845608975
  C   1.47156904909382      1.00250290610459      0.55583698419678
  N   2.05162965674029      1.70333394105328      1.30411238639173
  N   -1.04066350529095      0.15751149523113      1.47352535670593
  H   -0.52616716169636      0.84832897139565      2.00041077641031
  H   -2.02473240920102      0.07301165157323      1.66862567229692
  C   -1.51563731472000     -1.01201590679939     -0.50345736153662
  N   -2.38621316719598     -1.64933951655367     -0.97253286279984
