12
Coordinates from ORCA-job run
  C   0.57277895131367      0.34350871789970     -0.19383008233699
  C   -0.67441715157674     -0.09484362108472      0.19380661179979
  N   1.72151044312303     -0.54172030818301     -0.23556776736966
  O   1.55818541461783     -1.70886924083975      0.14013968978625
  O   2.77957049710265     -0.07158253309881     -0.63742144868454
  C   0.79611888227227      1.67353280498283     -0.63820083571535
  N   0.95153214778291      2.78245781576305     -1.00030546974514
  N   -1.01265833432151     -1.30680495400155      0.67385485519111
  H   -1.98843944754327     -1.53642649600546      0.76444202183262
  H   -0.32594771218259     -2.04428532097797      0.61635010842115
  C   -1.73881996739489      0.87366264360020      0.16407789113347
  N   -2.63941372319335      1.63137049194550      0.15065442568729
