12
Coordinates from ORCA-job run
  C   0.63210164803020      0.21548281534338     -0.20376128550796
  C   -0.61497622029128     -0.19594132845832      0.18704876590731
  N   1.26586076235196     -0.18700153417365     -1.45295511742743
  O   2.35149071320891      0.33576722353976     -1.68928121988825
  O   0.68196315936972     -1.00019948872211     -2.16006897869275
  C   1.36185763720468      1.10381234691833      0.62729029505909
  N   1.84006130370435      1.82486896177158      1.42768468419334
  N   -1.21946189584033      0.27045703254063      1.30999775994751
  H   -2.01363146517559     -0.23416987033497      1.66806641904396
  H   -0.66218512748080      0.78199981130385      1.97968767417191
  C   -1.42508901958624     -1.09549789849274     -0.58981316579996
  N   -2.19699149549558     -1.81857807123573     -1.10389583100676
