12
Coordinates from ORCA-job run
  C   0.54743937189033      0.25056410443356     -0.34970036587668
  C   -0.66873320588466     -0.04051123192106      0.22748692081065
  N   1.68597642561323     -0.64439574651609     -0.23674769895037
  O   2.73924520213906     -0.27884571548219     -0.74499038293092
  O   1.51499957967411     -1.71480344762941      0.35814676024332
  C   0.77744204566730      1.46603300051103     -1.04670583809159
  N   0.93526824481703      2.47933046336547     -1.62432014403768
  N   -1.03549126748569     -1.17577505112151      0.85634048973928
  H   -0.30300374882442     -1.82789081260683      1.09736989261609
  H   -1.88884554716413     -1.16997112934299      1.39165923072796
  C   -1.71107465456887      0.94060751627320      0.07816527953554
  N   -2.59322244587329      1.71565805003682     -0.00770414378560
