12
Coordinates from ORCA-job run
  C   0.67922061391677      0.13559718388793     -0.10176027560905
  C   -0.66013335645931     -0.09508778296792      0.07026367038664
  N   1.47644436785673     -0.48493364799794     -1.15239574823944
  O   2.67889430173053     -0.23507511908057     -1.12472870870346
  O   0.90087928577221     -1.19470786013887     -1.96943749304547
  C   1.35957089134185      1.00205487204318      0.79089720338790
  N   1.79540813420680      1.73939377785166      1.59961189997115
  N   -1.39782620352225      0.54580779038609      1.01342383968891
  H   -0.92072138237701      1.06926036356073      1.73321575420463
  H   -2.30433145283217      0.17337062233351      1.24402746099037
  C   -1.42245066940040     -0.98190345842060     -0.76657007928303
  N   -2.18595453023375     -1.67377674145721     -1.33454752374916
