12
Coordinates from ORCA-job run
  C   0.58034403768625      0.37715134047178     -0.07474733673213
  C   -0.69312700574628     -0.13673213828880      0.03341857985820
  N   1.75898770485915     -0.41957912080014      0.20968309115746
  O   2.85057830534289      0.11413562199463      0.04984720346444
  O   1.58405141103998     -1.58026364959396      0.60020087393417
  C   0.82057798210398      1.69933199747472     -0.53392828148914
  N   0.98796193027791      2.80022074246735     -0.91462208883795
  N   -1.05927778910582     -1.35164875578052      0.48305962240466
  H   -2.01564909729138     -1.64308028496998      0.36998603870643
  H   -0.33627804515546     -2.03804680212442      0.64054652606339
  C   -1.77943822863214      0.74701825720504     -0.29977877413869
  N   -2.69973120537909      1.43149279194431     -0.56466545439084
