12
Coordinates from ORCA-job run
  C   0.52809452605324      0.26955220392369     -0.36196110970966
  C   -0.65835638883968     -0.06072961491160      0.25536463729530
  N   1.68575335707248     -0.60454421866472     -0.32433326013218
  O   1.56884867154545     -1.68288549869256      0.27033923741092
  O   2.70217986619546     -0.21654025362327     -0.88848803196191
  C   0.70896554970925      1.51204746618978     -1.02498605618491
  N   0.83067006627551      2.54926015143836     -1.56762095723734
  N   -0.97415636520417     -1.21301611329773      0.87698118677242
  H   -1.82228005782695     -1.25535843784325      1.41720543953198
  H   -0.22856024593827     -1.86810694959479      1.05984279126305
  C   -1.72370134641589      0.90283871148252      0.16516701541793
  N   -2.61745763262643      1.66748255359358      0.12248910753441
