12
Coordinates from ORCA-job run
  C   0.54994222546255      0.26245980277964     -0.33428959589614
  C   -0.67661015621699     -0.06736189130033      0.19933475983801
  N   1.72259227840454     -0.57070731754164     -0.14290031420690
  O   2.77711045826252     -0.17702317333973     -0.62746974106633
  O   1.57905178205059     -1.62308781558973      0.49118900119092
  C   0.75735866112807      1.47356013868512     -1.04588785702600
  N   0.89888485725412      2.48560980832607     -1.62977204443291
  N   -1.01640197709012     -1.19123899399240      0.85889997770260
  H   -0.27501574669302     -1.81631571020924      1.13841629262155
  H   -1.90504331544972     -1.22584566354897      1.33004182552736
  C   -1.75393414071097      0.85715946240054     -0.03779600203631
  N   -2.65793492640158      1.59279135333066     -0.20176630221586
