12
Coordinates from ORCA-job run
  C   0.67295705625103      0.12840086919157     -0.14627506350055
  C   -0.62973325410893     -0.15708129010079      0.16709309659709
  N   1.38330618062322     -0.47273231629511     -1.26809691842595
  O   2.52333457388499     -0.05702926915357     -1.45946938456090
  O   0.80396911274345     -1.33161990212652     -1.92337644214991
  C   1.38756269916962      1.07462827829338      0.63119526281578
  N   1.85735494919611      1.87574361908279      1.35585111127788
  N   -1.25090868868702      0.36277712085119      1.25709282448570
  H   -2.25477476471442      0.30450577320263      1.30686874141006
  H   -0.81086229904105      1.12433743491206      1.75320757668147
  C   -1.43955332289167     -1.07723976591026     -0.58480165812518
  N   -2.24165224242534     -1.77469055194738     -1.08928914650550
