12
Coordinates from ORCA-job run
  C   0.58411621120803      0.30995310119767     -0.20646971204991
  C   -0.69600532621818     -0.08061795299031      0.12304849881039
  N   1.70675493222495     -0.60688028054971     -0.15439928993452
  O   1.47224367392583     -1.78093369548226      0.15759125382362
  O   2.81425943961866     -0.15750457378800     -0.42464659756211
  C   0.89372709344399      1.64958062333585     -0.56042844718951
  N   1.12550029919596      2.76538534362686     -0.85491035979555
  N   -1.12564283962942     -1.31372978590274      0.44486996634584
  H   -2.06450446355200     -1.43731794382950      0.78674817531255
  H   -0.43106104633717     -2.03059073630967      0.59739475736375
  C   -1.71490879546345      0.93407743405232      0.05810089072328
  N   -2.56347917841721      1.74957846663948      0.03310086415214
