12
Coordinates from ORCA-job run
  C   0.55695478271496      0.27711161585529     -0.31320958600458
  C   -0.66975871657724     -0.04996628068976      0.22111756208071
  N   1.66971516847513     -0.65444024288249     -0.31067475324074
  O   1.46288364358782     -1.79024652018489      0.13415871572469
  O   2.73792119397563     -0.25792400616277     -0.76308301972783
  C   0.82925120904473      1.57245207618525     -0.82685091210177
  N   1.02310526373313      2.65756386817668     -1.23882787090312
  N   -1.07058617448586     -1.24307810279570      0.69956938535230
  H   -1.93993259105721     -1.29483451050920      1.20423995383037
  H   -0.36818840680814     -1.95511586901034      0.83792542629589
  C   -1.68252413382121      0.97152619555698      0.18560793534754
  N   -2.54884123878172      1.76795177646095      0.17002716334654
