12
Coordinates from ORCA-job run
  C   0.56457230398583      0.31770848461851     -0.22048011476501
  C   -0.67385343776214     -0.07492591299757      0.24235180609982
  N   1.65506764790597     -0.62384502557567     -0.39364532334926
  O   2.68389747315438     -0.20572261578102     -0.90986820645262
  O   1.46898090161603     -1.78659697305083     -0.01160914222839
  C   0.83035081222255      1.65466166061688     -0.61758433644388
  N   1.05673353079371      2.77064638989278     -0.91806181932217
  N   -1.04938701683788     -1.29680525445535      0.65371465120932
  H   -0.37140855716757     -2.04400160700006      0.60255801301910
  H   -2.00288728744751     -1.47811503220948      0.91874491383870
  C   -1.67558475904879      0.95786608755460      0.31779193743514
  N   -2.48548161141457      1.81012979838720      0.33808762095925
