12
Coordinates from ORCA-job run
  C   0.61512678361680      0.26323290495725     -0.21149512473596
  C   -0.59957433977345     -0.23092640683158      0.18558344816006
  N   1.28215313870827     -0.13153642980823     -1.44509326465940
  O   2.37369781531926      0.39316132032336     -1.65070835044460
  O   0.71879636085481     -0.94365065417451     -2.17072408285071
  C   1.28378900004416      1.21136483851849      0.60370038306597
  N   1.72269189876614      1.98235078844942      1.37868768043930
  N   -1.23728177109001      0.20489142730007      1.30104550864752
  H   -0.73707120585138      0.78826726432624      1.95549792040581
  H   -2.01164936173006     -0.32913502921085      1.65817048105223
  C   -1.34101226043927     -1.20632651352591     -0.56726037401305
  N   -2.06966605842528     -2.00169351032373     -1.03740422506717
