12
Coordinates from ORCA-job run
  C   0.56438726835289      0.29547020452086     -0.28383372370926
  C   -0.67396510736610     -0.06231287544511      0.20373382559299
  N   1.74445295895521     -0.51639145254149     -0.05405086673782
  O   1.61543281225842     -1.52994134658525      0.64297521963020
  O   2.79460214990016     -0.13619697650384     -0.55905883814120
  C   0.74402391049352      1.44171530280389     -1.10286137967216
  N   0.87185964515552      2.39672876289705     -1.77838565144598
  N   -0.97920978783807     -1.10585031474953      0.99645947264908
  H   -0.26610018008009     -1.79350177901149      1.18412712172408
  H   -1.94543008477450     -1.31191769396605      1.18550183941517
  C   -1.77162665182903      0.81654820348629     -0.10198122856260
  N   -2.69842693322792      1.50464996509468     -0.33162579074249
