12
Coordinates from ORCA-job run
  C   0.68004165110712      0.11904733860260     -0.10193257249157
  C   -0.64276181329418     -0.15338746985139      0.12806554519952
  N   1.41988748636696     -0.38958611350805     -1.25099420739045
  O   2.55731629127017      0.05429551863143     -1.38899965257869
  O   0.86429963114992     -1.20354437327376     -1.98016015543903
  C   1.38785828246539      0.96492520731932      0.78889827357997
  N   1.85824157728802      1.67656136294721      1.60120930475343
  N   -1.29612077778949      0.27436043676347      1.23951481606454
  H   -2.30247342231613      0.24775965972607      1.24373984970841
  H   -0.85169947612699      0.96133922163016      1.83129112616484
  C   -1.44310563142431     -0.96648177936493     -0.74748331095584
  N   -2.23248379869646     -1.58428900962213     -1.36314901661513
