12
Coordinates from ORCA-job run
  C   0.60411570795904      0.32808397711930     -0.11282483141232
  C   -0.69275031686592     -0.05968789457819      0.14038051673500
  N   1.69440347214567     -0.62725804845718     -0.18444088159467
  O   1.43110079517687     -1.81233909635206      0.05365636423352
  O   2.80529912101080     -0.19786184020591     -0.47167537536592
  C   0.94553863947422      1.67137133027183     -0.42460065071775
  N   1.24545288292930      2.77895042005883     -0.68199132713181
  N   -1.13705919088471     -1.28603438513961      0.47598678691401
  H   -0.49002475774525     -2.05584444964102      0.38442283676945
  H   -2.12858661596255     -1.46219378530395      0.47515182800508
  C   -1.69542041828553      0.97355916419463      0.15293223254590
  N   -2.58106931895193      1.74825460803331      0.19500250101953
