12
Coordinates from ORCA-job run
  C   0.68386619780742      0.11743762639413     -0.09317363093032
  C   -0.64403162339952     -0.13606158387605      0.12816237098597
  N   1.54404180484771     -0.73856820930626     -0.90126016564788
  O   1.07242066728540     -1.78243693481392     -1.33759020116763
  O   2.68963422158540     -0.32985076494855     -1.07292598835582
  C   1.27586304722654      1.28158649514143      0.45865829082182
  N   1.63679280005933      2.27773301853806      0.97333911043435
  N   -1.41157766186871      0.63653543619153      0.93935259522662
  H   -2.41224149351345      0.54118738751302      0.88236815060557
  H   -1.05223923490794      1.52842581615397      1.24762923842876
  C   -1.33297736094262     -1.27218679018094     -0.42198771095840
  N   -2.05055136417955     -2.12380149680642     -0.80157205944302
