12
Coordinates from ORCA-job run
  C   0.59157528877829      0.32042289135886     -0.17518563904417
  C   -0.69388823469595     -0.07873657494982      0.11840831544539
  N   1.69670778702562     -0.61799932025892     -0.22673117801227
  O   2.81094317067559     -0.16227283438333     -0.45670301049050
  O   1.44173568094030     -1.81346713732942     -0.03753665636461
  C   0.92433064789998      1.68503368159039     -0.38388168372871
  N   1.16870399261386      2.82365032468560     -0.55367592479466
  N   -1.14914682887137     -1.33364155678018      0.29543692477776
  H   -0.46856199179663     -2.07515149008264      0.37039459576887
  H   -2.07755666772668     -1.46499368291555      0.66116690395853
  C   -1.69632538452175      0.95280162656786      0.16796837573957
  N   -2.54751746032122      1.76435407249715      0.21933897674478
