12
Coordinates from ORCA-job run
  C   0.59930464325249      0.15225378820466     -0.32859923890324
  C   -0.59558292875983     -0.12965615340132      0.27922901676917
  N   1.29491256724703      1.42526956412087     -0.18907951673819
  O   2.39219875888987      1.49410016717589     -0.73714177909599
  O   0.74537245633229      2.31538303813085      0.45000002712988
  C   1.22874189645401     -0.83789981466265     -1.12478504809491
  N   1.63702398238573     -1.74667913638307     -1.75333773567972
  N   -1.26081299885333     -1.29674190074737      0.07917575402402
  H   -0.78254522521880     -2.05841199952829     -0.37997672080912
  H   -1.99924023001758     -1.54031932704106      0.71871303411315
  C   -1.28832759829165      0.80078942852511      1.12901395617998
  N   -1.97204532342022      1.42291234560638      1.85678825110496
