12
Coordinates from ORCA-job run
  C   0.63534357121957      0.19804464937041     -0.22259476849850
  C   -0.60377861177604     -0.18636314946474      0.21752839004071
  N   1.17067006547437     -0.16741098585892     -1.52833879488968
  O   2.16804829651581      0.45119704969688     -1.88813506176805
  O   0.59701836067874     -1.05070853698570     -2.15615696684968
  C   1.44288256343037      1.02585367397200      0.59672519605619
  N   2.00595650994344      1.69471876544863      1.38589039749625
  N   -1.12832550646370      0.24216308655350      1.39460529069655
  H   -1.93017586111116     -0.24371405867749      1.75956455980293
  H   -0.52027420237191      0.68949204408921      2.06561043313279
  C   -1.49689216740140     -1.00039524213461     -0.56151955734302
  N   -2.34047301813809     -1.65087729600916     -1.06117911787647
