12
Coordinates from ORCA-job run
  C   0.65809461842667      0.16724416443594     -0.17095978028898
  C   -0.61411653207750     -0.19857049396627      0.18146902887304
  N   1.27002122702632     -0.17062433668433     -1.44995967901398
  O   0.63792200353128     -0.88420168831572     -2.22065608718550
  O   2.38830450312028      0.29915803586111     -1.64466440393595
  C   1.43811893170949      0.93784246402382      0.72805631679589
  N   1.96995802668976      1.57292191131624      1.56560559464985
  N   -1.13993913405762      0.06807912407596      1.40487877180285
  H   -2.13633683335398     -0.01355545791260      1.52365268539429
  H   -0.65704119742249      0.71235475945088      2.01432158294994
  C   -1.48627043149601     -0.95089090987755     -0.67938109969561
  N   -2.32771518209621     -1.53875757240747     -1.25436293034583
