12
Coordinates from ORCA-job run
  C   0.58256927439477      0.27600874416179     -0.27219104673130
  C   -0.53642835081411     -0.28546068430964      0.28457871674073
  N   1.25427545774609     -0.26226623875551     -1.44869872157191
  O   2.22609138846206      0.37623532148667     -1.84530130080304
  O   0.80826786285795     -1.28944063572991     -1.94777071934119
  C   1.13117364251424      1.45449970073150      0.29356509836567
  N   1.48109142461167      2.42650441322415      0.85985162340404
  N   -1.10650464980049      0.19303835989740      1.42007277273287
  H   -2.03720430964320     -0.11217127295332      1.65219075387879
  H   -0.81671358805236      1.09414111754732      1.77084311556187
  C   -1.17087070114355     -1.46608520933347     -0.23541762374655
  N   -1.81574745113307     -2.40500361596699     -0.52972266848999
