12
Coordinates from ORCA-job run
  C   0.65936586342732      0.19387132883786     -0.13380375871282
  C   -0.64463585649912     -0.15556135291712      0.09876089560424
  N   1.49300884753648     -0.43212525889568     -1.15248089575312
  O   0.97528311629879     -1.26335837447757     -1.88985209304623
  O   2.66382346566571     -0.06139131711144     -1.18254049217939
  C   1.26473450032727      1.20155536972853      0.65897881758588
  N   1.63660290996425      2.05054298491779      1.38596538102286
  N   -1.42438905709911      0.48855568703320      1.00527605875553
  H   -2.28116416310512      0.04684265183106      1.29589941280957
  H   -0.98892084117567      1.12011557090514      1.66193184197917
  C   -1.32834997612751     -1.18695857346972     -0.63379090729600
  N   -2.02635880921328     -2.00308871638207     -1.11434426076969
