12
Coordinates from ORCA-job run
  C   0.67161079714914      0.10130023226119     -0.17091070509741
  C   -0.64738542888116     -0.05163260075217      0.16626983884496
  N   1.75274044756925      0.15898912791092      0.80500983083732
  O   1.45642172390459      0.14499567086478      1.99436805629277
  O   2.88742513349445      0.22004038744334      0.33834003757604
  C   1.03794742070651      0.18443333895053     -1.53819833936168
  N   1.19882850458832      0.23910196733832     -2.70385821002021
  N   -1.64463392164267     -0.03495053540278     -0.75547809510764
  H   -1.40555354560977     -0.09741387436926     -1.73456473408205
  H   -2.55159303857639     -0.37707012291558     -0.48350023461445
  C   -1.10620496067767     -0.17749938104640      1.52323647024219
  N   -1.64760313202460     -0.31029421028289      2.55928608449018
