12
Coordinates from ORCA-job run
  C   0.65317227128042      0.20141991849753     -0.15171117273253
  C   -0.63882880925868     -0.16068772922086      0.12490035407763
  N   1.38264956604831     -0.24892459209827     -1.33048212895946
  O   2.55553033810522      0.11003123215123     -1.39885279439959
  O   0.78468082472189     -0.93637662940644     -2.15056652799649
  C   1.35042450814814      1.04554408755487      0.74928456896857
  N   1.80640747289977      1.74694845786836      1.57857720381302
  N   -1.32271638256926      0.32638381415759      1.19214174764854
  H   -2.16983596973371     -0.14085912256800      1.47049762068957
  H   -0.81712097754134      0.82600462209103      1.90931884469352
  C   -1.41169622514887     -1.03335038581705     -0.71714292838469
  N   -2.17266661695188     -1.73613367321000     -1.27496478741809
