12
Coordinates from ORCA-job run
  C   0.66255794343833      0.21834577353200     -0.05715978548899
  C   -0.64052352639076     -0.19878770584125      0.00964675780619
  N   1.77515922459438     -0.66128548543529     -0.39381236939872
  O   1.52044803191661     -1.81858674686887     -0.70738192083447
  O   2.89173467226961     -0.15257263059042     -0.33391852818689
  C   0.98047787233917      1.56847896564325      0.23690327937211
  N   1.10107306122927      2.70946912471189      0.50373991250547
  N   -1.66963589901999      0.65245237882070      0.25716381259458
  H   -1.46305777035119      1.58412554026469      0.58742889238663
  H   -2.55778663983184      0.26040135309631      0.52386632465545
  C   -1.04925562149796     -1.55502661716427     -0.23816188881650
  N   -1.55219134869562     -2.60801395016876     -0.38831448659485
