12
Coordinates from ORCA-job run
  C   0.67685186547888     -0.03936179611058     -0.08722210935172
  C   -0.67419188427679     -0.11527473770390      0.07389187665558
  N   1.45741284409586      0.88611764162313      0.74304682625686
  O   2.24028484336549      0.38644677054983      1.54196403117585
  O   1.26113409444951      2.08813732383650      0.56194218885607
  C   1.36007228444882     -0.75428340253694     -1.09761510332738
  N   1.86721726410684     -1.34715007681574     -1.97790155424673
  N   -1.46824645201213     -0.96682071602819     -0.63886784215925
  H   -2.46061995850173     -0.80629808378701     -0.61319933505451
  H   -1.10520047060940     -1.33742758642610     -1.50402053740368
  C   -1.30897440648391      0.68231689520042      1.08409487995730
  N   -1.84574002406144      1.32259776819857      1.91488667864161
