12
Coordinates from ORCA-job run
  C   0.66778306125587      0.17371367534398     -0.11865464427390
  C   -0.65153756933730     -0.12787488096515      0.09360846010336
  N   1.40671058422483     -0.23088888627358     -1.30814878590326
  O   0.79445806747699     -0.81225357515144     -2.19687825519022
  O   2.60169936554678      0.05388129661090     -1.31392293079208
  C   1.38654803931580      0.89805198043193      0.86581921040824
  N   1.85893909624685      1.50075853632458      1.76094355126034
  N   -1.33881404810719      0.31755413975449      1.17703806646391
  H   -0.82738003183239      0.72641192221955      1.94574160862148
  H   -2.21939780968044     -0.11909180260171      1.39509475334743
  C   -1.44789734986686     -0.88407637583508     -0.83465465793438
  N   -2.23111140524294     -1.49518602985846     -1.46498637611093
