12
Coordinates from ORCA-job run
  C   0.67334165455317      0.15677039365203     -0.11298097468464
  C   -0.65318310233988     -0.13683835547410      0.06307625311511
  N   1.65615239066484     -0.80630802444257     -0.59305496245264
  O   1.25808418903904     -1.91410731292080     -0.93515014943579
  O   2.81965761498600     -0.41276159775722     -0.61396645424719
  C   1.15026756779909      1.45251522050393      0.20938261045661
  N   1.40521936507082      2.56076067834975      0.51698488854787
  N   -1.56360967844576      0.79423500794579      0.44819670509996
  H   -2.46009797842216      0.47733624436263      0.77907931207305
  H   -1.23589228621014      1.68505689223003      0.79256456733595
  C   -1.21674967788484     -1.43276366913818     -0.20254994047860
  N   -1.83319005881017     -2.42389547731130     -0.35058185532971
