12
Coordinates from ORCA-job run
  C   0.55197828622510      0.27356685014786     -0.32165237550191
  C   -0.67498696612884     -0.06514140670936      0.20541026400841
  N   1.70801762357948     -0.59482944850996     -0.20188586177001
  O   2.76639847012052     -0.18981836431112     -0.66863920482659
  O   1.54834373065600     -1.68587661346627      0.35863118214767
  C   0.77570365851659      1.52238348220896     -0.95942408793775
  N   0.93075368609057      2.56371391301047     -1.48539524558117
  N   -1.03122917230262     -1.22344802998968      0.79285185965696
  H   -1.91453972329725     -1.27150044836964      1.27285820951995
  H   -0.30002975332556     -1.88144196367908      1.01892837146611
  C   -1.73453471496858      0.89585704326884      0.04572535869684
  N   -2.62587512516543      1.65753498639897     -0.05740846987850
