12
Coordinates from ORCA-job run
  C   0.56280517331818      0.31435251011607     -0.25921135113443
  C   -0.68786135750707     -0.12039470842007      0.12137301626912
  N   1.76378082863704     -0.44679984706373      0.02951504982896
  O   2.83457651018081      0.04094686562651     -0.31331413949176
  O   1.62745465222710     -1.53720757137622      0.59731132684804
  C   0.75913785568953      1.56642397500218     -0.89951542552840
  N   0.89117267788274      2.60822458246005     -1.43085849019301
  N   -1.01635335189718     -1.29473053600687      0.69323711307265
  H   -0.26575362340115     -1.88040119862135      1.02859398664558
  H   -1.94528620898362     -1.40998507176142      1.06314009552785
  C   -1.79610944625365      0.74100394894942     -0.19696729647493
  N   -2.72856370989277      1.41956705109543     -0.43230388536967
