12
Coordinates from ORCA-job run
  C   0.55205117508827      0.31896553264201     -0.27723730357708
  C   -0.65366250659655     -0.07105136385430      0.26343055922821
  N   1.69697597669056     -0.57045367528942     -0.32813539973452
  O   1.57416152938211     -1.69060786949587      0.18208095076539
  O   2.71279652853742     -0.14955468432433     -0.86953822918862
  C   0.72506389112447      1.59140891467267     -0.88357171379948
  N   0.83816358937482      2.65401945498756     -1.37646271996746
  N   -0.94117122926859     -1.22370754543633      0.89732491606973
  H   -0.25729848717002     -1.96504462870812      0.85942391824076
  H   -1.90282593431152     -1.43835978841325      1.10222156468561
  C   -1.72157660867570      0.89322391434471      0.22414210147780
  N   -2.62267792417526      1.65016173887468      0.20532135579965
