12
Coordinates from ORCA-job run
  C   0.55501289760878      0.27126060670160     -0.31764475035602
  C   -0.68109505575159     -0.07652275875900      0.18126946129324
  N   1.73433466626729     -0.54288411561792     -0.09020005770247
  O   1.58958210249722     -1.59487373412023      0.54406787830794
  O   2.79637526793347     -0.13429660914208     -0.54545563991733
  C   0.76289794221010      1.47902462901867     -1.03484794814039
  N   0.90617343980893      2.48609765716901     -1.62667994674459
  N   -1.02196144153928     -1.20445417386691      0.83400822738505
  H   -0.27733558697504     -1.81316586112707      1.14067147288577
  H   -1.92218872735301     -1.25020848587390      1.28191036991445
  C   -1.76527719817005      0.83111286486410     -0.08754116122241
  N   -2.67751830653683      1.54990998075372     -0.27855790570322
