12
Coordinates from ORCA-job run
  C   0.60529664488430      0.26407276074299     -0.23353020421213
  C   -0.60035744160269     -0.22749429088963      0.19267105033328
  N   1.39611998724109     -0.34630145086979     -1.29467085464477
  O   2.48737337210672      0.17472360608261     -1.51102566839353
  O   0.92390677366568     -1.31303326364473     -1.88218727315969
  C   1.15055409576534      1.41465610802132      0.39045011531129
  N   1.48337160878934      2.36940229207493      0.99487686412432
  N   -1.35146808420356      0.39509972985268      1.13727154409345
  H   -0.93698680826900      1.14001504215820      1.67856775522095
  H   -2.10180885296927     -0.12060448750914      1.56690182146338
  C   -1.21337148081619     -1.40503365467452     -0.36004425874464
  N   -1.84362981459178     -2.34550239134494     -0.68028089139190
