12
Coordinates from ORCA-job run
  C   0.59709754105159      0.26838340947964     -0.24818723377910
  C   -0.58188409977792     -0.26627990611513      0.20005121029075
  N   1.82677313967488     -0.50014971189663     -0.39616474873383
  O   2.81577375761991      0.14117139795015     -0.74234831914370
  O   1.78449811914092     -1.70447830891234     -0.17137940699591
  C   0.65877893887739      1.64565966582816     -0.57937104364567
  N   0.56596747545996      2.79512861753781     -0.81959851622867
  N   -1.73399668071542      0.45060071079949      0.26104297196054
  H   -1.69028852854518      1.45367473208887      0.15264010745313
  H   -2.49486448947519      0.08357243104274      0.80883400749658
  C   -0.72869494440267     -1.64425963620556      0.58374565032311
  N   -1.01916022890826     -2.72402340159720      0.94973532100277
