12
Coordinates from ORCA-job run
  C   0.65130478694449      0.06756656604730     -0.24575180295687
  C   -0.63010538976333     -0.02314087319817      0.23001109637562
  N   1.81133428110179      0.31656694581224      0.60094293309915
  O   1.61972002212688      0.53236117849796      1.79239221073756
  O   2.89970787761457      0.28923231758263      0.03183924901364
  C   0.89717846447422     -0.10553650181695     -1.63134975199860
  N   0.95976407443843     -0.26296339392901     -2.79719514452374
  N   -1.70342978116921     -0.18692797045192     -0.58558265745444
  H   -2.57689741324622     -0.47127090323580     -0.17385923339232
  H   -1.55050708446260     -0.43041815046406     -1.55343258441492
  C   -0.96668009493951      0.10740155528075      1.62172911241138
  N   -1.41138974311950      0.16812922987503      2.70925657310353
