18

C	0.0	0.0	0.0
C	-0.224169	0.026725	-1.587292
Cl	1.806941	0.0	0.0
H	0.575481	-0.581575	-2.020361
N	-0.601405	1.060043	0.730668
H	-0.39744	1.94978	0.286081
H	-1.622605	0.854521	0.62041
C	-0.49948	-1.318164	0.556582
H	-0.186949	-1.401611	1.599982
H	-1.593557	-1.262621	0.489956
H	-0.101995	-2.164879	-0.009072
C	0.02157	1.393252	-2.053188
N	0.196519	2.489358	-2.439587
C	-1.552086	-0.488664	-2.1549
H	-2.398528	-0.095361	-1.579892
H	-1.59815	-0.247819	-3.221855
H	-1.576328	-1.575826	-2.050765
F	-3.063107	0.0	0.0
