18

C	0.0	0.0	0.0
C	-0.52798	0.156221	-1.438293
Cl	1.795868	0.0	0.0
H	-1.624748	0.087777	-1.251559
N	-0.536145	1.109184	0.749067
H	-0.291506	0.966411	1.725387
H	-1.561855	0.926679	0.647021
C	-0.428541	-1.351119	0.564397
H	-0.023701	-2.184052	-0.012968
H	-1.522317	-1.329252	0.531612
H	-0.075066	-1.440255	1.595605
C	-0.112161	-0.948779	-2.291751
N	0.21715	-1.815345	-3.013211
C	-0.172028	1.492109	-2.087345
H	-0.697754	1.598271	-3.038989
H	-0.471043	2.295597	-1.417762
H	0.903286	1.564886	-2.269745
F	-2.900733	0.0	0.0
