18

C	0.0	0.0	0.0
C	-0.221842	-0.021343	-1.563216
Cl	1.856455	0.0	0.0
H	0.496781	-0.737494	-1.977239
N	-0.500687	1.190192	0.555096
H	0.102588	1.992564	0.510464
H	-1.033655	1.084319	1.400616
C	-0.638711	-1.198787	0.647056
H	-0.358046	-2.123984	0.140469
H	-1.729385	-1.004539	0.553481
H	-0.341699	-1.262936	1.698094
C	0.169787	1.289823	-2.088611
N	0.470079	2.338212	-2.525815
C	-1.633726	-0.3799	-2.03321
H	-2.413404	0.024153	-1.34664
H	-1.763911	-0.051785	-3.069722
H	-1.747911	-1.467922	-2.007432
F	-3.337277	0.0	0.0
