18

C	0.0	0.0	0.0
C	-0.350369	-0.17189	-1.534684
Cl	1.800871	0.0	0.0
H	0.571549	-0.487617	-2.031904
N	-0.572868	1.215383	0.487177
H	-1.597036	1.014817	0.350543
H	-0.411435	1.255734	1.49019
C	-0.425056	-1.223251	0.806526
H	-0.081146	-1.097572	1.838386
H	-1.51911	-1.215857	0.768736
H	-0.00513	-2.155178	0.419201
C	-0.672602	1.122261	-2.144771
N	-0.91532	2.104339	-2.740056
C	-1.429311	-1.200957	-1.909883
H	-1.106093	-2.201396	-1.608542
H	-1.545443	-1.199105	-2.998405
H	-2.356033	-0.926309	-1.393074
F	-2.942217	0.0	0.0
