18

C	0.0	0.0	0.0
C	-0.519828	0.001109	-1.460667
Cl	1.799414	0.0	0.0
H	-1.612358	-0.105478	-1.2652
N	-0.529677	1.094049	0.767779
H	-1.555618	0.922304	0.671493
H	-0.302215	1.971913	0.312997
C	-0.433315	-1.290947	0.683391
H	-0.030462	-2.165978	0.169206
H	-0.071727	-1.275509	1.713169
H	-1.526704	-1.276611	0.65568
C	-0.03239	-1.141189	-2.224553
N	0.348609	-2.042732	-2.876644
C	-0.251584	1.295207	-2.228633
H	-0.800726	2.11774	-1.767261
H	0.815392	1.535517	-2.247722
H	-0.604462	1.201793	-3.258585
F	-2.892621	0.0	0.0
