18

C	0.0	0.0	0.0
C	-0.23123	-0.038599	-1.587532
Cl	1.80501	0.0	0.0
H	0.589009	-0.630041	-2.002737
N	-0.600882	1.086989	0.688581
H	-0.39838	1.958967	0.209541
H	-1.623291	0.877358	0.587301
C	-0.492855	-1.295154	0.615018
H	-1.586666	-1.247713	0.549419
H	-0.177156	-1.329447	1.659693
H	-0.092138	-2.164827	0.087851
C	-0.032893	1.317891	-2.098812
N	0.110882	2.411483	-2.503403
C	-1.541627	-0.625044	-2.130398
H	-1.600331	-0.430477	-3.206116
H	-1.526206	-1.708581	-1.982684
H	-2.401313	-0.233364	-1.569184
F	-3.05109	0.0	0.0
