18

C	0.0	0.0	0.0
C	-0.418184	0.061396	-1.521683
Cl	1.800476	0.0	0.0
H	0.507871	0.085299	-2.10394
N	-0.526968	1.151339	0.67228
H	-0.319073	1.053133	1.662748
H	-1.556433	0.979398	0.548918
C	-0.403629	-1.310814	0.671676
H	-1.496758	-1.311549	0.65189
H	0.022147	-2.191001	0.184582
H	-0.042049	-1.289721	1.704647
C	-1.096335	1.315981	-1.874272
N	-1.595293	2.272233	-2.340799
C	-1.269212	-1.106654	-2.037228
H	-0.739601	-2.054294	-1.910749
H	-2.206713	-1.08596	-1.477764
H	-1.453466	-0.963964	-3.106442
F	-2.832678	0.0	0.0
