18

C	0.0	0.0	0.0
C	-0.217791	0.047991	-1.576909
Cl	1.807244	0.0	0.0
H	0.518416	-0.646488	-1.993509
N	-0.594657	1.050631	0.74515
H	-1.620241	0.837737	0.623246
H	-0.383847	1.946446	0.313807
C	-0.495755	-1.324724	0.538266
H	-0.148169	-1.425546	1.566169
H	-0.124055	-2.166711	-0.052641
H	-1.589759	-1.245829	0.498679
C	0.171823	1.382975	-2.039937
N	0.454307	2.456115	-2.423536
C	-1.568829	-0.34009	-2.18406
H	-1.830001	-1.348591	-1.865462
H	-1.44803	-0.330432	-3.274486
H	-2.380568	0.292065	-1.828306
F	-2.974007	0.0	0.0
