13

C	0.0	0.0	0.0
C	-0.536913	0.074532	-1.420405
F	1.373277	0.0	0.0
H	-1.650591	0.003805	-1.320901
H	-0.364814	0.890501	0.518636
C	-0.426525	-1.185201	0.763859
N	-0.576411	-2.105886	1.476248
N	-0.079952	-1.062814	-2.289415
O	0.259079	-2.100615	-1.732073
O	-0.137775	-0.88171	-3.501597
C	-0.154136	1.331184	-2.047691
N	0.149559	2.367956	-2.508142
Br	-3.459029	0.0	0.0
