13

C	0.0	0.0	0.0
C	-0.236627	0.009718	-1.526915
F	1.374949	0.0	0.0
H	0.457494	-0.737755	-1.920153
H	-0.404851	0.876479	0.496194
C	-0.428833	-1.25958	0.618377
N	-0.480451	-2.319974	1.123181
N	0.337266	1.323321	-2.042472
O	0.154613	2.329016	-1.367706
O	0.924963	1.269006	-3.117066
C	-1.504725	-0.189501	-2.231566
N	-2.132481	-0.364685	-3.216468
Br	-3.170059	0.0	0.0
