13

C	0.0	0.0	0.0
C	-0.53835	0.065352	-1.420419
F	1.37328	0.0	0.0
H	-1.652285	-0.001512	-1.320495
H	-0.365056	0.893291	0.513612
C	-0.428449	-1.181168	0.769924
N	-0.579802	-2.097744	1.487518
N	-0.085481	-1.079928	-2.281696
O	-0.174373	-0.917281	-3.494797
O	0.283742	-2.103332	-1.717503
C	-0.151562	1.315211	-2.058509
N	0.15096	2.346981	-2.530822
Br	-3.461433	0.0	0.0
