9
Coordinates from ORCA-job run
  C   0.91136212554941      0.09131912237474     -0.25140290781928
  C   -0.41719567945117     -0.23345777939456      0.42589910198327
  Br  2.38115658505178     -0.64290696354500      0.78030750959474
  H   -0.54405504487773     -1.31512865786084      0.51316547605138
  H   1.06906148175114      1.16643661521603     -0.31700357711378
  H   0.96532341597806     -0.34742342875532     -1.24622251879353
  H   -0.44006023819752      0.18300711562198      1.43572961355277
  C   -1.52829786654737      0.32106121745243     -0.34881679870434
  N   -2.39629477925660      0.77809275889054     -0.99265589875123
