9
Coordinates from ORCA-job run
  C   0.94581785009085     -0.17388753976350     -0.27568588035087
  C   -0.47128771467650     -0.44019620511294      0.21818907325477
  Br  1.80304685756752      1.22763294115010      0.75404280659008
  H   -0.45995525363798     -0.68996183772663      1.28184650613249
  H   0.94960167787609      0.14466574776018     -1.31688222066659
  H   1.55554108549076     -1.06956231753356     -0.16439233445326
  H   -0.87681376245503     -1.30386688948058     -0.32033360372256
  C   -1.36428343434601      0.69786162981380      0.00648298135314
  N   -2.08166730590970      1.60631447089313     -0.18326732813721
