17

C	0.0	0.0	0.0
C	-0.564258	0.221037	-1.408201
F	1.39095	0.0	0.0
H	-1.563199	0.644261	-1.257617
C	-0.347062	1.184154	0.821221
N	-0.514998	2.117581	1.512027
C	-0.483307	-1.267811	0.666746
H	-1.576072	-1.256616	0.695437
H	-0.118539	-2.118832	0.09034
H	-0.087512	-1.318028	1.683004
N	-0.63742	-1.06554	-2.121043
H	-1.462051	-1.546309	-1.764862
H	-0.856928	-0.843936	-3.087523
N	0.267075	1.194977	-2.079558
H	1.140318	0.755695	-2.345691
H	-0.201237	1.532469	-2.910262
Cl	-3.749058	0.0	0.0
