17

C	0.0	0.0	0.0
C	-0.506956	-0.125428	-1.429156
F	1.415845	0.0	0.0
H	-1.598472	-0.074652	-1.338351
C	-0.354619	1.323004	0.554448
N	-0.520308	2.361646	1.075475
C	-0.484935	-1.105068	0.906815
H	-0.159325	-2.060337	0.497237
H	-0.075634	-0.960298	1.909215
H	-1.577087	-1.068096	0.937312
N	-0.147591	-1.446304	-1.942404
H	0.823298	-1.439889	-2.235524
H	-0.723667	-1.655414	-2.747903
N	-0.044716	1.031231	-2.184919
H	-0.508967	1.05899	-3.083899
H	0.955171	0.96222	-2.336979
Cl	-3.796218	0.0	0.0
