17

C	0.0	0.0	0.0
C	-0.484767	0.050683	-1.45349
F	1.412678	0.0	0.0
H	-1.567521	-0.103231	-1.402288
C	-0.380027	1.234116	0.717306
N	-0.58891	2.221009	1.317086
C	-0.475257	-1.223911	0.746804
H	-1.564915	-1.188539	0.80882
H	-0.161359	-2.107559	0.190017
H	-0.039854	-1.234842	1.749738
N	0.131157	-1.066422	-2.152503
H	-0.259297	-1.073351	-3.088555
H	1.123216	-0.870738	-2.248447
N	-0.244841	1.334946	-2.109212
H	-0.961204	1.989797	-1.818006
H	0.651803	1.709693	-1.81602
Cl	-3.736065	0.0	0.0
