13
Coordinates from ORCA-job run
  C   0.88346138020700     -0.21861544479477      0.03848424695330
  C   -0.59074524070240     -0.12022610237854     -0.35029798643198
  F   1.59750150017190     -0.59447314535490     -1.10392901738585
  H   -0.67092471013990      0.67248686735414     -1.11383349940114
  H   1.01309899239477     -1.00605450362838      0.78260399396230
  N   1.31599849755159      1.02438925424462      0.56747686774232
  H   2.22269379655670      0.94288962287391      1.00737789182144
  H   1.37072461139924      1.71939055948126     -0.16797435868741
  N   -1.35760457753444      0.11627237137480      0.86342151225110
  H   -2.33934607916907      0.23481206380837      0.64852683490271
  H   -1.00526199354225      0.95900764411539      1.30045431160277
  C   -1.03135961899468     -1.37056567091387     -0.98019801823123
  N   -1.40723655819846     -2.35731351618203     -1.49111277909831
