13
Coordinates from ORCA-job run
  C   0.79657834881991      0.50520913407214      0.03152769009340
  C   -0.43374082343419     -0.28372383945992     -0.40041582046556
  F   0.34332724206541      1.60282410942077      0.76462383579838
  H   -0.10183176407132     -1.10202447347093     -1.04936583692445
  H   1.25266432651733      0.94108668056628     -0.86472390742194
  N   1.65347849579749     -0.26873015637556      0.85906992830639
  H   1.68189816020238     -1.24509980264934      0.60580271792443
  H   2.58940027500299      0.10688156120503      0.90090945453635
  N   -1.29208726351549      0.59108684050833     -1.18119354677550
  H   -1.62463688533864      1.34197314551200     -0.58846528629821
  H   -2.09489077712981      0.08069728172930     -1.52676613784001
  C   -1.09432262734622     -0.88985126131844      0.77725969602926
  N   -1.67583670756984     -1.38032921973967      1.67173721303748
