13
Coordinates from ORCA-job run
  C   0.76282436303285      0.49869062458331      0.07395767772444
  C   -0.53596872837876     -0.17503607990748     -0.37768725949990
  F   0.50183280002028      1.22323760718042      1.23551648586614
  H   -0.27655769702188     -0.75232972496334     -1.27722467769816
  H   1.06624547300696      1.22962838925493     -0.68278748746589
  N   1.79001115962596     -0.46178744021577      0.23428234925209
  H   2.67483664696413     -0.01408112274129      0.43193403250089
  H   1.57241525309018     -1.09872806859854      0.99224808720325
  N   -1.58825977729449      0.81463209001259     -0.57066144032786
  H   -2.44454485850814      0.35708993472529     -0.85845594473750
  H   -1.31577687296950      1.45263907661904     -1.30941857742074
  C   -0.95264213251062     -1.13975963244833      0.64870297560145
  N   -1.25441562905697     -1.93319565350081      1.45859377900179
