13
Coordinates from ORCA-job run
  C   0.96881023511210     -0.00757191635284     -0.32375314123305
  C   -0.53514438839859     -0.19526663634231     -0.52862384685160
  F   1.25016010236733      1.24248359730053     -0.94487718975087
  H   -0.72186705603495     -0.15876173108508     -1.61121850995240
  H   1.54423160056281     -0.74433982934517     -0.88729384995456
  N   1.29506543993528     -0.04653848516503      1.03609085128496
  H   2.27394332363543      0.12786736887142      1.20960088400073
  H   0.70270770941493      0.57702951081761      1.56792600217674
  N   -1.22521602347554      0.85376022716536      0.22181011546954
  H   -1.04904729629688      1.73887216678758     -0.23858060449312
  H   -2.22375167823884      0.68855377282697      0.22466138337982
  C   -0.95286097672597     -1.51365829012569     -0.04517556850728
  N   -1.32803099185709     -2.56342975535336      0.32043347443109
