13
Coordinates from ORCA-job run
  C   0.95710308711771      0.22821168200477     -0.37657591558478
  C   -0.51286043110508     -0.18854871302794     -0.53744632598400
  F   1.02590952103069      1.46736073669601     -1.04191721298003
  H   -0.75239654887599     -0.17525551857748     -1.61006222440889
  H   1.61343707949390     -0.44952301987928     -0.92681775308222
  N   1.36209771799880      0.35897683652544      0.96153453156788
  H   0.58791227084987      0.47427161710330      1.59909955184005
  H   2.02944682043842     -0.32799777039737      1.26686983048917
  N   -1.32359469312557      0.72040372272107      0.26729682093746
  H   -1.22257534784483      1.65445357879537     -0.11281866642950
  H   -2.30092406157222      0.46109471473340      0.22374668954253
  C   -0.67436611436441     -1.56114066608279     -0.04785072509691
  N   -0.79018930004131     -2.66430720061451      0.33494139918924
