13
Coordinates from ORCA-job run
  C   0.70266788179632      0.46988289433818      0.07578897845329
  C   -0.52483536198624     -0.22947311178829     -0.52039327611993
  F   0.25072368331481      1.15643122835530      1.22457782156937
  H   -0.21227120029164     -0.67434201531252     -1.47004026201882
  H   1.04500397119641      1.24564847924511     -0.61478630960434
  N   1.74933766703896     -0.43366998577644      0.33957159108229
  H   1.48001255281933     -1.12616562908699      1.02798961547496
  H   2.58541174544982      0.04123578394051      0.65092372935324
  N   -1.66998227086123      0.63243295356802     -0.75992067379790
  H   -1.85267083995941      1.18012606338840      0.07231304441597
  H   -1.46423929986779      1.26966635424024     -1.51945935807837
  C   -0.91604049967531     -1.33108040750639      0.37396411215656
  N   -1.17311754547750     -2.20169319695559      1.11747068508833
