13
Coordinates from ORCA-job run
  C   0.86408375142655     -0.29314212136912      0.23379279167188
  C   -0.43545678969127     -0.03042908704710     -0.53805366879471
  F   1.77632770501206     -0.75423764141844     -0.73822984883503
  H   -0.14279048287190      0.49381942816857     -1.45427222711279
  H   0.75629914437033     -1.12538445894787      0.93426668034400
  N   1.29468731789791      0.85135712081885      0.92610754799816
  H   1.29765584127722      1.67975350325535      0.34694183571389
  H   2.20048522693795      0.70868553904036      1.35113060523294
  N   -1.34419340076728      0.82366909450251      0.20967172381985
  H   -2.24758968273325      0.85507564314545     -0.24707716833567
  H   -1.47431865934239      0.46454958802065      1.14756332812223
  C   -1.01271729862348     -1.32959206278628     -0.94168123031667
  N   -1.53147267289245     -2.34312454538292     -1.22916036950808
