13
Coordinates from ORCA-job run
  C   0.73807790409659      0.48918018842817      0.24559717374565
  C   -0.51436078423649     -0.18642769151659     -0.31577870651166
  F   0.43736449319230      1.09081542146619      1.44216060509751
  H   -0.19328388353227     -0.83390910706346     -1.14872491393348
  H   1.03133978782061      1.30312815240172     -0.43568249588618
  N   1.74834931125170     -0.49713761662150      0.50723388189049
  H   2.54190466608244     -0.06062295468701      0.95946120576538
  H   2.06462584679047     -0.93030170919002     -0.35078499541593
  N   -1.48925697686547      0.82841742212468     -0.70567320575431
  H   -1.24446824297172      1.20764885745658     -1.61213621202745
  H   -2.41380071495779      0.42394982561271     -0.77671709273122
  C   -1.09480728724707     -1.06345267517006      0.70562574001494
  N   -1.61068411942328     -1.77028811324141      1.48641901574626
