13
Coordinates from ORCA-job run
  C   0.95710046559238      0.17166393730596     -0.27687099459597
  C   -0.48897475103899     -0.09593992819757     -0.70970753342654
  F   1.36305503461303      1.37208904093155     -0.80589161240851
  H   -0.50755794068861     -0.12180275872326     -1.80408098907482
  H   1.61568467722771     -0.59844709217942     -0.70227654179273
  N   1.01557620643565      0.29138911304536      1.16040532881282
  H   1.89315801556317      0.72722991451956      1.41646003639843
  H   0.97991459469376     -0.62593735089474      1.59002581428291
  N   -1.34565622566248      0.97080668828290     -0.23835255168043
  H   -2.31925941121862      0.75318168110494     -0.40503057151699
  H   -1.19096601547643      1.09584115071562      0.75478634650560
  C   -0.84403501543075     -1.44462984545937     -0.21097256409362
  N   -1.12803963460983     -2.49544455045153      0.23150583258984
