13
Coordinates from ORCA-job run
  C   0.86262940627221      0.16891387523071     -0.30808390611377
  C   -0.59463736240793     -0.19413653531593     -0.63730872591193
  F   1.08949146090003      1.43477239575501     -0.81963565562064
  H   -0.68923679765986     -0.22345287974138     -1.72783126582065
  H   1.55897656553135     -0.50193017956596     -0.83078283056280
  N   1.03529935740571      0.24874623323671      1.11682202302240
  H   1.94362651258418      0.64555501475368      1.32461852516870
  H   0.99177562793739     -0.67657535656175      1.52847462173349
  N   -1.57417616566545      0.73924397647143     -0.11156362057320
  H   -1.46480432926803      1.61813394704553     -0.60352236653463
  H   -1.34773099538294      0.91364153894828      0.86205263858685
  C   -0.84396669786170     -1.54800423305919     -0.12202957801231
  N   -0.96824658238495     -2.62490779719716      0.32779014063847
