13
Coordinates from ORCA-job run
  C   0.78188391907691     -0.21088131961134      0.26426052920525
  C   -0.52148610760494     -0.12311573889518     -0.53977806211567
  F   1.71310171315719     -0.90824540932879     -0.51541878776554
  H   -0.29873236782494      0.45446554087220     -1.44650582377334
  H   0.62836555108212     -0.79556545476526      1.17521079065856
  N   1.21947836889025      1.09381412067773      0.60326796464725
  H   1.99016012432770      1.06745328446072      1.25739011067762
  H   1.51372558554858      1.59496390684013     -0.22689866307828
  N   -1.61729052014490      0.52637098963953      0.16402074575903
  H   -1.94241947668884     -0.06822287513315      0.91779791128271
  H   -1.25879832002435      1.38064604791181      0.57567794960422
  C   -0.93338714932679     -1.46476138557615     -0.96629229255480
  N   -1.27460132046798     -2.54692170709225     -1.26373237254701
