13
Coordinates from ORCA-job run
  C   0.67195214285431      0.50368595097030      0.21983063148303
  C   -0.47853480463501     -0.24053903859363     -0.46731296490975
  F   0.11005596413121      1.27807347099470      1.23820861938534
  H   -0.06532456517631     -0.75718548009762     -1.34187947645380
  H   1.07922709891666      1.23717089524468     -0.48925881332622
  N   1.62705935381608     -0.38239016949377      0.76737671290047
  H   1.63990326277701     -1.30414162413921      0.36108332878759
  H   2.55468969015635      0.00392657562883      0.84059330962121
  N   -1.56568448297574      0.61213100041972     -0.92013355507796
  H   -1.23256150265302      1.23029769673340     -1.65031241820708
  H   -1.87675759386155      1.18423316225829     -0.14373831363012
  C   -1.01731190019367     -1.26993939439505      0.43583759978434
  N   -1.44771266315630     -2.09432304553065      1.15070533964295
