13
Coordinates from ORCA-job run
  C   0.90709367284604     -0.24553624262038      0.07347536368431
  C   -0.51508449102816     -0.17166599977794     -0.47648793106980
  F   1.73726939900397     -0.70134363742261     -0.92879060809870
  H   -0.44182021908864      0.34737315835980     -1.44225018856046
  H   0.95438473055506     -0.97265643662379      0.89387311879788
  N   1.33160760424480      1.08945872665603      0.42497906101742
  H   1.03033291038847      1.29121841630886      1.37065417577681
  H   2.34430453656426      1.11596829865091      0.40840623898601
  N   -1.33548019565830      0.52330968431507      0.51630807822366
  H   -1.19732041359458      1.51893543243362      0.39115630479682
  H   -2.31706881287402      0.32312192092501      0.37379288081391
  C   -1.03676027857311     -1.51980679393195     -0.71401586469791
  N   -1.46145844278579     -2.59937652727264     -0.89010062966996
