13
Coordinates from ORCA-job run
  C   0.87262289377148      0.19567949772217     -0.26962261055775
  C   -0.55763086481510     -0.21771642699619     -0.65075639325297
  F   1.07891502489446      1.46415091983516     -0.78350130424620
  H   -0.60903707329819     -0.26012137157908     -1.74380538987492
  H   1.61067576706625     -0.45613482668980     -0.75814614067208
  N   0.98678892314466      0.29249369916689      1.16041449572573
  H   0.95528904559721     -0.63014644934674      1.57911812603522
  H   1.87361689134476      0.71897667156279      1.39998522002749
  N   -1.58573767759799      0.68919096007120     -0.17257339403749
  H   -1.39548380195638      0.88885613608669      0.80399990964214
  H   -1.49313823652520      1.56256265892996     -0.67759414338728
  C   -0.78975444190588     -1.57603320248379     -0.13932587191921
  N   -0.94712644972007     -2.67175826627928      0.25080749651731
