13
Coordinates from ORCA-job run
  C   0.90941041561532     -0.01868409959789     -0.30638142938169
  C   -0.57983670758436     -0.19757321005194     -0.62750223766411
  F   1.28297788636657      1.17574954309458     -0.96729647749820
  H   -0.67449270122440     -0.13603373770148     -1.71675459386197
  H   1.50339852196285     -0.81598887049110     -0.75844500287805
  N   1.15017360684230      0.03128744732623      1.08084137992183
  H   0.72203103273413      0.84738555638121      1.49628454922796
  H   2.13853738263598      0.03433879732527      1.29081331861025
  N   -1.46652930801758      0.80062235092757     -0.05106577286361
  H   -1.14331794878352      1.72785603989129     -0.29776860684716
  H   -1.51522818677127      0.71016318377512      0.95561081812546
  C   -1.00290028345743     -1.54002170223267     -0.21402008117229
  N   -1.32322371031860     -2.61910129864620      0.11568413628159
