13
Coordinates from ORCA-job run
  C   0.77963942625293      0.47596582092754      0.07105566556038
  C   -0.54171097099599     -0.15709183879775     -0.37334654492400
  F   0.54864487593568      1.20198619470351      1.23811903174965
  H   -0.30597952076742     -0.74426411226508     -1.27299730372629
  H   1.09883978651758      1.20154149805661     -0.68427622698708
  N   1.77925374008826     -0.51506315453674      0.21943344717970
  H   2.67839873123535     -0.09502074157245      0.41276663165325
  H   1.54824765204410     -1.14976777522939      0.97511226799122
  N   -1.56307290704812      0.86521030496568     -0.56338241227641
  H   -1.28421242951983      1.47994020588454     -1.31928960184219
  H   -2.44067765478691      0.43316939280820     -0.82510157295700
  C   -0.98436565955538     -1.10614779888303      0.65658015603780
  N   -1.31200506940025     -1.89045799606164      1.46532646254096
