13
Coordinates from ORCA-job run
  C   0.95029120382410     -0.29159421402824      0.27256968774825
  C   -0.39633938730342     -0.11737982109976     -0.45289855190532
  F   1.73058054697137     -1.09630580148117     -0.53172491562800
  H   -0.18429596053844      0.41711611509459     -1.38494447935398
  H   0.78584105756537     -0.81196833166336      1.22286789488518
  N   1.65647632572959      0.92097824118578      0.52582573211417
  H   1.77127065078696      1.44052263597820     -0.33738681846313
  H   1.11824139962682      1.49137935934998      1.16552418625327
  N   -1.26406941646914      0.71487611666094      0.37373334007596
  H   -2.04316504562505      1.06003455776027     -0.17283609486822
  H   -1.65248545364026      0.16025194137571      1.12858783398900
  C   -0.97892913371815     -1.42693975983522     -0.79704674654348
  N   -1.49241678720974     -2.46097103929771     -1.01327106830372
