13
Coordinates from ORCA-job run
  C   0.98064043008823      0.09353124908268     -0.37350995856826
  C   -0.52644540816909     -0.15623868348011     -0.53388539555336
  F   1.20189479386441      1.27700604088451     -1.10369417793042
  H   -0.75343362234440     -0.17518780215922     -1.60923266409982
  H   1.55672307039914     -0.68605049287053     -0.87670738390412
  N   1.38664759998687      0.25010525739730      0.96192947922068
  H   0.62484344694746      0.48695224508548      1.58022114077694
  H   1.96440185865768     -0.49373834895145      1.31309674500323
  N   -1.23174419519956      0.88498036563688      0.20746755709654
  H   -2.23241089797897      0.74153727412271      0.15934543446546
  H   -1.01543894080622      1.77841795950526     -0.21907761019207
  C   -0.85338779658863     -1.47095918001295      0.02683016333635
  N   -1.10229033885692     -2.53035588424056      0.46621667034887
