13
Coordinates from ORCA-job run
  C   0.99506818907240     -0.24883831145048      0.09824757461580
  C   -0.43453558991213     -0.03259221451792     -0.43075376907574
  F   1.74372671827165     -0.71388551637726     -0.96277163129403
  H   -0.37372580217404      0.75742876845649     -1.18663837557963
  H   0.98110629697182     -1.02240713490800      0.87440731234514
  N   1.62381270067794      0.91978824183567      0.62104599368710
  H   1.60841909365637      1.65870769467192     -0.07333208521406
  H   1.10718883929353      1.23972284173226      1.43056146277553
  N   -1.26822883829914      0.44003816636013      0.66943833701639
  H   -1.52065417493472     -0.33935299870776      1.26710775862098
  H   -2.13037635743162      0.83281727856747      0.31257038461312
  C   -0.94249794475417     -1.25367331491704     -1.08151803053288
  N   -1.38930313043786     -2.23875350074547     -1.53936493197772
