13
Coordinates from ORCA-job run
  C   0.71108304331980      0.45656216603976      0.07936054847110
  C   -0.52509435240057     -0.22169413589773     -0.52301755733945
  F   0.26351057871392      1.15835061460253      1.22085664626696
  H   -0.21367953360593     -0.67784583217020     -1.46770811091666
  H   1.07411122348299      1.22183289309556     -0.61235743060017
  N   1.73757522085802     -0.46580561315919      0.35664404550377
  H   2.58022551151179     -0.00580606440202      0.67249524968767
  H   1.44905065758543     -1.14943619494769      1.04609696446609
  N   -1.65083788180753      0.66138592654343     -0.77673006448041
  H   -1.42683405594546      1.28928048161054     -1.53878772040217
  H   -1.82885676728248      1.21797269394159      0.05055738692012
  C   -0.94544295825815     -1.31076154721282      0.37339804304959
  N   -1.22581068617183     -2.17303538804377      1.11819199937357
