13
Coordinates from ORCA-job run
  C   1.00035111911004     -0.21992135102820     -0.00715185281965
  C   -0.47398053450223     -0.13551585878678     -0.42720193709304
  F   1.71165303315881     -0.53038504082002     -1.15452857297441
  H   -0.53603076430590      0.60549617153090     -1.24051619002047
  H   1.12036552839839     -1.03515595906975      0.70969058558018
  N   1.52347552657599      0.97452396499738      0.55713715627165
  H   1.22670747096511      1.81175225261386      0.07472622124752
  H   1.35089458959871      1.04130455403416      1.54793387823127
  N   -1.26654376465859      0.19564067426619      0.75687775815845
  H   -2.24298740567511     -0.02216819576714      0.60300184809913
  H   -1.19751962019666      1.18898890879075      0.93728313971197
  C   -0.92075269867676     -1.42093775260698     -0.96989616361735
  N   -1.29463247979180     -2.45262236815437     -1.38535587077526
