13
Coordinates from ORCA-job run
  C   0.94540477649373      0.10879630178695     -0.37506158601893
  C   -0.55149110653145     -0.16595867645174     -0.63361256526212
  F   1.18203646614466      1.32363265100740     -1.02066736811941
  H   -0.68970328179407     -0.20734681484447     -1.71968604006276
  H   1.55846296021551     -0.64885234859102     -0.87085188076740
  N   1.34532785114020      0.21510379067073      0.97997756112915
  H   1.65615105702769     -0.66241112516798      1.36679263366785
  H   0.64590310445217      0.63947010622431      1.57155695877201
  N   -1.46441611888495      0.83888317137129     -0.11104737628365
  H   -1.15752675650511      1.75549074476557     -0.41293763209469
  H   -1.50673390100581      0.81741196540464      0.89973807863473
  C   -0.88019722505229     -1.48220574885732     -0.07780052549944
  N   -1.08321782570028     -2.53301401731836      0.40359974190466
