13
Coordinates from ORCA-job run
  C   1.00519108173361     -0.07806266207525     -0.24808671219985
  C   -0.48482166629860     -0.11276499141955     -0.61257132922478
  F   1.59640867651267      0.89819515735428     -1.06772655836852
  H   -0.55105225501344      0.06829345463802     -1.68850557665195
  H   1.48852483439068     -1.02303832109685     -0.50537919592042
  N   1.16566685781770      0.19285207623156      1.12719856452037
  H   2.13252256686355      0.10874701755930      1.40965941867483
  H   0.83712789145302      1.13125813996966      1.32089431606484
  N   -1.19392115858200      0.95274171769146      0.08398975814424
  H   -2.04673411473086      1.18793790043317     -0.40590833611737
  H   -1.44420667034898      0.64405206702589      1.01562297371623
  C   -1.02570063512777     -1.45736379763293     -0.33775181158141
  N   -1.48000540866957     -2.51184775867876     -0.09143551105621
