13
Coordinates from ORCA-job run
  C   0.86966544957585      0.17106340084395     -0.28799255769602
  C   -0.57255767055922     -0.22245543075191     -0.64669260438199
  F   1.09413964688731      1.42327778601997     -0.83382779516425
  H   -0.63468164421683     -0.28665880253503     -1.73806546440156
  H   1.58952724428100     -0.50571240134350     -0.76966536142633
  N   1.00093712878355      0.29864229349916      1.13778734716128
  H   0.95195003558649     -0.61325309689787      1.57785322595075
  H   1.90074718860061      0.70813775919942      1.35789485318799
  N   -1.57897185883725      0.71410215318442     -0.18025848152440
  H   -1.38551047994072      0.92139005975911      0.79403054167475
  H   -1.46444961180037      1.57904813795710     -0.69532423381529
  C   -0.82148282324823     -1.56237197893413     -0.09644335589852
  N   -0.94931260511219     -2.62620988000069      0.38270388633360
