13
Coordinates from ORCA-job run
  C   0.98801754781142      0.08982689840016     -0.35503075789825
  C   -0.51311403325052     -0.17905999672086     -0.53945705435618
  F   1.21455991840171      1.24956021606921     -1.12130889920600
  H   -0.71599811402020     -0.23504549264269     -1.61833872349818
  H   1.58146056008662     -0.70137025006958     -0.81838052487918
  N   1.36325519819555      0.29581081958417      0.98208910528464
  H   0.58707104228892      0.55141113141695      1.57482741896644
  H   1.93997150827434     -0.42886788486229      1.37276675289481
  N   -1.24357172708010      0.87901985148251      0.15195366407526
  H   -2.24157545785524      0.72168647326413      0.09178178049672
  H   -1.03042561733867      1.75943424004155     -0.30253314709639
  C   -0.84044347845571     -1.47793735184585      0.05697851012767
  N   -1.08920734705813     -2.52446865411741      0.52565187508863
