13
Coordinates from ORCA-job run
  C   0.95220533711247      0.11259314373535     -0.35532753613873
  C   -0.53349121748752     -0.19448782132950     -0.64070023574881
  F   1.18587088074127      1.30983773831795     -1.03420805056510
  H   -0.64419711054348     -0.27109711142839     -1.72800285259071
  H   1.58845016935645     -0.65080339841930     -0.81154619556600
  N   1.31722815035459      0.26839539820682      1.00466566567911
  H   1.63393000562187     -0.59065246238938      1.42653788631649
  H   0.59728911942071      0.69936460498114      1.56608506911528
  N   -1.47478215368834      0.81042070304813     -0.17163762183550
  H   -1.17673954337269      1.72202930162367     -0.49671103648597
  H   -1.53969687036985      0.82106649273546      0.83813151356982
  C   -0.85429184141478     -1.49859501838441     -0.05260428723671
  N   -1.05077492573069     -2.53807157069752      0.45531768148683
