14

C	-0.438622	0.053333	-1.470518
C	0.0	0.0	0.0
Cl	-0.083155	-1.520605	-2.26176
H	1.093637	0.0	0.0
H	-0.31618	0.934643	0.477169
C	-1.882329	0.282512	-1.590175
N	-3.030446	0.51969	-1.674387
C	0.351751	1.146905	-2.182519
H	1.416471	0.946247	-2.040714
H	0.103544	1.168568	-3.244393
H	0.1122	2.117013	-1.737801
C	-0.570483	-1.117444	0.737071
N	-1.05244	-2.001756	1.339741
Cl	3.325825	0.0	0.0
