14

C	-0.397581	-0.076142	-1.479098
C	0.0	0.0	0.0
Cl	-2.195192	-0.240592	-1.65393
H	1.094572	0.0	0.0
H	-0.365816	0.921612	0.45819
C	-0.039743	1.184477	-2.136562
N	0.220261	2.188574	-2.689279
C	0.288827	-1.25126	-2.161103
H	1.367895	-1.14339	-2.014443
H	-0.044463	-2.18198	-1.696976
H	0.047998	-1.272557	-3.224756
C	-0.491987	-1.151902	0.743786
N	-0.901546	-2.078517	1.337272
Cl	3.291513	0.0	0.0
