13

C	-0.555166	-0.067092	-1.416253
C	0.0	0.0	0.0
Cl	0.125867	1.358184	-2.364099
H	1.091278	0.0	0.0
H	-0.319769	-0.910446	0.51859
C	-0.058304	-1.264946	-2.106475
N	0.296229	-2.225922	-2.681723
N	-1.985045	-0.082789	-1.440131
H	-2.336617	0.710448	-0.913471
H	-2.321636	-0.014772	-2.394545
C	-0.548681	1.154896	0.686099
N	-1.006114	2.096252	1.222813
H	2.682401	0.0	0.0
