13

C	-0.261201	-0.124906	-1.493259
C	0.0	0.0	0.0
Cl	-1.986254	-0.691152	-1.841021
H	1.095388	0.0	0.0
H	-0.313777	-0.931455	0.477452
C	-0.171933	1.180781	-2.175321
N	-0.042481	2.205811	-2.737934
N	0.667661	-1.096184	-1.97529
H	1.581696	-0.908971	-1.521922
H	0.762387	-1.048676	-2.981357
C	-0.607255	1.143457	0.641235
N	-1.082875	2.067897	1.190075
H	2.690693	0.0	0.0
