13

C	-0.495476	0.051107	-1.425836
C	0.0	0.0	0.0
Cl	-2.393974	0.445173	-1.388548
H	1.093636	0.0	0.0
H	-0.321532	0.893301	0.538357
C	0.036875	1.213785	-2.143188
N	0.423907	2.136726	-2.757545
N	-0.231164	-1.122074	-2.135323
H	-0.612219	-1.120023	-3.06996
H	-0.496554	-1.952424	-1.622689
C	-0.49792	-1.18821	0.663451
N	-0.893804	-2.180543	1.154901
H	2.649663	0.0	0.0
