13

C	-0.551939	0.036134	-1.428414
C	0.0	0.0	0.0
Cl	0.097406	1.487713	-2.260158
H	1.092634	0.0	0.0
H	-0.304072	-0.950591	0.456258
C	-0.090307	-1.158842	-2.151931
N	0.191683	-2.148335	-2.717645
N	-2.003423	0.08963	-1.571586
H	-2.389068	-0.725648	-1.103175
H	-2.327616	0.911845	-1.070292
C	-0.555696	1.09191	0.776178
N	-1.020214	1.980028	1.391682
H	2.692438	0.0	0.0
