13

C	-0.525991	-0.029109	-1.427607
C	0.0	0.0	0.0
Cl	0.152246	1.471617	-2.255731
H	1.091841	0.0	0.0
H	-0.31604	0.941146	0.463944
C	-0.014288	-1.174537	-2.193594
N	0.306301	-2.094306	-2.849801
N	-1.953071	-0.061722	-1.48158
H	-2.330188	0.695933	-0.92479
H	-2.281947	0.027556	-2.436397
C	-0.508516	-1.120901	0.771579
N	-0.880531	-2.023865	1.426015
H	2.694123	0.0	0.0
