13

C	-0.526432	-0.0408	-1.426525
C	0.0	0.0	0.0
Cl	0.150624	1.456463	-2.26622
H	1.091825	0.0	0.0
H	-0.315546	0.944713	0.457048
C	-0.012621	-1.189763	-2.185437
N	0.306478	-2.112169	-2.838279
N	-1.952848	-0.075888	-1.480975
H	-2.282113	-0.000391	-2.436928
H	-2.332361	0.687009	-0.933527
C	-0.508232	-1.114694	0.781214
N	-0.880586	-2.011086	1.444334
H	2.6935	0.0	0.0
