13

C	-0.24466	0.087171	-1.512519
C	0.0	0.0	0.0
Cl	-0.056488	-1.684996	-2.15386
H	1.094347	0.0	0.0
H	-0.404075	-0.914109	0.431949
C	-1.614124	0.4321	-1.91522
N	-2.707542	0.729135	-2.22805
N	0.696965	0.978137	-2.033033
H	0.72236	0.997458	-3.043482
H	1.62189	0.791494	-1.611488
C	-0.500585	1.172307	0.69338
N	-0.903172	2.104559	1.28543
H	2.737562	0.0	0.0
