14
Coordinates from ORCA-job run
  C   0.40716884512901     -0.10907020209340      0.00847835591695
  C   -0.86863843287773      0.36660496585247      0.01245665847561
  N   1.47228026933084      0.73690574104510     -0.29138548370741
  H   2.32490726348378      0.25309732916248     -0.52824151176369
  H   1.24912072637612      1.45528490619678     -0.96568429449031
  C   0.78368182070510     -1.48656312677258      0.45565363399670
  H   -0.09104734070394     -2.07308187357401      0.73300705818946
  H   1.31550717771371     -2.01437643076926     -0.34275829325044
  H   1.45129456170867     -1.43143030182904      1.32113229903899
  N   -1.20250038241486      1.72809323796920     -0.20448445236577
  H   -1.54969184253308      1.94287356808897     -1.12890075747293
  H   -0.46674905300128      2.35965733205866      0.07567857214821
  C   -1.96013957711654     -0.50394599271768      0.31989776503829
  N   -2.86619403579978     -1.22404915261767      0.53615045024633
