14
Coordinates from ORCA-job run
  C   0.45116834811743     -0.00332783225234     -0.14581689537139
  C   -0.87190071133365      0.32475987761172     -0.17037357405594
  N   1.34994042640332      0.43682962664203     -1.11221520885419
  H   2.27654219764006      0.62433779701786     -0.75935592817300
  H   1.00880231250570      1.18470937705322     -1.70157476213160
  C   1.00651552985574     -1.00932414956527      0.81769468567869
  H   0.43415592934758     -1.03305051000333      1.74556867704833
  H   2.04237375213049     -0.76367124503623      1.06828871865702
  H   1.01131746417014     -2.01313802553318      0.38067234971001
  N   -1.90424110025604     -0.32624180690355      0.55575705170283
  H   -1.61452677695003     -1.22125461055521      0.91873591253474
  H   -2.28952504146474      0.24563352960072      1.29653152468335
  C   -1.30290237466783      1.34209733351704     -1.07894082873431
  N   -1.59771995549818      2.21264063840654     -1.81597172269454
