14
Coordinates from ORCA-job run
  C   0.46786969319780      0.01481849222529     -0.06323945439102
  C   -0.82007950482085      0.46009703710055     -0.10692605999283
  N   1.53879789446973      0.77936441345719     -0.51543418929652
  H   2.27979431443039      0.24054563426154     -0.93829577587347
  H   1.28276303311922      1.58083081283954     -1.07678942359758
  C   0.85752290936642     -1.25135179793689      0.63763418551437
  H   0.02681601587105     -1.95493247148754      0.68960605621658
  H   1.21054761502961     -1.04474752159597      1.65266297976797
  H   1.67723295001325     -1.74273706324128      0.10544943552912
  N   -1.91919635474160     -0.08338461972441      0.60885440837476
  H   -1.63087498953664     -0.67676580212591      1.37134527760083
  H   -2.58146962638837     -0.56686931814094      0.01598936439930
  C   -1.10102935185221      1.64556055107969     -0.85784952467990
  N   -1.28669459815781      2.60057165328916     -1.52200727957163
