14
Coordinates from ORCA-job run
  C   0.49604925421839     -0.13133858149102     -0.06959819885298
  C   -0.78010019669805      0.34403017189292     -0.01812871813487
  N   1.40835547918136      0.44411741322946     -0.91942788437694
  H   1.11343559033365      1.35192499835718     -1.25466182690683
  H   2.37458637038813      0.37777253405953     -0.64204130553195
  C   0.96054599953295     -1.33643201171541      0.68564275617870
  H   1.29448846798084     -2.10845210292240     -0.01260929693383
  H   1.80967516541258     -1.07759579633859      1.32627469834390
  H   0.17083592972992     -1.74771896807727      1.31286907830155
  N   -1.10909233760878      1.50612007652180     -0.79579606036971
  H   -1.71306672631891      1.26219684709786     -1.57292900264353
  H   -1.60062790540760      2.18586022099220     -0.22783719874252
  C   -1.78187760205983     -0.29438967596691      0.77160969405019
  N   -2.64220748868466     -0.77709512563935      1.41663326561882
