14
Coordinates from ORCA-job run
  C   0.46462336415870     -0.14212706204870     -0.19815235405150
  C   -0.81327321124695      0.30470002129886     -0.02925663210271
  N   1.09868794058457     -0.12614380574676     -1.42184781962104
  H   0.68443499156576      0.45564036020499     -2.13621971664547
  H   2.10364843275604     -0.06738191877679     -1.38722086293951
  C   1.23770326440699     -0.77777290695904      0.91381618825794
  H   0.64022364672202     -0.79567559760293      1.82127828931045
  H   1.51830763786746     -1.79754375048022      0.63601635636987
  H   2.16089808466029     -0.21854209745142      1.10018560680835
  N   -1.49776725795807      0.16222544270700      1.22016055541585
  H   -1.80803620265572      1.06387583800084      1.56189915568505
  H   -2.31705803738907     -0.42452164044928      1.11458647557966
  C   -1.47301818157695      0.92282302788517     -1.13846209042143
  N   -1.99937447189504      1.44044408941826     -2.05778315164551
