14
Coordinates from ORCA-job run
  C   0.41687776272439     -0.03150474520822      0.21540595465672
  C   -0.79352191959567      0.51117576596434     -0.10055844144293
  N   1.29182963198044      0.56703673565647      1.11544703936167
  H   2.26679629567241      0.43412990311038      0.89285231806987
  H   1.08003219877295      1.52995338478518      1.34092615937852
  C   0.83119711773078     -1.39737462506337     -0.24066467362863
  H   0.29165897106403     -1.70448059193948     -1.13629658508472
  H   0.66527100495021     -2.13990254061797      0.54582023334454
  H   1.90000490590399     -1.40843264250190     -0.47397236180527
  N   -1.87003457406598     -0.15559730001506     -0.74463756041058
  H   -1.99988579693499      0.13113879624859     -1.70602571065918
  H   -1.79885936841715     -1.15930280996707     -0.68221648525296
  C   -1.06318602395196      1.85206203342657      0.32009994910393
  N   -1.21818020583343      2.97109863612153      0.65382016436904
