14
Coordinates from ORCA-job run
  C   0.39206896750539     -0.14438445894675     -0.05407720363232
  C   -0.87603412029639      0.34970594664054     -0.00996652691281
  N   1.29514061735086      0.32067574070692     -1.00662148922393
  H   2.25817440975170      0.10630513107574     -0.79746245673264
  H   1.17187339071987      1.29317386937875     -1.24987567804148
  C   0.86795608222697     -1.29218139617729      0.77956375367477
  H   1.16437853636024     -2.12612816679217      0.13575739478897
  H   0.09479509043452     -1.64198546795096      1.46197405418919
  H   1.74316644603594     -0.99879351220579      1.36850659282519
  N   -1.38926079288837      1.28934152894685     -0.94122927436183
  H   -0.94590324061585      1.22218622692152     -1.84554176863814
  H   -1.42149899799530      2.24398805134084     -0.61130397734887
  C   -1.80084971852310     -0.12866278740233      0.96980228653328
  N   -2.55400667006648     -0.49224070553588      1.79847429288063
