14
Coordinates from ORCA-job run
  C   0.40154598431522     -0.12141694574403     -0.00971187920890
  C   -0.87791466309404      0.34396002586791     -0.05530631293248
  N   1.44271913046372      0.62988046533176     -0.52773271561305
  H   1.29582455103272      1.62776416329792     -0.52165772141528
  H   2.36009734066157      0.35637639141836     -0.21530977041979
  C   0.76821191759848     -1.50182039688611      0.44144447970047
  H   1.56959831601620     -1.46300775164146      1.18555071525248
  H   1.12847670790701     -2.08906045042168     -0.40796600216924
  H   -0.08418913507342     -2.01654326446564      0.88660561920150
  N   -1.23170495978901      1.57939174345757     -0.66095851715524
  H   -1.28662061383879      2.37430274474129     -0.03961449934114
  H   -0.71014000730033      1.78540255606481     -1.50093658420677
  C   -1.94934669278589     -0.43937865054631      0.47538600871603
  N   -2.82555787611345     -1.06585063047439      0.95020717959141
