14
Coordinates from ORCA-job run
  C   0.48219089657266     -0.16131768132771     -0.09891984886846
  C   -0.76180772195232      0.38215478769752      0.01965535835847
  N   1.35593370098121      0.32540248012992     -1.03995189935447
  H   1.08196969449501      1.23064033208475     -1.39871688011052
  H   2.33538550577358      0.22187223003811     -0.82836722154673
  C   0.94349847247497     -1.35072356862366      0.68249134165284
  H   1.20605661552286     -2.16490491377869      0.00169826755884
  H   1.83813746377584     -1.09873216027376      1.26105651144370
  H   0.17676946233982     -1.70191200564661      1.37187926278651
  N   -1.09013946834952      1.52283953817405     -0.78971625517164
  H   -1.76152867384420      1.27425461957373     -1.50792737660111
  H   -1.50493064189131      2.25232332403572     -0.22235784807197
  C   -1.73325880302515     -0.16445326604883      0.90986556806230
  N   -2.56727650287345     -0.56844371603453      1.63831101986225
