14
Coordinates from ORCA-job run
  C   0.38376231554095     -0.11719297566737     -0.23574726337637
  C   -0.90096293764615      0.31507860011380     -0.07656793194688
  N   1.00374731217465     -0.19196447698883     -1.47464007375845
  H   1.99799791024757     -0.02289689115266     -1.45773116675874
  H   0.53971576751094      0.30676934104107     -2.22140107378868
  C   1.21616562169213     -0.60642746794521      0.91090252236803
  H   0.59443185166876     -0.92930424129709      1.74489213708316
  H   1.89527970389393      0.17357057770178      1.27223200125158
  H   1.82173147307372     -1.45630700687701      0.58793148685494
  N   -1.60423706014411      0.44459729961070      1.15335156100824
  H   -2.20852966106888     -0.34187521033100      1.35369462289504
  H   -0.99165138328145      0.62124681199004      1.93425120100028
  C   -1.60962077156341      0.74244713289690     -1.24366586109562
  N   -2.13783014209867      1.06325850690489     -2.24650216173654
