14
Coordinates from ORCA-job run
  C   0.48158684456684     -0.17357961659481     -0.07862649563888
  C   -0.72333420855163      0.44731869589389      0.06208471033445
  N   1.57107925972052      0.53534027424259     -0.52189328141609
  H   2.47036052164651      0.19920639715466     -0.21634173718327
  H   1.43851264153560      1.53648240768460     -0.46230783392639
  C   0.68456260548411     -1.64137171795665      0.12755403367717
  H   -0.23461396130981     -2.13542028072560      0.43972243407895
  H   1.03761711916488     -2.10314960164290     -0.79838506678723
  H   1.44551293078614     -1.81341942754420      0.89579920122231
  N   -0.79399522975972      1.86365580461003     -0.16772200379386
  H   -1.27734654143858      2.32310364340801      0.59490430952444
  H   -1.30540034464067      2.06609270635617     -1.01966780340917
  C   -1.89910560791114     -0.27745571936146      0.41864574476583
  N   -2.89643602929303     -0.82680356552434      0.72323378855173
