14
Coordinates from ORCA-job run
  C   0.39914572790663     -0.12302540334903     -0.02838214036815
  C   -0.87845115737380      0.34743256827569     -0.03864453473606
  N   1.42791118025989      0.61277858398651     -0.60391143605755
  H   1.30298065544611      1.61564541067999     -0.57203629083850
  H   2.35096116665231      0.33002129014382     -0.31653247106427
  C   0.77746579495801     -1.48831658280453      0.45503392682582
  H   1.49928664578383     -1.42222773571803      1.27562374821197
  H   -0.09056993110342     -2.04155925869110      0.80709070404129
  H   1.25046060893582     -2.05448283049912     -0.35268330941011
  N   -1.27048041178572      1.56145935998855     -0.67050782993524
  H   -1.31922032209450      2.35819945194396     -0.05037699401901
  H   -0.70342373922770      1.76490883620057     -1.48149963212430
  C   -1.93531636988827     -0.42332633705063      0.53808399950984
  N   -2.80874984846919     -1.03550735310663      1.03774225996427
