14
Coordinates from ORCA-job run
  C   0.50670302300724     -0.10494277449720     -0.02599656746828
  C   -0.79022292863828      0.31051108553689     -0.07955524577324
  N   1.45324371680504      0.49727676118213     -0.81785494136607
  H   1.04759165602877      1.03635354949133     -1.57169945585648
  H   2.24468264468620     -0.07265607447228     -1.07014769210603
  C   1.00512055779195     -1.13688086136540      0.93579729693393
  H   1.46691046570685     -1.96804399981672      0.39335693237962
  H   0.19957383558069     -1.53614277348802      1.55072803870961
  H   1.76612957071993     -0.70223802251320      1.58961480145826
  N   -1.14787261617460      1.31155210398690     -1.04586435780044
  H   -1.97044146078798      1.02676173900619     -1.56406858499729
  H   -1.36319059514513      2.19184242846339     -0.59078055612988
  C   -1.78000288846687     -0.21957624228890      0.80028379583049
  N   -2.63722498111381     -0.63381691922511      1.49518653618580
