14
Coordinates from ORCA-job run
  C   0.45236878615488     -0.15352236603959     -0.21758969075998
  C   -0.81078334463458      0.31187183527209      0.00313125929357
  N   1.02020800288727     -0.18632998724547     -1.47283007524185
  H   2.02617435999436     -0.14158550362696     -1.49427709369675
  H   0.57453396977070      0.37444152391845     -2.18489545501935
  C   1.27750481677944     -0.75960608002196      0.87298481012302
  H   0.73107960278079     -0.73604924695250      1.81199419803488
  H   2.21670000291239     -0.20805855168745      0.98790542323633
  H   1.52908675463207     -1.79287262265687      0.61843852376331
  N   -1.42812561439446      0.22149406700848      1.29177828055731
  H   -1.70885391153296      1.13827722096823      1.61824966597062
  H   -2.25852977848515     -0.35752892858576      1.25121616286379
  C   -1.52449427824334      0.89858341418363     -1.08970550745610
  N   -2.09686936862139      1.39088522546568     -1.99540050166880
