14
Coordinates from ORCA-job run
  C   0.39865846033711     -0.10075029483453     -0.21936965391336
  C   -0.91356923291356      0.25937684254506     -0.11551205893137
  N   1.06399593837861     -0.17579140072175     -1.43496704825784
  H   0.59754971941019      0.27334108331642     -2.21112136284567
  H   2.04512644390072      0.05427939431435     -1.39086340311166
  C   1.21801675913678     -0.50605501656083      0.96864255586800
  H   1.83074746584552      0.32510486598265      1.33422587715078
  H   0.58793587041891     -0.84974193535922      1.78796029172413
  H   1.88913298320786     -1.32159326626344      0.69014816084768
  N   -1.66422780718979      0.38546326827160      1.08631559227776
  H   -2.24055303723284     -0.42270639523285      1.28273736562625
  H   -1.08737043294813      0.60413925440278      1.88371293205185
  C   -1.60705930396006      0.60837083720288     -1.31729243324401
  N   -2.12038382639132      0.86656276293689     -2.34561681524253
