14
Coordinates from ORCA-job run
  C   0.46549241067246     -0.13628175701553     -0.19802184725101
  C   -0.82462549365637      0.27425065887872     -0.02987628666899
  N   1.07224234426246     -0.18190008049141     -1.43467419167903
  H   2.07517926787163     -0.08942336220949     -1.42833560140343
  H   0.62295416512873      0.33461082374066     -2.17735881942136
  C   1.28489098731955     -0.66670001288909      0.93545617491580
  H   2.19454976053898     -0.06910811069431      1.05745393459776
  H   0.71050280277326     -0.63748850834972      1.85745827901100
  H   1.58995094736223     -1.69514455795521      0.72347744666047
  N   -1.47649863948337      0.19515602228424      1.24232830880314
  H   -2.27655668289995     -0.42478601236722      1.19656731156833
  H   -1.81130115322936      1.10713244310002      1.52903695631823
  C   -1.53165569660888      0.78336844449251     -1.16532789572821
  N   -2.09612502005137      1.20831400947583     -2.10918376972271
