14
Coordinates from ORCA-job run
  C   0.43812426940980     -0.20910780063515     -0.19914625619657
  C   -0.79811447985351      0.34221038710507     -0.02875283981996
  N   0.95798442883750     -0.48884264736881     -1.44455280298628
  H   1.96342453785533     -0.49079823806578     -1.50383045634840
  H   0.50655825986820     -0.04469093469341     -2.23137077331444
  C   1.27922140791034     -0.64656590948211      0.95795864681237
  H   0.76932702116762     -0.43034119157645      1.89290324931716
  H   2.24314775441330     -0.12681357994548      0.94323532993029
  H   1.47983357604203     -1.71917270291089      0.88641168782827
  N   -1.37077585597755      0.51064318760130      1.27240266951764
  H   -1.60367027362989      1.48250616379013      1.43655272545727
  H   -2.22381308550835     -0.02872523904402      1.36068578630293
  C   -1.52855217457808      0.75326762459327     -1.18874469607715
  N   -2.11369538595674      1.09743088063235     -2.15275227042313
