14
Coordinates from ORCA-job run
  C   0.36844645096443     -0.17809940839880     -0.21979424222834
  C   -0.88896463482707      0.34153005270335     -0.11155485967232
  N   0.94317785846635     -0.50726905060181     -1.43797107138046
  H   0.48012121607320     -0.13043688313696     -2.25341167700646
  H   1.94515332373735     -0.39768759336264     -1.47532195792765
  C   1.21495964676209     -0.49303483916336      0.97655673686861
  H   0.60806882969803     -0.62105029446836      1.87186587758768
  H   1.94419248886799      0.30151744744037      1.16877074520229
  H   1.76572952133577     -1.42011132278233      0.80239140058143
  N   -1.54550161439990      0.72581337309664      1.09121695507718
  H   -0.90010943079179      1.01933043973933      1.80819424148466
  H   -2.16592940219307      0.01289432093448      1.45289512452595
  C   -1.61347249902413      0.58958520771050     -1.31992368783362
  N   -2.15687175466923      0.75501855028958     -2.35191358527894
