14
Coordinates from ORCA-job run
  C   0.45573118715915     -0.19296408066815     -0.17464994520192
  C   -0.81083582338674      0.30343934648147     -0.07267727754461
  N   1.04548306139322     -0.47305440350987     -1.38827404656654
  H   2.05164184560437     -0.42882524269627     -1.40147838952832
  H   0.61140881372634     -0.06764571401632     -2.20522251084877
  C   1.26214835270578     -0.56585907322552      1.02884675262006
  H   1.52490374021873     -1.62640945269963      0.98598884388464
  H   0.69651607231073     -0.36434016867411      1.93455251992345
  H   2.19540502113406      0.00693712372279      1.05107995284883
  N   -1.45072797768100      0.46905829390291      1.19752243272677
  H   -2.28472281921489     -0.10353833527229      1.25474925074736
  H   -1.73061238486133      1.43306081225139      1.33296877164110
  C   -1.50545155835750      0.65588935229646     -1.27324760045650
  N   -2.06088753075093      0.95225154210716     -2.27015875424555
