14
Coordinates from ORCA-job run
  C   0.43596925719660     -0.21448447190761     -0.19806504859476
  C   -0.69950077989012      0.51567043716061     -0.00129132207339
  N   1.13855661516727     -0.18545411513066     -1.38313131140970
  H   1.67574611392407     -1.01227140950125     -1.58873358204028
  H   0.65530419306228      0.19351412182744     -2.18505158245120
  C   1.05967858626001     -1.02339524495183      0.89481021438622
  H   1.12008259205880     -2.07614867645256      0.59881268539422
  H   2.07828927339364     -0.67253764012831      1.08178961182495
  H   0.47026292960365     -0.94024446424755      1.80393116756598
  N   -1.34393048882121      0.56920159808198      1.27626556879997
  H   -1.35776325854757      1.51856431040436      1.63003473187779
  H   -2.30399439509067      0.25442932786271      1.20504846544590
  C   -1.24357053311124      1.24441263831380     -1.10627027169943
  N   -1.68613010520551      1.82974358866888     -2.02914932702627
