14
Coordinates from ORCA-job run
  C   0.37544518580540     -0.17763534536169     -0.21484415477688
  C   -0.86789144486533      0.37687043312866     -0.12563298073244
  N   0.99074395250117     -0.45703444059188     -1.42807941882820
  H   0.56957229484174     -0.01717373701048     -2.23515756604151
  H   1.99458463320547     -0.35616116782566     -1.41901167379643
  C   1.16156174080145     -0.58839287049456      0.99400917870815
  H   1.88346067689724      0.18291835512165      1.28368079576605
  H   0.51060687802425     -0.78184963842638      1.84609320848203
  H   1.71599295440692     -1.50405587106601      0.77690485057720
  N   -1.55647872738702      0.72217616745972      1.06987212259145
  H   -2.26310391657067      0.04640969382282      1.33147470262086
  H   -0.93174530387731      0.88845359350480      1.84368715684801
  C   -1.53950515458033      0.71382852298209     -1.34290576228618
  N   -2.04524376920299      0.95064630475692     -2.38009045913213
