14
Coordinates from ORCA-job run
  C   0.46123256926785     -0.16095155604262     -0.18448144160332
  C   -0.81082612896447      0.31467703767367     -0.05140095522233
  N   1.06757858014673     -0.31858309416771     -1.41100491066905
  H   0.46649321768652     -0.30413640659188     -2.22303892608899
  H   1.79338971810677     -1.01532186122885     -1.45426549705030
  C   1.33642180946464     -0.43711673934760      0.99671389218274
  H   0.78983678577208     -0.26203827544392      1.91959282233561
  H   2.21670420593383      0.21028003026654      0.96386792535967
  H   1.68530629372203     -1.47485516834853      0.97350473068315
  N   -1.38126327614874      0.57982941718298      1.23311485613904
  H   -1.60886720850420      1.56207200969183      1.33071486571046
  H   -2.23325814472482      0.04905568296962      1.36575433441481
  C   -1.57919202223729      0.54274887953817     -1.23689944084927
  N   -2.20355639952092      0.71434004384830     -2.22217225534223
