14
Coordinates from ORCA-job run
  C   0.44884627258416     -0.19666653705892     -0.18712926289466
  C   -0.81054094394551      0.30967456896929     -0.04994694786929
  N   0.99997874060371     -0.48683125387509     -1.41619784780225
  H   2.00567946061880     -0.45162575753472     -1.45972033550285
  H   0.54487500380397     -0.08231728858838     -2.22224431049391
  C   1.28834212080120     -0.56914383821062      0.99375313157906
  H   0.75527452792259     -0.35028994601443      1.91503161978113
  H   1.53484705805185     -1.63382013569262      0.95431334115482
  H   2.22989839071159     -0.00979346375129      0.97895654718880
  N   -1.41163233205042      0.48331065262290      1.23811982454831
  H   -1.68980835512571      1.44763161659941      1.37518690481604
  H   -2.24240518272807     -0.09044143730771      1.32447213165002
  C   -1.53661743150416      0.66496785686171     -1.23089542812657
  N   -2.11673732974400      0.96434496298047     -2.21269936802864
