14
Coordinates from ORCA-job run
  C   0.47204432578477     -0.14536340193453     -0.17607601999962
  C   -0.80913583843112      0.31058327235300     -0.06622447202137
  N   1.12250902128240     -0.24012953447916     -1.38732562539816
  H   0.54434101777683     -0.20285298853793     -2.21464999894166
  H   1.85165231034836     -0.93319644763236     -1.43482235144262
  C   1.30248057561573     -0.47831842128237      1.02286726548247
  H   0.72522012597839     -0.32658530511777      1.93093633182849
  H   1.63427185965088     -1.52101774344591      0.97540782580459
  H   2.19516339512514      0.15292328867807      1.04312156822894
  N   -1.42258487020803      0.52116177213711      1.20995431354362
  H   -2.27515123301008     -0.01980540449717      1.29015127438328
  H   -1.66532416626930      1.49696057708427      1.33439740766358
  C   -1.54084671094327      0.58700944440851     -1.26476736393504
  N   -2.13463981270074      0.79963089226625     -2.26097015519651
