14
Coordinates from ORCA-job run
  C   0.41286779731127     -0.11165475888140     -0.19917096601480
  C   -0.88857279303594      0.29173696352187     -0.14851577765317
  N   1.11953734678429     -0.20833936018977     -1.39388473441392
  H   0.54958138692899     -0.18033352424122     -2.22900223109647
  H   1.78797509575707     -0.96406127722988     -1.41634572914588
  C   1.24262556528158     -0.30753974872281      1.03375340138101
  H   0.62557606883802     -0.53727833167795      1.90216677042240
  H   1.94014134772849     -1.13808009438992      0.89172839616945
  H   1.84114141373435      0.58292723338802      1.24911912036686
  N   -1.58523436351702      0.73012519448705      1.00835183533422
  H   -0.96558555880103      0.97881679601919      1.76388741310530
  H   -2.28341041022211      0.07099849163864      1.32740670055419
  C   -1.61569768984668      0.38570489631603     -1.37760897797264
  N   -2.18094520694129      0.40697751996216     -2.41088522103655
