14
Coordinates from ORCA-job run
  C   0.48231226618537     -0.11928032265011     -0.16744918858667
  C   -0.80901501237744      0.30977567597097     -0.06934595248328
  N   1.19829930452126     -0.04831306991830     -1.34297462121544
  H   0.66448514867414      0.09498071119561     -2.18831917473936
  H   1.93763626008497     -0.72516775725412     -1.44147531630802
  C   1.25133065188336     -0.60236999669113      1.02118521436513
  H   2.13188010423539      0.02819698127060      1.17362360668805
  H   0.62359452281864     -0.57748281379042      1.90789384352074
  H   1.60167688224464     -1.62687696812683      0.85601643836256
  N   -1.49368249625885      0.34598588822392      1.18709683732763
  H   -1.75399827562297      1.29537566407476      1.42646008001313
  H   -2.34265158582310     -0.20495578376549      1.14815822369798
  C   -1.47613726353319      0.74238721459091     -1.25924958295244
  N   -2.01373050703222      1.08674457686963     -2.25062040769001
