14
Coordinates from ORCA-job run
  C   0.48079566522120     -0.16538248451215     -0.09851682160778
  C   -0.78394828008273      0.33530622256663     -0.01541774347172
  N   1.21782996021663      0.01967990354553     -1.24227490055486
  H   0.84089346416873      0.74441609608022     -1.83897770199624
  H   2.21853572835421      0.03098481496510     -1.12668280390049
  C   1.10665243074713     -1.01211996755755      0.96432295157728
  H   1.37080877223252     -1.99034103138858      0.55378388781590
  H   0.43753580844866     -1.15483626736560      1.81187681064922
  H   2.02727298568897     -0.54402582095024      1.32785345717293
  N   -1.27703258447239      1.13264517861937     -1.10380616941695
  H   -1.99867885338800      0.63785681776688     -1.61636242875289
  H   -1.68404904046960      1.99306512297848     -0.75689874832173
  C   -1.61674556163773      0.07416992861588      1.11299995457995
  N   -2.33987049502760     -0.10141851336398      2.02710025622737
