14
Coordinates from ORCA-job run
  C   0.38422231049221     -0.13898652513217     -0.09760770098934
  C   -0.87696046905755      0.33677756836603      0.09489400121949
  N   1.14629608810837      0.30466890060397     -1.17470399658756
  H   2.13173425253443      0.10959318537913     -1.08799692506215
  H   0.97310607934579      1.26481349362656     -1.43603793323209
  C   0.98991231061824     -1.24594985195699      0.70705149842340
  H   1.93520563152175     -0.91770191111377      1.15072326714106
  H   0.32772150846020     -1.57318783778869      1.50670898023473
  H   1.20599684776400     -2.10299209507464      0.06119229882594
  N   -1.52503745099558      1.23056356471912     -0.79676808900256
  H   -1.53330439951618      2.19759453710307     -0.50390325284061
  H   -1.20409509867148      1.13065658539404     -1.74849315364715
  C   -1.65920038499879     -0.12349318591826      1.19921932114697
  N   -2.29559722560543     -0.47135642820740      2.12672168436986
