14
Coordinates from ORCA-job run
  C   0.49621610900826     -0.14639555729411      0.00085613332399
  C   -0.74751505495121      0.40903415672092     -0.04470692921506
  N   1.60167389656449      0.62520329904970     -0.26003576439482
  H   1.37265934303671      1.49662155545132     -0.71982006996973
  H   2.40446846748687      0.13938800962272     -0.62653368510771
  C   0.75647683302935     -1.55784997991785      0.42308815263811
  H   1.40121694151812     -1.57007493279136      1.30596262273950
  H   -0.16743954832495     -2.08602826314653      0.65514989497413
  H   1.27317070481038     -2.10199118610546     -0.37407105582741
  N   -0.86948894020326      1.77874987556055     -0.46028079074349
  H   -1.59476077993923      1.87496765840319     -1.16074842036385
  H   -1.11989431931288      2.37301696871329      0.32233641943053
  C   -1.90909332294470     -0.33105237699775      0.32659615060499
  N   -2.89969032977796     -0.90258922726864      0.61220734191082
