14
Coordinates from ORCA-job run
  C   0.49140891869273     -0.15979889414543     -0.02086687421484
  C   -0.74433046385267      0.41363837927616     -0.05897496953134
  N   1.57890448384849      0.52244983379427     -0.50887813351325
  H   2.46855984274965      0.28603729444172     -0.09959331064574
  H   1.40180187661192      1.51198701172949     -0.62264514076376
  C   0.74031764316002     -1.56041130828544      0.44196919512835
  H   -0.17925369836291     -2.04787435847354      0.76266653884180
  H   1.44153850976615     -1.56148514869951      1.28291320781871
  H   1.18783403747025     -2.14697554270067     -0.36470147428653
  N   -0.85633625756155      1.76645308742021     -0.52815573829606
  H   -1.41201017955393      2.32038677414750      0.11225951308791
  H   -1.30943290507249      1.79846074030987     -1.43484898155026
  C   -1.90964758131112     -0.30056313735992      0.34927426546613
  N   -2.89935422658455     -0.84230473145470      0.69058190245887
