16

C	-0.608018	0.002385	-1.400401
C	0.0	0.0	0.0
Br	0.221119	1.342044	-2.546097
H	1.094903	0.0	0.0
N	-0.393656	-1.33558	-2.102156
O	-1.230778	-1.657789	-2.942013
O	0.616301	-1.955278	-1.810256
C	-2.043054	0.254276	-1.349978
N	-3.185255	0.506868	-1.230433
N	-0.491345	-1.228959	0.644812
H	-0.813483	-0.992699	1.575435
H	0.315743	-1.840798	0.752509
N	-0.385974	1.234637	0.636468
H	0.352759	1.505888	1.274761
H	-1.273196	1.164793	1.12039
H	2.756881	0.0	0.0
