16

C	-0.503659	-0.009837	-1.429716
C	0.0	0.0	0.0
Br	0.068624	-1.599481	-2.391432
H	1.095943	0.0	0.0
N	-2.049493	0.006822	-1.511695
O	-2.55479	0.142555	-2.616623
O	-2.66506	-0.112423	-0.457414
C	-0.064078	1.1617	-2.180465
N	0.263423	2.097298	-2.810771
N	-0.358749	-1.213865	0.698537
H	0.431475	-1.466529	1.283937
H	-1.18902	-1.093277	1.262235
N	-0.374085	1.285899	0.567534
H	-1.194088	1.20883	1.154797
H	0.413993	1.620878	1.11446
H	2.702051	0.0	0.0
