16

C	-0.475033	0.004713	-1.411145
C	0.0	0.0	0.0
Br	-2.488016	0.128559	-1.571449
H	1.103196	0.0	0.0
N	0.063217	1.202508	-2.20186
O	-0.151348	1.184225	-3.410591
O	0.688211	2.051854	-1.586139
C	-0.091099	-1.191136	-2.150113
N	0.197826	-2.183863	-2.711432
N	-0.397193	-1.234002	0.691663
H	-0.656118	-1.967667	0.04112
H	0.451181	-1.556942	1.160274
N	-0.467567	1.169099	0.715759
H	0.348244	1.630214	1.107492
H	-1.054475	0.831237	1.469379
H	2.617464	0.0	0.0
