16

C	-0.633262	0.067137	-1.379119
C	0.0	0.0	0.0
Br	0.127722	1.51086	-2.474717
H	1.096349	0.0	0.0
N	-0.358533	-1.226745	-2.145375
O	0.740872	-1.727464	-1.993296
O	-1.253656	-1.626009	-2.885524
C	-2.076689	0.2623	-1.317545
N	-3.233724	0.448417	-1.222233
N	-0.473783	-1.233578	0.596333
H	0.321393	-1.701061	1.01962
H	-1.16578	-1.016557	1.302835
N	-0.458587	1.160856	0.784419
H	0.193786	1.19334	1.567545
H	-0.244948	2.001345	0.253501
H	2.765241	0.0	0.0
