16

C	-0.504425	0.070458	-1.432525
C	0.0	0.0	0.0
Br	0.302176	-1.32231	-2.546332
H	1.104685	0.0	0.0
N	-2.027754	-0.125849	-1.446143
O	-2.461145	-1.271644	-1.414385
O	-2.69896	0.901918	-1.367561
C	-0.214478	1.359201	-2.044665
N	0.035209	2.361143	-2.606025
N	-0.487317	-1.204664	0.681459
H	-0.594529	-1.967032	0.018715
H	0.282313	-1.479706	1.294968
N	-0.404812	1.207572	0.683563
H	-1.177205	0.994761	1.303998
H	0.390683	1.531498	1.227312
H	2.675537	0.0	0.0
