10
Coordinates from ORCA-job run
  C   0.96434365656418      0.21815155366673      0.24547670096412
  C   -0.16795478651839     -0.31987887036270     -0.24100167815114
  H   0.94024552349224      1.10815086604029      0.86882818728508
  H   -0.09556374695477     -1.21179808937044     -0.86121746869472
  C   2.25203285459768     -0.34256267518146     -0.02574183039336
  N   3.31550911406387     -0.79507492528877     -0.24209960401988
  C   -1.53122042972679      0.23388579772932      0.01792725076281
  H   -2.02514933580799      0.49682601995461     -0.92187915632315
  H   -1.48928506156538      1.12406874648323      0.64786469833940
  H   -2.16195778814465     -0.51076842367081      0.51184290023084
