10
Coordinates from ORCA-job run
  C   1.08459068737783     -0.31656990786267     -0.51432773525709
  C   -0.25179925295108     -0.42792489839668     -0.63223002413661
  H   1.74882395824546     -0.78180539944128     -1.23547429403233
  H   -0.62864641078411     -1.00085613323736     -1.47725468042229
  C   1.70268885223577      0.41058124318767      0.55237579132142
  N   2.21272225540033      1.00728498251398      1.42810266712774
  C   -1.26162841711908      0.16595277847579      0.29467747374560
  H   -1.92587819418420      0.84346708628794     -0.24942128064261
  H   -0.79078834825258      0.71965271200946      1.10796084706484
  H   -1.89008512996833     -0.61878246353685      0.72559123523133
