10
Coordinates from ORCA-job run
  C   0.99176486478723      0.22855553549817      0.03781331393579
  C   -0.20414851987566     -0.37075093837670     -0.09932944236035
  H   1.06541691907695      1.27221427890834      0.33210253586034
  H   -0.23074643574155     -1.41788861681929     -0.39623494617856
  C   2.22202616232309     -0.46349651731009     -0.19312964175016
  N   3.23892897986217     -1.02323971287530     -0.38063820465130
  C   -1.51061091062902      0.31643578316155      0.13178774916793
  H   -2.12506525674277      0.29035629112554     -0.77271009732060
  H   -2.07865104389834     -0.18969352106966      0.91761181794871
  H   -1.36891475916209      1.35850741775744      0.42372691534820
