10
Coordinates from ORCA-job run
  C   1.09068779931108     -0.14576345764730     -0.57423119233617
  C   -0.24070813368333     -0.29177686245582     -0.70917108670518
  H   1.76624655122387     -0.41186429663502     -1.38077373243358
  H   -0.60202061956022     -0.68533533059709     -1.65731720210138
  C   1.68942793681984      0.36051061937548      0.62320430103733
  N   2.18375502885861      0.77563698988869      1.60626672882941
  C   -1.26428367180989      0.03847544818745      0.32750026842821
  H   -1.85013313730941     -0.85005787118368      0.57997616761639
  H   -1.96622649201848      0.78487021216276     -0.05537561942640
  H   -0.80874526183207      0.42530454890453      1.23992136709139
