10
Coordinates from ORCA-job run
  C   1.09526621395079     -0.12297223752063     -0.57155817014262
  C   -0.22646753471646      0.03707582081943     -0.77084017860217
  H   1.78132322800446     -0.19535542659969     -1.40915707862802
  H   -0.56882603449560      0.09122915884592     -1.80243441501180
  C   1.66859182862434     -0.20918170892237      0.73711602959652
  N   2.14247210352376     -0.28084686994491      1.81104268073080
  C   -1.26263158196043      0.14763215919700      0.29959156112729
  H   -1.79732547328799      1.09805683455482      0.21611696661084
  H   -2.00624342526926     -0.64731883088528      0.19252334204930
  H   -0.82515932437360      0.08168110045571      1.29659926226984
