10
Coordinates from ORCA-job run
  C   1.02358338309767     -0.66348571159560     -0.23043782696068
  C   -0.31737226455859     -0.65161924087363     -0.34858441907827
  H   1.60832669266607     -1.50377304857477     -0.59030401261715
  H   -0.78101365339680     -1.51795773826715     -0.81637492934924
  C   1.75049847618204      0.41612289259593      0.36525164888787
  N   2.35080765738502      1.30164681732798      0.85363110592194
  C   -1.22320079030772      0.44556296329360      0.10672221443575
  H   -1.79871733085421      0.83803159945461     -0.73654724929515
  H   -1.94425397068493      0.06677105038195      0.83663481349793
  H   -0.66865819952854      1.26770041625708      0.56100865455698
