10
Coordinates from ORCA-job run
  C   0.99250025877826      0.23158380568376      0.02093737076738
  C   -0.20420503104163     -0.38161902536420      0.01875570285835
  H   1.06877272680953      1.31325030135773     -0.05216879761408
  H   -0.23263363089739     -1.46743658090931      0.09382003997570
  C   2.21983960288192     -0.49660991459231      0.11881605000600
  N   3.23251971784962     -1.08850237315436      0.19940078915357
  C   -1.50929132778930      0.33880726713451     -0.08077732699281
  H   -2.06564691855875      0.00791257128876     -0.96251681923678
  H   -2.13487369094593      0.12360655569022      0.79017753468475
  H   -1.36698170708634      1.41900739286521     -0.14644454360208
