10
Coordinates from ORCA-job run
  C   1.04718002898749     -0.28520218502800     -0.60244193998803
  C   -0.25502153800347      0.01634857674386     -0.76248382380765
  H   1.68245880938656     -0.48692969625857     -1.45883260657372
  H   -0.63462959211812      0.04743371782576     -1.78194204858458
  C   1.66513226100667     -0.35733990118384      0.68652782393667
  N   2.17498497530837     -0.41709856762671      1.74462997129692
  C   -1.22311409113016      0.31174749808573      0.33618195201281
  H   -0.75222339453175      0.25658237580141      1.31849679122054
  H   -2.05676968580436     -0.39579925994100      0.30932646801902
  H   -1.64899777310125      1.31125744158136      0.20953741246805
