10
Coordinates from ORCA-job run
  C   1.09200228096927     -0.14355530764188     -0.57406589294918
  C   -0.23955671503047     -0.28496065776708     -0.71290215852009
  H   1.76842423416117     -0.40561434069502     -1.38108346101416
  H   -0.60065288881505     -0.67024125264524     -1.66461343693464
  C   1.68861909383193      0.35183096386120      0.62891040758127
  N   2.17842908253293      0.75760575699384      1.61824845718455
  C   -1.26366535285803      0.03921275830375      0.32535105069224
  H   -1.85131052434117     -0.85053522142551      0.56968300838969
  H   -0.80810426582571      0.41620140359319      1.24173803176940
  H   -1.96418494462486      0.79005589742275     -0.05126600619909
