10
Coordinates from ORCA-job run
  C   1.08515001111022     -0.24297305432897     -0.55335632108990
  C   -0.23106765372297     -0.05911210616235     -0.76805841324805
  H   1.76127093761927     -0.45135344206075     -1.37615269769633
  H   -0.58024502411781     -0.12974588207070     -1.79648372629487
  C   1.66527253106366     -0.17411955650417      0.75326432962217
  N   2.14149204113710     -0.11599056596666      1.82713015714235
  C   -1.25294338213715      0.23474907409034      0.28137473420998
  H   -2.02837435085513     -0.53661023897314      0.28516654173699
  H   -0.80981995170296      0.28829521457531      1.27640797728388
  H   -1.75073515839423      1.18586055740109      0.07070741833377
