10
Coordinates from ORCA-job run
  C   1.00064211824760      0.19056714762188     -0.00822138300668
  C   -0.21957307483080     -0.37119900574974      0.05241260666205
  H   1.11896368884267      1.25874060361727     -0.17026735013003
  H   -0.29063030241581     -1.44517701703504      0.21648299470760
  C   2.20005707470539     -0.57550038623388      0.13544195055014
  N   3.19190211843727     -1.19617729763579      0.25201928170644
  C   -1.49566938138356      0.39256430246297     -0.09206918353755
  H   -2.07917956577574      0.01138664335514     -0.93496475312022
  H   -1.30981024460964      1.45594120990647     -0.25272044415190
  H   -2.11570243121738      0.27985379969072      0.80188628032015
