17

C	-0.427501	-0.012872	-1.447137
C	0.0	0.0	0.0
F	0.019783	-1.126121	-2.092339
H	1.102166	0.0	0.0
N	-1.962201	-0.075742	-1.54352
O	-2.465297	-1.195339	-1.5727
O	-2.573622	0.988257	-1.479036
C	-0.001786	1.181409	-2.186928
N	0.336746	2.095611	-2.840147
C	-0.491917	-1.219593	0.757185
H	0.066371	-1.268075	1.695399
H	-1.566034	-1.178425	0.984878
H	-0.294826	-2.13852	0.202584
N	-0.38192	1.281824	0.575651
H	-1.186625	1.212607	1.183071
H	0.411821	1.6324	1.098424
F	2.576211	0.0	0.0
