17

C	-0.489093	0.016136	-1.437148
C	0.0	0.0	0.0
F	0.036526	1.065622	-2.115127
H	1.095626	0.0	0.0
N	-0.055743	-1.245161	-2.188481
O	-0.725027	-2.253487	-1.972751
O	0.916342	-1.160059	-2.920541
C	-1.959561	0.083116	-1.543043
N	-3.131666	0.158455	-1.571487
C	-0.495328	-1.184807	0.807298
H	-1.589841	-1.210228	0.900045
H	-0.161338	-2.135495	0.392454
H	-0.057328	-1.092377	1.804635
N	-0.437145	1.286555	0.55483
H	0.39784	1.756556	0.883646
H	-1.060933	1.147607	1.340244
F	2.593671	0.0	0.0
