17

C	-0.569298	0.148388	-1.383773
C	0.0	0.0	0.0
F	-1.946517	0.054543	-1.402978
H	1.102617	0.0	0.0
N	-0.234651	1.533395	-1.935317
O	-1.134719	2.359767	-1.964571
O	0.925381	1.689519	-2.286574
C	-0.050862	-0.836186	-2.343699
N	0.282157	-1.661791	-3.109512
C	-0.437699	-1.328359	0.603588
H	0.08859	-1.444789	1.554184
H	-1.519365	-1.375116	0.783614
H	-0.1503	-2.173097	-0.029288
N	-0.393059	1.170762	0.778168
H	-1.18601	0.981474	1.380204
H	0.406959	1.419377	1.347779
F	2.579629	0.0	0.0
