17

C	-0.447879	0.108387	-1.435845
C	0.0	0.0	0.0
F	0.103905	-0.864819	-2.208195
H	1.09608	0.0	0.0
N	-1.967854	-0.118072	-1.519299
O	-2.678959	0.828205	-1.195228
O	-2.357055	-1.24542	-1.798969
C	-0.180674	1.420129	-2.040128
N	0.066831	2.425722	-2.594055
C	-0.458613	-1.304323	0.631198
H	-1.532564	-1.312919	0.866281
H	0.106607	-1.436751	1.556375
H	-0.24125	-2.15515	-0.017536
N	-0.395745	1.206697	0.70904
H	0.381119	1.477313	1.300226
H	-1.223888	1.066851	1.275895
F	2.576284	0.0	0.0
