17

C	0.0	0.0	0.0
C	-0.472268	-0.179316	-1.440552
Cl	1.810839	0.0	0.0
H	-0.026629	-1.101691	-1.827863
H	-1.556276	-0.328118	-1.381328
N	-0.471677	1.268339	0.503785
H	-1.489426	1.243951	0.390099
H	-0.289935	1.311162	1.501952
C	-0.422292	-1.192376	0.850488
H	-0.042307	-1.080163	1.870625
H	-0.037678	-2.129723	0.439627
H	-1.51531	-1.216134	0.86914
C	-0.161455	0.992647	-2.361814
H	-0.520982	0.777643	-3.372631
H	0.912595	1.186837	-2.411565
H	-0.654628	1.897821	-2.008704
Br	-3.923676	0.0	0.0
