17

C	0.0	0.0	0.0
C	-0.466829	-0.058428	-1.447287
Cl	1.870964	0.0	0.0
H	-1.548717	-0.229551	-1.382877
H	0.000971	-0.927638	-1.920722
N	-0.466796	1.17123	0.632627
H	-0.295062	1.166935	1.627694
H	-0.101821	2.015422	0.217276
C	-0.453635	-1.22019	0.771708
H	-0.074683	-1.191421	1.797424
H	-0.09127	-2.132426	0.295141
H	-1.548212	-1.203294	0.779268
C	-0.204389	1.201994	-2.260667
H	-0.81608	2.027931	-1.891204
H	0.850057	1.489999	-2.236923
H	-0.487818	1.039423	-3.303227
Br	-4.16044	0.0	0.0
