14

C	-0.478177	0.071471	-1.433025
C	0.0	0.0	0.0
F	-0.015118	1.199128	-2.019935
H	1.091855	0.0	0.0
H	-0.324668	-0.953644	0.425249
N	0.122675	-1.12044	-2.174222
O	-0.27591	-2.217079	-1.783473
O	0.894186	-0.915404	-3.094751
N	-1.888708	-0.002894	-1.721153
H	-2.325872	0.799038	-1.278986
H	-2.253252	-0.841166	-1.285337
C	-0.58665	1.091307	0.74607
N	-1.0883	1.977042	1.335744
F	2.518352	0.0	0.0
