14

C	-0.433623	-0.02415	-1.438744
C	0.0	0.0	0.0
F	0.150822	1.019775	-2.116749
H	1.093356	0.0	0.0
H	-0.342667	-0.908512	0.495721
N	0.090392	-1.288415	-2.126168
O	0.232827	-2.292837	-1.443669
O	0.237954	-1.215561	-3.343297
N	-1.836784	-0.062065	-1.663917
H	-2.023587	0.129319	-2.642276
H	-2.282178	0.645204	-1.09216
C	-0.56546	1.16629	0.642437
N	-1.044645	2.115298	1.146693
F	2.519589	0.0	0.0
