14

C	-0.422628	0.078717	-1.439542
C	0.0	0.0	0.0
F	0.01461	1.213562	-2.033644
H	1.093479	0.0	0.0
H	-0.31899	-0.959297	0.412651
N	0.309425	-1.079739	-2.174631
O	1.056414	-0.823097	-3.106881
O	-0.00604	-2.204879	-1.786737
N	-1.820129	-0.020053	-1.678044
H	-2.016351	-0.026518	-2.672582
H	-2.180682	-0.861395	-1.250584
C	-0.567829	1.090474	0.762867
N	-1.001376	1.975944	1.403671
F	2.520135	0.0	0.0
