14

C	-0.13545	-0.18016	-1.502598
C	0.0	0.0	0.0
F	-1.334662	-0.739469	-1.928822
H	1.093904	0.0	0.0
H	-0.433919	0.935596	0.341551
N	-0.284964	1.249052	-2.175681
O	-0.928067	2.117262	-1.59276
O	0.198324	1.370086	-3.300141
N	0.956418	-0.873221	-1.985618
H	1.075479	-0.763794	-2.982142
H	1.80268	-0.635575	-1.422149
C	-0.539932	-1.128467	0.728173
N	-0.970778	-2.028636	1.347773
F	2.637005	0.0	0.0
