14

C	-0.11017	0.032267	-1.525698
C	0.0	0.0	0.0
F	-0.141402	-1.242056	-2.000469
H	1.093984	0.0	0.0
H	-0.320367	0.964355	0.401368
N	-1.428482	0.677443	-1.973813
O	-1.522154	1.889865	-1.7817
O	-2.30367	-0.036977	-2.445514
N	0.958918	0.742021	-2.133172
H	1.794448	0.528152	-1.548225
H	0.771742	1.73356	-2.052115
C	-0.666624	-1.099013	0.656294
N	-1.210922	-1.977754	1.215671
F	2.612318	0.0	0.0
