13
Coordinates from ORCA-job run
  C   0.97173430625806      0.11822421446077     -0.03917024666624
  C   -0.46684453417181      0.01356798116475     -0.60038269483973
  F   1.69067622917202      0.99807217163514     -0.81342435346971
  H   -0.36792765290172     -0.41142952345287     -1.60437533924812
  C   0.92553131949287      0.60957715002768      1.34737163131358
  N   0.83660689146982      1.00621263859716      2.44960611611247
  C   1.60965240508073     -1.20549726635146     -0.08835871917398
  N   2.13706394114683     -2.25164771001782     -0.16789808184497
  C   -1.03607281661990      1.36738095487180     -0.72186212236290
  N   -1.54097117753782      2.42658696559008     -0.77975794249129
  N   -1.20717299885418     -0.90099254293659      0.23818285040964
  H   -1.96251976362130     -1.33878084425683     -0.27157821291765
  H   -1.58975614891360     -0.43227418933182      1.05064711517890
