13
Coordinates from ORCA-job run
  C   0.74658111009344     -0.12590724159196      0.45170638067959
  C   -0.48695645189569      0.17558070693179     -0.42744322993189
  F   0.29371914746773     -0.64835558293471      1.64519688805221
  H   -0.11932604533395      0.55674200465973     -1.38608695944252
  C   1.59992167898130     -1.11874341196375     -0.21838030418013
  N   2.31163265569016     -1.88160370484202     -0.75706654425981
  C   1.51526601389371      1.09885333960152      0.72169216569414
  N   2.11623896995809      2.09015247035699      0.91204238110659
  C   -1.28826979969079      1.23248945233276      0.22130558932770
  N   -1.98139668959081      2.03252733563681      0.73076836524200
  N   -1.18216287886738     -1.07144999278781     -0.65156952400231
  H   -1.83505409283749     -0.98698491313549     -1.41955501729304
  H   -1.68919361786832     -1.35230046226387      0.17838980900748
