13
Coordinates from ORCA-job run
  C   0.69345284896493     -0.10216420332249      0.53436596424593
  C   -0.43429640151901      0.13489408782078     -0.49394157114724
  F   0.10228710971373     -0.37041978478678      1.75134319653369
  H   0.04108576337584      0.31207492318105     -1.46453140802659
  C   1.50138763665075     -1.26017623510030      0.12278801948495
  N   2.17921582964634     -2.15809137439926     -0.21343802415488
  C   1.54900035217389      1.08738361033918      0.66497765556387
  N   2.22433821821693      2.04551419938758      0.74221418445283
  C   -1.18203705361903      1.34861939569174     -0.11004053220228
  N   -1.83381179370480      2.27850843813667      0.19146698694476
  N   -1.22227819465599     -1.07408485214235     -0.56880425175904
  H   -1.80013505591256     -1.07710697744360     -1.39892320693892
  H   -1.81820925933101     -1.16395122736223      0.24452298700293
