13
Coordinates from ORCA-job run
  C   0.72833294569583     -0.08662964068619      0.49094339987276
  C   -0.46660814809483      0.12697741699815     -0.46413723342660
  F   0.22112458601029     -0.38886274656224      1.73730769693554
  H   -0.05638062920194      0.33048005018082     -1.45898985128709
  C   1.54485559299288     -1.21290650072182      0.01353361445101
  N   2.22646768446873     -2.08481877919874     -0.37847133475851
  C   1.55223353875955      1.12825019060361      0.58667295062882
  N   2.19867996358139      2.10794031257646      0.63483431701908
  C   -1.22825571797732      1.31127530790842     -0.02046583804202
  N   -1.89237973111678      2.21588851495850      0.32745273637525
  N   -1.21949887200217     -1.10585648982044     -0.50811181897139
  H   -1.84796811561782     -1.11578363359032     -1.30067200291653
  H   -1.76060309749780     -1.22495400264621      0.33910336411968
