13
Coordinates from ORCA-job run
  C   0.76409382029405     -0.42819653676548      0.29197623162464
  C   -0.55921767275388     -0.14868971704087     -0.45721787247135
  F   0.68972993482936     -1.73592738402178      0.73464547809759
  H   -0.56794708192162     -0.84572172183276     -1.30995499974388
  C   1.91528702103344     -0.30183640316822     -0.61428715009949
  N   2.81126808817329     -0.21306442352581     -1.36893337383975
  C   0.91211161404686      0.46464042065831      1.44882097487118
  N   1.06190238972968      1.18708093663120      2.36241974137095
  C   -0.53834758319117      1.21915630122266     -0.97825510510247
  N   -0.54112268500703      2.31398293727701     -1.40220022626246
  N   -1.64177354860060     -0.32170509416698      0.49033004679172
  H   -2.49087588558229      0.11593245957509      0.15756585240679
  H   -1.81510841105009     -1.30665177484236      0.64409040235654
