13
Coordinates from ORCA-job run
  C   0.96637311739784      0.13355607560937     -0.10102023240628
  C   -0.49106373131961     -0.09276733200817     -0.57033597622725
  F   1.62284236235864      0.89996035193938     -1.03491707108382
  H   -0.42250410669195     -0.67072566995237     -1.49756132168211
  C   0.96203614920870      0.83367914660662      1.19354427289959
  N   0.89322063259353      1.39476160510050      2.22333554808083
  C   1.64391040639918     -1.16531478025183      0.02230270804707
  N   2.20359653083540     -2.19654883473431      0.07229271427487
  C   -1.10620827975027      1.21029262891027     -0.87917739179605
  N   -1.64663952862046      2.23336435524047     -1.08330783320267
  N   -1.16688214767980     -0.87819882923684      0.43671470018245
  H   -1.52944416508307     -0.29332648183158      1.18028561371619
  H   -1.92923723964814     -1.40973223539152      0.03884426919718
