13
Coordinates from ORCA-job run
  C   0.79126606841724     -0.39090062040269      0.27107018703358
  C   -0.56750958587193     -0.17907459445661     -0.43581199261470
  F   0.78768425621560     -1.69360020952711      0.73436789868213
  H   -0.57522885661363     -0.88873841749944     -1.27806143634712
  C   1.90529528993057     -0.23028305201851     -0.67527544373216
  N   2.77347987335011     -0.11567708334762     -1.45839412474675
  C   0.93962617776716      0.52544502429233      1.40930677284227
  N   1.08576907122109      1.26885359014967      2.30652367470803
  C   -0.62313209372103      1.18043016718032     -0.97566154519209
  N   -0.68710839270619      2.26750831398086     -1.41445133662771
  N   -1.60867229823051     -0.38339011559853      0.55115916552540
  H   -1.73365135382136     -1.37240475551761      0.72475370737680
  H   -2.48681815593712      0.01183175276494      0.24147447309231
