13
Coordinates from ORCA-job run
  C   0.97721661994410      0.03007523258740      0.06127589333899
  C   -0.40093934322720      0.06691955159231     -0.64258077890751
  F   1.84449791172813      0.85878724099125     -0.61096669774759
  H   -0.23861530944673     -0.34478153752146     -1.64384122489052
  C   0.83301743891458      0.49500218006055      1.45011732499789
  N   0.66343554012953      0.88071284286826      2.54679946575204
  C   1.49987201851767     -1.34362413814711      0.03363539546109
  N   1.93996707645532     -2.43043074819340     -0.02979698987910
  C   -0.83314112420562      1.46911923583920     -0.77952390621247
  N   -1.23150598850639      2.57201693304765     -0.85172973049052
  N   -1.29967445909339     -0.79380635099985      0.09166389232453
  H   -1.71762348329714     -0.30958605884953      0.87710160621082
  H   -2.03650689791286     -1.14940438327528     -0.50215424995765
