13
Coordinates from ORCA-job run
  C   0.96989696388197      0.10783398349262     -0.08231207946685
  C   -0.48102836311227     -0.09842993911893     -0.58024863011200
  F   1.66731994794694      0.82874531400871     -1.02270550496115
  H   -0.40442399309168     -0.70661704783364     -1.48726241330259
  C   0.95382416794182      0.84703447362450      1.19023383620657
  N   0.88556271896946      1.43729101417253      2.20361053158150
  C   1.61186252152853     -1.20241122976547      0.09818304146014
  N   2.14443148574199     -2.24451999135490      0.19595168298506
  C   -1.05601706587679      1.20873268114543     -0.94382418069689
  N   -1.56371411060181      2.23908081424009     -1.19053418206201
  N   -1.19920926236064     -0.83591857526923      0.43354975471945
  H   -1.96600333433781     -1.35973420136621      0.03443213508561
  H   -1.56250167662972     -0.22108729597549      1.15192600856316
