13
Coordinates from ORCA-job run
  C   0.82264658558522     -0.44928800950385      0.28096865054060
  C   -0.53149526027428     -0.27484138186313     -0.45636653764582
  F   0.92624159001366     -1.76137933364973      0.66504150953449
  H   -0.52743335169593     -1.03808624989550     -1.24166062241319
  C   1.94715517728062     -0.12599769424384     -0.61203107737045
  N   2.83081932695180      0.10916284976925     -1.34972206445192
  C   0.84725259883424      0.41226846667451      1.47344295148629
  N   0.81652858869546      1.11488490775623      2.41420766596152
  C   -0.57738089062450      1.05832625002085     -1.08377832855320
  N   -0.66831483991041      2.13636063539739     -1.54285312888276
  N   -1.60351058406833     -0.55300728944942      0.47005618611752
  H   -1.86136482728066      0.27123250206530      0.99916416524601
  H   -2.42014411350690     -0.89963565307805     -0.01446936956908
