13
Coordinates from ORCA-job run
  C   0.66173857296935      0.00621184075647      0.49003114971949
  C   -0.53303916584543      0.14879056550584     -0.50757153837083
  F   0.13821289145669     -0.12394657756000      1.75768075630769
  H   -0.10637150370792      0.26053471149525     -1.51089477002652
  C   1.40630718916091     -1.21649109195224      0.15234875618324
  N   1.95326105059022     -2.20546628935699     -0.16836138271816
  C   1.54791558712125      1.17545008857099      0.43761890269386
  N   2.23997386328782      2.12126118403041      0.35266838717800
  C   -1.24916877473957      1.38583423704829     -0.16597124978388
  N   -1.81713560332076      2.36989707124685      0.12826366758577
  N   -1.43984962696220     -0.96742221110758     -0.50373595046905
  H   -1.79254028941870     -1.15534808764136      0.42589516297203
  H   -1.01230419059166     -1.80030544103595     -0.88797189127165
