13
Coordinates from ORCA-job run
  C   0.74882801348608     -0.40866645674243      0.23335234490856
  C   -0.59690728409682     -0.20064211684278     -0.53203513547441
  F   0.73797153123668     -1.71381230718163      0.68767987634646
  H   -0.57300549881557     -0.92618664770319     -1.35389941443298
  C   1.90360669494846     -0.21927942670315     -0.65187198016419
  N   2.79984609330132     -0.08115699122739     -1.39928791320843
  C   0.81037953261186      0.49496391334711      1.38960253479137
  N   0.79193266032272      1.22240709118803      2.31199568811803
  C   -0.61069749082206      1.15357178591634     -1.09273445237893
  N   -0.60926863672796      2.25023530421545     -1.51195617980265
  N   -1.77113452907337     -0.43720495773915      0.26286017532832
  H   -1.86717932578732      0.23984382587832      1.01031009382787
  H   -1.76537176058402     -1.37407301640554      0.64498436214098
