13
Coordinates from ORCA-job run
  C   0.71214593377846     -0.09135133370678      0.51031719433301
  C   -0.45194918898966      0.13398822373207     -0.47915291064672
  F   0.16450775464686     -0.39668877796517      1.73907954826516
  H   -0.01181918331309      0.34528519495992     -1.45951302886585
  C   1.53665199747856     -1.22100088202596      0.05529983435497
  N   2.22504689192014     -2.09887025180809     -0.31027465952505
  C   1.54052144324995      1.11743791519413      0.63899368436016
  N   2.19639254658130      2.08885392864289      0.71841950427826
  C   -1.22300301022381      1.31658533593542     -0.04664183572160
  N   -1.89537748354049      2.21838372408947      0.29239195481963
  N   -1.20754273289957     -1.09545064049481     -0.55657627600150
  H   -1.77817856218877     -1.21785038443536      0.27053747732721
  H   -1.80739640649987     -1.09932205211773     -1.37088048697768
