13
Coordinates from ORCA-job run
  C   0.96407831103423      0.14684592960604     -0.08990741889975
  C   -0.48676460492886     -0.08106311197634     -0.57781420867710
  F   1.62016470648287      0.94371167743917     -0.99829481841838
  H   -0.40356087203216     -0.62920299284123     -1.52182569276718
  C   0.94556195935745      0.81235569434653      1.22245336260621
  N   0.87899223629213      1.34603536470189      2.26692014614476
  C   1.65290805955781     -1.14843537470772      0.00533998136590
  N   2.21934478680320     -2.17673708412833      0.03436659416181
  C   -1.11448916989823      1.22395201313037     -0.85090060481124
  N   -1.66400873439180      2.24765591967897     -1.02497993383051
  N   -1.16153243176435     -0.90547749172258      0.39832284578589
  H   -1.91733265351023     -1.42903789221250     -0.02192324454531
  H   -1.53336159300205     -0.34960265131428      1.15924299188490
