13
Coordinates from ORCA-job run
  C   0.81464668389119     -0.45675407234708      0.29115097793585
  C   -0.53701690941890     -0.27619574215212     -0.44955815765718
  F   0.89529296869232     -1.76053338456034      0.70764339953003
  H   -0.54744693149286     -1.05740156878429     -1.21689240365407
  C   1.94404909488461     -0.17629407560019     -0.61022141551226
  N   2.83022269176574      0.02123160439359     -1.35583026699224
  C   0.85547700953382      0.43400652898608      1.46160219462030
  N   0.83903413321199      1.16155383518551      2.38355783808219
  C   -0.55899245037644      1.04264989680017     -1.10774176970100
  N   -0.63011183639979      2.11237609168950     -1.58921229724903
  N   -1.61255219394534     -0.51271901290679      0.48402485107051
  H   -2.43447392455532     -0.86117384018695      0.01006883742144
  H   -1.85812833579102      0.32925373948293      0.99040821210547
