13
Coordinates from ORCA-job run
  C   0.72061416485421     -0.07237739057242      0.50393061004477
  C   -0.45867021570675      0.10929723965365     -0.47676856321346
  F   0.19239721408239     -0.29901670876894      1.75780766147590
  H   -0.03337656127931      0.25282337052362     -1.47580432685381
  C   1.52386128605772     -1.23588063604343      0.09917662267246
  N   2.19540384346592     -2.13839409915810     -0.23689412956066
  C   1.56353891627426      1.13237612571180      0.54602029931772
  N   2.22458060236564      2.10349669385937      0.55199717857124
  C   -1.20466285714791      1.32847099762105     -0.10623724097136
  N   -1.85664000674145      2.26152137339889      0.18484078628548
  N   -1.23229677031579     -1.11119377760615     -0.46485909034747
  H   -1.78543173175497     -1.17598724073098      0.38054197053475
  H   -1.85131788415395     -1.15313594788835     -1.26375177795554
