13
Coordinates from ORCA-job run
  C   0.97729301183523      0.05814326390497      0.03757862553803
  C   -0.41766597911646      0.05049745764170     -0.63286379965743
  F   1.80543894636594      0.90348928275828     -0.66254330194283
  H   -0.26833966399966     -0.36695761442633     -1.63375622674912
  C   0.85426990741401      0.53105553226472      1.42587001662619
  N   0.70172740649721      0.91746654436537      2.52474432787196
  C   1.53603649458770     -1.30146604253023      0.00977051141343
  N   2.00435920204153     -2.37642778073782     -0.05450373606577
  C   -0.89263909327227      1.43831066020663     -0.77350810234124
  N   -1.32504531973418      2.52798151938199     -0.85055129689450
  N   -1.27426987964023     -0.82733698136932      0.13100141129942
  H   -2.01510438645542     -1.20822351570957     -0.44151537540652
  H   -1.68706064652339     -0.34653232575037      0.92127694630838
