13
Coordinates from ORCA-job run
  C   0.91222653921251      0.12852914763266     -0.13815507389929
  C   -0.56542274641801     -0.04817741591871     -0.61681966382136
  F   1.62207623040043      0.79727389997049     -1.10488047291434
  H   -0.50102588000122     -0.59583963497967     -1.56411041891707
  C   0.94001662196189      0.88609988571639      1.12139460997230
  N   0.90102116296139      1.48190781793112      2.13337483660596
  C   1.49580894282101     -1.20690518600609      0.06442990150671
  N   1.90334188707082     -2.30017581250123      0.20230227474072
  C   -1.10865940114621      1.28718485354638     -0.89224724883852
  N   -1.53003093826274      2.36569397059267     -1.08414463419346
  N   -1.42016493742397     -0.76528116874283      0.28783063288731
  H   -1.13094085014895     -1.72658883742379      0.41039534962681
  H   -1.51724663102693     -0.30272151981739      1.18262990724424
