13
Coordinates from ORCA-job run
  C   0.73556542032959      0.26094195747701      0.40987941898922
  C   -0.47154203944601     -0.27843385728994     -0.38822171393311
  F   0.31789022279050      1.38287241900584      1.09516495148115
  H   -0.14380413855642     -1.18955877896162     -0.89994553918045
  C   1.18445616268631     -0.75543920802968      1.37339386899947
  N   1.57812710532041     -1.57083757814015      2.12086630789670
  C   1.84177437642443      0.62824745584950     -0.48749105545549
  N   2.71324199640921      0.90430183803733     -1.22525958385697
  C   -0.85514347158398      0.71899620100850     -1.40700556186555
  N   -1.22634332117631      1.50713255818716     -2.19537172723357
  N   -1.50849061059817     -0.61765445537924      0.55963574905065
  H   -1.95700105383036      0.21835889124155      0.91293448586824
  H   -2.20973064876920     -1.20692744300626      0.13042039923970
