13
Coordinates from ORCA-job run
  C   0.77241661106688     -0.40303876842309      0.30575405890837
  C   -0.56135888869436     -0.17931085636176     -0.44362807313769
  F   0.72008250300464     -1.68848334421408      0.81293054039390
  H   -0.56870022247732     -0.92039048146049     -1.25822587282342
  C   1.91407521578235     -0.30595856442869     -0.61613211453245
  N   2.80370879667811     -0.24236693694922     -1.38074257377978
  C   0.91790682433222      0.54772928155081      1.41596432996097
  N   1.06337638791111      1.31635460372723      2.29181899749202
  C   -0.56308609327730      1.15935628385108     -1.03549801636057
  N   -0.58187146541143      2.23081382034542     -1.51509900769971
  N   -1.63285811303827     -0.31694429044497      0.52238783694132
  H   -2.48930733133237      0.09652351180906      0.17774238862753
  H   -1.79538422454427     -1.29528425900131      0.72372750600950
