13
Coordinates from ORCA-job run
  C   0.73458571352249     -0.43259696239941      0.23389248425024
  C   -0.58761827446111     -0.16664133965267     -0.55412701014107
  F   0.68741246424132     -1.75482455010229      0.63335601726992
  H   -0.55687735396999     -0.85827713064545     -1.40462474250619
  C   1.91409602413438     -0.23054487259371     -0.61495445314174
  N   2.83109110035308     -0.07933284777924     -1.33411291639641
  C   0.78554137259547      0.42088499341775      1.42801609135423
  N   0.76107850638186      1.10896881820714      2.38001037954751
  C   -0.56204285748626      1.20928755953228     -1.05877109451341
  N   -0.52864596628497      2.32166119943208     -1.43298901119492
  N   -1.78536314232561     -0.41226394414040      0.20218586547588
  H   -1.80569648509404     -1.36335534745972      0.54720702292205
  H   -1.88856110160663      0.23703442418365      0.97291136707391
