13
Coordinates from ORCA-job run
  C   0.70914384703426     -0.11550814509952      0.51221622531552
  C   -0.44742067372140      0.14783832880134     -0.47708025787540
  F   0.15344640477535     -0.40547650158079      1.74052924281455
  H   -0.00000271385805      0.34659331541656     -1.45678018834146
  C   1.49819600477200     -1.26857821525745      0.05316802234089
  N   2.15660365307729     -2.16631506582446     -0.32012686852895
  C   1.57445536565919      1.06749719623656      0.63940786063865
  N   2.25554340851290      2.02180852643969      0.71060074596730
  C   -1.18015277878796      1.35406287389895     -0.04270291342316
  N   -1.82060878773109      2.27779907368586      0.29874603695820
  N   -1.24130980498576     -1.05697974013885     -0.55711863756068
  H   -1.81513771157730     -1.16341008537646      0.27003904912432
  H   -1.84175621316943     -1.03933156120142     -1.37089831742977
