13
Coordinates from ORCA-job run
  C   0.71445316176640     -0.07269498317047      0.51187820134059
  C   -0.45182751401311      0.11166097676131     -0.48363523278705
  F   0.16955779556478     -0.28855985718189      1.76078520680978
  H   -0.01379151472378      0.24963212840687     -1.47793675498944
  C   1.51327580127837     -1.24500685816574      0.12428909028835
  N   2.18037447230909     -2.15720906390612     -0.19448744472002
  C   1.56640804483733      1.12538877797277      0.55843905294122
  N   2.23779929578929      2.08946695288008      0.56934767784992
  C   -1.19646940585541      1.33528441955197     -0.12568228573584
  N   -1.85039937890621      2.26934585315003      0.15755296084292
  N   -1.23184831477133     -1.10480644396344     -0.47666543713810
  H   -1.83803759311763     -1.14931275033182     -1.28517412876472
  H   -1.79849485015778     -1.16218915200355      0.36028909406239
