13
Coordinates from ORCA-job run
  C   0.80995430492876     -0.45061667710168      0.31425036054007
  C   -0.53821395299617     -0.29251367454064     -0.43775426056706
  F   0.87854173506469     -1.73524413065563      0.78902099493773
  H   -0.55434863209341     -1.10985274591547     -1.16632533825208
  C   1.94384771298877     -0.21994730178826     -0.59548519665483
  N   2.83367599171040     -0.06026036840194     -1.34574339639304
  C   0.85517882161961      0.49104085581404      1.44401487899458
  N   0.84136404994318      1.25944055132299      2.33234131496892
  C   -0.54643314863378      0.99293026231986     -1.15915517449019
  N   -0.60771193245283      2.03791472406259     -1.69336933871445
  N   -1.61828132514253     -0.47379017033342      0.50296202911415
  H   -2.44411741214157     -0.83114060196050      0.04241611555320
  H   -1.85345621279513      0.39303927717808      0.97082701096300
