13
Coordinates from ORCA-job run
  C   0.79105520536556     -0.39834366185819      0.26028688389409
  C   -0.56769717929924     -0.16675956245043     -0.44013619065166
  F   0.78742508694372     -1.71340791111167      0.68713037579137
  H   -0.57583794576529     -0.85307662060434     -1.30153150079413
  C   1.90454202831389     -0.21132463877339     -0.68195094170345
  N   2.77057697203617     -0.07442434304597     -1.46386522699577
  C   0.94040415841414      0.48559920325175      1.42380357944358
  N   1.08939434597241      1.20178392536684      2.34246826705637
  C   -0.62288172502692      1.20678122556288     -0.94339735501264
  N   -0.68706637632774      2.30520702505091     -1.35299679602671
  N   -1.60896265740133     -0.39775937419147      0.54063196150868
  H   -2.48661950271017      0.00776445530100      0.24322238321706
  H   -1.73533241051521     -1.39103972249793      0.68633456027321
