13
Coordinates from ORCA-job run
  C   0.62758737061311     -0.04880732129540      0.53090863764600
  C   -0.49098900216825      0.19854944470288     -0.53213014373263
  F   0.01505014628800     -0.23395063419494      1.75097783913525
  H   0.00629031995337      0.34741806371614     -1.49739226146291
  C   1.35024119675958     -1.27737767728612      0.16817977328753
  N   1.88140747720760     -2.26736975679501     -0.17502388407760
  C   1.55521135560021      1.08593468677169      0.61046734218959
  N   2.28458968697948      2.00704186864141      0.63261304423638
  C   -1.18268244604612      1.44283994769114     -0.16783233906856
  N   -1.73419052050821      2.43155818164137      0.14200470491309
  N   -1.43763079539476     -0.87800028556089     -0.65146576254705
  H   -1.01583674236578     -1.70662858739967     -1.05188406119516
  H   -1.85904804691821     -1.10020793063260      0.24157711067607
