13
Coordinates from ORCA-job run
  C   0.71781278353005     -0.03783935068511      0.51139590432076
  C   -0.45619159770770      0.07544922429309     -0.48549282349060
  F   0.18373702500555     -0.16428789035902      1.77680423665300
  H   -0.02567466161072      0.14028164938687     -1.49049169661493
  C   1.51530755080742     -1.23384064671905      0.20061180010530
  N   2.18278840480890     -2.16374401722684     -0.06074993230803
  C   1.56889188298974      1.16101151925139      0.46400158063151
  N   2.23772159739029      2.12438336412582      0.39591699464215
  C   -1.19652062010701      1.32331669349892     -0.21232197023678
  N   -1.84382771449367      2.27956737594636      0.00439367131579
  N   -1.23717937982278     -1.13645354845415     -0.38470511856047
  H   -1.85346826135582     -1.23469715116924     -1.18087113463602
  H   -1.79439700943427     -1.13314722188906      0.46050848817833
