13
Coordinates from ORCA-job run
  C   0.72816880018804     -0.42332454819776      0.26808583890893
  C   -0.58698647634125     -0.19958317210696     -0.54459544202412
  F   0.66366242656587     -1.71336350553313      0.76016273537985
  H   -0.56005964407333     -0.95093574068314     -1.34289403768850
  C   1.91466551519057     -0.29557726782345     -0.58560853091334
  N   2.83863535036017     -0.20802036509949     -1.30642036026828
  C   0.78257254683363      0.51229398489727      1.39893213069184
  N   0.76071909607474      1.26639782517404      2.29957499328822
  C   -0.54246560376988      1.13616538425820     -1.14623611314789
  N   -0.49349623594301      2.21917322076419     -1.59685297386878
  N   -1.79097881486376     -0.37622204425793      0.22059692366913
  H   -1.82290622653270     -1.29775865600116      0.63672230508230
  H   -1.89253073368910      0.33075488460933      0.93853253089065
