13
Coordinates from ORCA-job run
  C   0.93001639003370      0.04608771570384      0.04238695322830
  C   -0.44552663831813      0.13434226751323     -0.69543601370107
  F   1.85583023090345      0.79865372510074     -0.63718624877234
  H   -0.25608740868143     -0.23538314872780     -1.70978849882948
  C   0.78872326277249      0.54198451735990      1.41901064715675
  N   0.61306440931739      0.92486856763186      2.51578914581681
  C   1.35597783395174     -1.36223718598683      0.05588380364384
  N   1.63706089583409     -2.50257216903601      0.02448194062532
  C   -0.81565479760015      1.55176678891271     -0.78494549423082
  N   -1.10424059659613      2.68852055698531     -0.83281308142351
  N   -1.50717575334024     -0.63067398589681     -0.10334159300552
  H   -1.32714634314104     -1.62544086555283     -0.13152756361991
  H   -1.72584148513576     -0.33191678400731      0.83848600311165
