13
Coordinates from ORCA-job run
  C   0.97090283038404      0.10538149261048     -0.06833661053500
  C   -0.48194615416044     -0.01835088682431     -0.58754433257586
  F   1.67806146460960      0.92988213119292     -0.91164820865808
  H   -0.41119304059727     -0.50610691968423     -1.56505147304612
  C   0.96453371349832      0.68009683154325      1.28638824650416
  N   0.90902180623819      1.14471173525104      2.36400731375272
  C   1.59567587522256     -1.22530659711951     -0.05471854521092
  N   2.11148418314383     -2.27975519398865     -0.08786636085959
  C   -1.04155087985059      1.33109820174599     -0.78013938874039
  N   -1.53727858539478      2.39020530786260     -0.89312401194323
  N   -1.20988322121652     -0.87104180575937      0.32390133861877
  H   -1.56916382584398     -0.34832093062247      1.11369744242716
  H   -1.98066416603296     -1.33249336620775     -0.13956540973363
