10
Coordinates from ORCA-job run
  C   0.61523235947437     -0.24820292323038     -0.36606126089793
  C   -0.60918031966219      0.26893716532177      0.38730023092330
  F   0.22034372583305     -1.22615910984817     -1.25174495210787
  H   -0.30001299286864      0.99733172181241      1.14219575324422
  H   1.08810316032222      0.55302225369211     -0.94020390602108
  H   -1.08594924015072     -0.56940573585000      0.90155557633166
  C   1.59001680555915     -0.81097453356100      0.58086888926802
  N   2.35584112025879     -1.24404592616880      1.35704275731061
  C   -1.56097942505206      0.88705579678839     -0.53300300554471
  N   -2.31441519371398      1.39144129104369     -1.27695008250623
