10
Coordinates from ORCA-job run
  C   0.51986594390767     -0.41942241882690     -0.35614584753671
  C   -0.51181909010686      0.44322396347555      0.36893100585554
  F   -0.06279014892860     -1.61600804752325     -0.71191307081110
  H   -0.88028384116661     -0.10636784328084      1.23881484727115
  H   0.86494362876958      0.07012276076680     -1.27081591494608
  H   -0.04197842144897      1.36436083856890      0.72443332581190
  C   1.67007930595356     -0.67826359486458      0.52339028335687
  N   2.58001262516722     -0.86019314666873      1.24146510030059
  C   -1.62771054443935      0.76832449247831     -0.51618866485283
  N   -2.51031945770764      1.03222299587474     -1.24197106444934
