10
Coordinates from ORCA-job run
  C   0.78836122166811     -0.18216229500251     -0.31700527973091
  C   -0.64699536673691      0.29207117006965     -0.54659491691958
  F   1.21874110726018     -0.80142618382230     -1.47269103121782
  H   -1.28409665733315     -0.57488783174540     -0.73733572160090
  H   1.44949174516305      0.66603241980969     -0.12152664507213
  H   -0.65775051008120      0.92541864633873     -1.43736863414366
  C   0.87033704890039     -1.13095764567372      0.80235047756234
  N   0.92689808937297     -1.88864169984923      1.69656893632489
  C   -1.14486551236283      1.04100332108079      0.60313948942004
  N   -1.51912116585061      1.65255009879431      1.53146332537775
