10
Coordinates from ORCA-job run
  C   0.80750553329461     -0.14685302288841     -0.28652870424957
  C   -0.61307873663223      0.35312539402277     -0.55000446119733
  F   1.31114330172387     -0.63397794898733     -1.47520795770698
  H   -1.23312288267880     -0.48557882793423     -0.87566576197956
  H   1.45143108352731      0.67253241676700      0.04327364477760
  H   -0.57177740126671      1.08227077862923     -1.36329540279747
  C   0.82533464854993     -1.21467354737758      0.72330773891073
  N   0.83148241558181     -2.06543226168300      1.53151094411093
  C   -1.18536946042107      0.96976274469306      0.64285913430224
  N   -1.62254850167872      1.46982427475848      1.60975082582941
