10
Coordinates from ORCA-job run
  C   0.71732811916306     -0.31234059230276     -0.37847804895915
  C   -0.73926460370172      0.13998775802355     -0.48641658124443
  F   0.92889328145238     -1.28595966816972     -1.33340255806098
  H   -1.39364752239782     -0.70894910324585     -0.27423107420165
  H   1.39695046509756      0.51810793587170     -0.58626206873286
  H   -0.92051970147320      0.46111901693171     -1.51539337748493
  C   1.01351123027203     -0.86397249269684      0.95117604109986
  N   1.23973138134428     -1.30962129582570      2.01295104823813
  C   -1.02082729267726      1.23703803740129      0.43434691910280
  N   -1.22115535707932      2.12559040401262      1.17370970024320
