14

C	-0.289977	-0.085456	-1.550722
C	-0.069321	0.073456	-0.041987
Cl	-2.056473	-0.594328	-1.832056
H	0.915417	0.562976	0.061687
H	-0.844084	0.746184	0.333713
C	-0.22134	1.24273	-2.190757
N	-0.116988	2.289804	-2.715274
N	0.595895	-1.022086	-2.104026
H	1.438398	-1.175973	-1.540029
H	0.808261	-0.869638	-3.077575
N	-0.142305	-1.208246	0.631919
H	-0.336635	-1.043311	1.61142
H	0.784755	-1.626802	0.582835
Cl	3.11991	-1.400035	-0.092193
