14

C	-0.671318	-0.112074	-1.530372
C	0.124179	-0.201088	-0.21054
Cl	0.193487	1.084079	-2.642531
H	1.190668	-0.303749	-0.433892
H	-0.224036	-1.116541	0.280929
C	-0.65255	-1.387803	-2.253373
N	-0.643843	-2.426612	-2.801543
N	-2.000265	0.275367	-1.235601
H	-2.506154	0.543818	-2.069363
H	-1.913144	1.059128	-0.588504
N	-0.148053	0.981927	0.583778
H	-0.445278	0.700291	1.508391
H	0.740472	1.474888	0.724128
Cl	2.899784	1.686967	1.306634
