18

C	-0.547961	-0.002002	-1.43751
C	0.0	0.0	0.0
Cl	0.298952	-1.343194	-2.278426
H	1.087078	0.0	0.0
C	-2.043581	-0.268087	-1.55898
H	-2.306937	-0.235393	-2.618448
H	-2.600907	0.499271	-1.021394
H	-2.317318	-1.246821	-1.164647
N	-0.101324	1.238125	-2.04391
H	-0.819752	1.943431	-1.950846
H	0.132372	1.088738	-3.015539
N	-0.510781	-1.174408	0.77699
O	0.171336	-2.191121	0.770321
O	-1.606363	-1.04401	1.331106
N	-0.446827	1.192294	0.791711
O	0.046158	1.282426	1.908335
O	-1.261032	1.980273	0.311566
Cl	3.251565	0.0	0.0
