18

C	-0.343453	-0.024797	-1.498211
C	0.0	0.0	0.0
Cl	-2.126515	-0.012243	-1.76
H	1.090562	0.0	0.0
C	0.254213	1.202581	-2.167077
H	-0.23253	2.121441	-1.847458
H	0.127748	1.074575	-3.242469
H	1.317409	1.259224	-1.918107
N	0.213976	-1.196737	-2.132621
H	1.223352	-1.160568	-1.997587
H	-0.14293	-2.027498	-1.67631
N	-0.420121	-1.191514	0.801539
O	-1.091729	-2.081142	0.276741
O	-0.019887	-1.192266	1.960776
N	-0.533861	1.19227	0.716834
O	0.097034	2.236371	0.583437
O	-1.582429	1.060915	1.345628
Cl	3.195411	0.0	0.0
