18

C	-0.538895	-0.029161	-1.444865
C	0.0	0.0	0.0
Cl	0.035709	1.516219	-2.175683
H	1.086831	0.0	0.0
C	0.14553	-1.161132	-2.19294
H	-0.211552	-2.129162	-1.83304
H	-0.100367	-1.062234	-3.250655
H	1.225283	-1.109181	-2.044257
N	-1.964623	-0.104789	-1.61615
H	-2.414309	0.579919	-1.021466
H	-2.288862	-1.029452	-1.360618
N	-0.48346	-1.223323	0.71708
O	0.197215	-2.237603	0.606254
O	-1.557329	-1.140668	1.319847
N	-0.475885	1.14549	0.83819
O	-1.462065	1.789753	0.48348
O	0.159515	1.331243	1.868989
Cl	3.23972	0.0	0.0
