18

C	-0.413423	0.001873	-1.485742
C	0.0	0.0	0.0
Cl	-2.131319	-0.51603	-1.672471
H	1.09013	0.0	0.0
C	-0.267243	1.411476	-2.033085
H	-0.971257	2.098223	-1.563842
H	0.755873	1.759079	-1.860684
H	-0.463129	1.369828	-3.104584
N	0.400199	-0.89054	-2.27647
H	1.371161	-0.600467	-2.152925
H	0.330352	-1.821074	-1.879359
N	-0.418577	-1.215993	0.758862
O	-0.832733	-1.073365	1.904296
O	-0.251465	-2.291539	0.190809
N	-0.51003	1.19167	0.734906
O	0.328834	1.970701	1.181419
O	-1.730123	1.333643	0.804646
Cl	3.201641	0.0	0.0
