14

C	-0.813897	0.022226	-1.426949
C	0.174906	-0.021517	-0.259925
Cl	-0.716097	-1.426327	-2.484031
H	1.190328	-0.087707	-0.660834
H	-1.832361	0.029594	-1.024332
C	-0.640037	1.21055	-2.261474
N	-0.541441	2.125915	-2.9903
N	-0.027546	-1.207067	0.553674
H	-0.933945	-1.10146	1.008731
H	0.68084	-1.02893	1.300185
N	0.084616	1.264162	0.424111
H	-0.813018	1.275656	0.907995
H	0.796168	1.110067	1.179048
F	1.729269	0.058598	2.075412
