14

C	-0.648708	-0.215396	-1.565785
C	0.166636	-0.048669	-0.276385
Cl	-2.415328	-0.038538	-1.300308
H	1.223044	-0.105439	-0.606102
H	-0.362929	0.592653	-2.241324
C	-0.400097	-1.504539	-2.206147
N	-0.156239	-2.539487	-2.705554
N	-0.159269	-1.056775	0.714402
H	0.206721	-1.956355	0.411142
H	0.440124	-0.733109	1.505149
N	-0.009545	1.290132	0.238853
H	-0.932202	1.297908	0.668574
H	0.660031	1.267221	1.040852
F	1.566896	0.371897	2.137542
