16

C	-0.321031	-0.155482	-1.473958
C	0.0	0.0	0.0
F	-1.614467	-0.567678	-1.705696
H	1.086922	0.0	0.0
H	-0.450942	0.889951	0.430222
N	-0.270723	1.282342	-2.013561
O	0.788783	1.674588	-2.487845
O	-1.295867	1.950225	-1.902099
C	0.677897	-0.998366	-2.216233
H	1.663548	-0.715695	-1.83808
H	0.594703	-0.853304	-3.294874
H	0.486068	-2.037426	-1.958315
N	-0.473075	-1.137859	0.794905
O	-0.385296	-2.271924	0.325761
O	-0.889208	-0.893623	1.929034
F	2.568262	0.0	0.0
