16

C	-0.29584	0.044766	-1.484924
C	0.0	0.0	0.0
F	-0.026449	-1.218397	-1.945994
H	1.089712	0.0	0.0
H	-0.453406	-0.886747	0.437055
N	-1.793755	0.239777	-1.731473
O	-2.206172	1.398362	-1.714122
O	-2.491104	-0.760102	-1.872673
C	0.532718	1.031227	-2.254591
H	0.443618	0.827273	-3.323154
H	0.227431	2.04871	-2.031608
H	1.551789	0.868662	-1.89491
N	-0.491223	1.16428	0.745531
O	-1.176496	0.949528	1.750336
O	-0.156057	2.28799	0.371364
F	2.560047	0.0	0.0
