16

C	-0.392186	-0.179788	-1.440324
C	0.0	0.0	0.0
F	-1.706188	-0.573198	-1.581027
H	1.089454	0.0	0.0
H	-0.323397	-0.888542	0.543799
N	-0.252145	1.103075	-2.254456
O	0.87788	1.563961	-2.32453
O	-1.248496	1.536756	-2.820855
C	0.548939	-1.194117	-2.05373
H	0.314231	-2.174685	-1.633748
H	0.427523	-1.231251	-3.138133
H	1.562096	-0.912555	-1.755135
N	-0.592874	1.14239	0.697143
O	-0.807802	1.008831	1.904447
O	-0.802111	2.182768	0.068586
F	2.559064	0.0	0.0
