16

C	-0.393005	-0.173845	-1.441253
C	0.0	0.0	0.0
F	-1.703701	-0.576553	-1.583172
H	1.089479	0.0	0.0
H	-0.321094	-0.892298	0.539065
N	-0.265293	1.11423	-2.248486
O	0.858804	1.590817	-2.308503
O	-1.263686	1.535112	-2.820535
C	0.556945	-1.176348	-2.061963
H	1.569845	-0.884455	-1.765745
H	0.429922	-1.212411	-3.146144
H	0.336416	-2.16187	-1.643921
N	-0.596544	1.136947	0.703528
O	-0.798438	0.999987	1.912018
O	-0.823744	2.175003	0.078395
F	2.561027	0.0	0.0
