16

C	-0.64045	0.066886	-1.366523
C	0.0	0.0	0.0
F	-0.28173	1.291089	-1.896597
H	1.089917	0.0	0.0
H	-0.319899	0.886826	0.550155
N	-0.03871	-0.95089	-2.338141
O	1.135089	-0.781535	-2.635246
O	-0.777398	-1.832442	-2.776728
C	-2.14548	-0.027299	-1.399704
H	-2.507876	0.111508	-2.419126
H	-2.542975	0.7674	-0.76475
H	-2.480492	-0.995574	-1.036455
N	-0.460263	-1.153367	0.76156
O	-0.58436	-2.226834	0.159427
O	-0.640516	-1.019411	1.974617
F	2.499117	0.0	0.0
