16

C	-0.331401	0.083853	-1.503814
C	0.0	0.0	0.0
Cl	0.007951	-1.512693	-2.267574
H	1.095009	0.0	0.0
C	-1.748517	0.378196	-1.730398
N	-2.884259	0.640259	-1.885571
C	0.593518	1.126503	-2.122879
H	0.304538	2.110057	-1.749717
H	0.531101	1.107336	-3.212271
H	1.599239	0.884367	-1.7604
C	-0.578195	-1.167937	0.650555
N	-1.066405	-2.058873	1.244545
N	-0.396836	1.25857	0.629302
H	0.346459	1.528028	1.26175
H	-1.2641	1.172953	1.143647
F	2.582663	0.0	0.0
