16

C	-0.529478	-0.012311	-1.447024
C	0.0	0.0	0.0
Cl	0.288518	1.306471	-2.355938
H	1.100227	0.0	0.0
C	-0.181445	-1.274254	-2.104969
N	0.067523	-2.299946	-2.621478
C	-2.032229	0.222319	-1.528124
H	-2.364448	0.27071	-2.566892
H	-2.247498	1.168095	-1.029796
H	-2.556948	-0.592046	-1.019893
C	-0.514085	-1.164265	0.702683
N	-0.957702	-2.074505	1.304227
N	-0.379523	1.254046	0.661038
H	-1.027168	1.097539	1.422134
H	0.481683	1.630463	1.041269
F	2.526006	0.0	0.0
