16

C	-0.328576	0.08051	-1.506217
C	0.0	0.0	0.0
Cl	0.022521	-1.511631	-2.275047
H	1.095015	0.0	0.0
C	-1.744724	0.366082	-1.733262
N	-2.880392	0.622417	-1.88955
C	0.594499	1.124072	-2.12036
H	1.59904	0.884477	-1.752349
H	0.541596	1.104628	-3.209898
H	0.304962	2.105914	-1.748735
C	-0.57985	-1.165082	0.652841
N	-1.069313	-2.054635	1.247817
N	-0.396519	1.259301	0.626778
H	0.347794	1.529381	1.260938
H	-1.264854	1.17373	1.140751
F	2.582641	0.0	0.0
