16

C	-0.502598	0.031967	-1.456575
C	0.0	0.0	0.0
Cl	0.328246	1.377337	-2.310161
H	1.094124	0.0	0.0
C	-0.139123	-1.211916	-2.141691
N	0.108539	-2.233795	-2.665229
C	-2.003469	0.264949	-1.559713
H	-2.316684	0.342377	-2.60258
H	-2.53658	-0.564073	-1.085381
H	-2.231295	1.195299	-1.039159
C	-0.522284	-1.186399	0.658025
N	-0.975809	-2.110125	1.230703
N	-0.392372	1.234408	0.692753
H	-1.039763	1.048453	1.447523
H	0.465918	1.603303	1.088154
F	2.527235	0.0	0.0
