16

C	-0.25951	-0.026686	-1.502763
C	0.0	0.0	0.0
Cl	-2.035856	-0.212152	-1.892883
H	1.096597	0.0	0.0
C	0.148013	1.260471	-2.072723
N	0.474033	2.25061	-2.613138
C	0.54555	-1.1546	-2.1336
H	0.158367	-2.115235	-1.787868
H	1.569549	-1.016275	-1.765301
H	0.49894	-1.116121	-3.223276
C	-0.468358	-1.23181	0.625585
N	-0.853266	-2.196575	1.17861
N	-0.489906	1.210423	0.630339
H	0.197067	1.513034	1.308694
H	-1.378632	1.068902	1.092441
F	2.563069	0.0	0.0
