16

C	-0.534005	0.032803	-1.444811
C	0.0	0.0	0.0
Cl	0.313204	1.35061	-2.326677
H	1.09414	0.0	0.0
C	-0.228372	-1.221761	-2.137048
N	-0.072113	-2.232522	-2.715625
C	-2.031221	0.306201	-1.51506
H	-2.220083	1.247474	-0.997881
H	-2.574706	-0.50446	-1.020852
H	-2.364205	0.382451	-2.551773
C	-0.520105	-1.179804	0.67227
N	-0.972799	-2.104678	1.243834
N	-0.367414	1.238176	0.697005
H	-1.020474	1.068602	1.451689
H	0.497246	1.593365	1.089938
F	2.526823	0.0	0.0
