16

C	-0.399606	0.01192	-1.497006
C	0.0	0.0	0.0
Cl	0.301303	1.487937	-2.256983
H	1.095572	0.0	0.0
C	0.189001	-1.147418	-2.171291
N	0.576296	-2.09784	-2.743501
C	-1.904238	0.028548	-1.750952
H	-2.113977	0.070119	-2.821258
H	-2.349319	0.908407	-1.280789
H	-2.354875	-0.871926	-1.327394
C	-0.562627	-1.203225	0.597938
N	-1.034895	-2.181893	1.050003
N	-0.374849	1.177177	0.763414
H	-1.220201	1.625434	0.432677
H	0.400407	1.82409	0.689896
F	2.522886	0.0	0.0
