14
Coordinates from ORCA-job run
  C   -0.62490962832708      0.13766917480807      0.36968293695683
  C   0.62499802297819     -0.10360884436754     -0.45250514700907
  F   -0.49707048965932     -0.56282450005103      1.57795310175090
  H   0.51503851137067      0.42580347257886     -1.40543465199207
  H   -0.69479266882349      1.19762632408361      0.64216447695027
  H   0.67653694742265     -1.17323287022063     -0.68356553458036
  C   -1.89961295830549     -0.32133697496175     -0.30155646886226
  H   -2.75352887361362     -0.16721113584701      0.36032565079257
  H   -1.83471433808300     -1.38519550694411     -0.53985896727655
  H   -2.07030351090276      0.23588765208400     -1.22566316109291
  C   1.89645244409733      0.34318569843173      0.26083019441228
  H   1.86761431605556      1.41422955913126      0.47892331863027
  H   2.01220416960009     -0.19003182008984      1.20485584450668
  H   2.78008805619027      0.15003977136435     -0.35115159318657
