14
Coordinates from ORCA-job run
  C   -0.77438967882195      0.64889789752175      0.02971810440528
  C   0.62776793879373      0.61360220315402     -0.55291160020611
  F   -0.69457536571354      1.16601113349012      1.33147736697639
  H   1.01746218478286      1.63614268083376     -0.52511721316199
  H   -1.38513057027225      1.35913302299058     -0.53857164298038
  H   0.55407006331565      0.33257303228782     -1.60956886455416
  C   -1.47167598002952     -0.69156094065558      0.10612841894364
  H   -1.53509798884463     -1.15016713630451     -0.88383287343390
  H   -0.93402623015271     -1.36665456007775      0.77286484506108
  H   -2.48331493617367     -0.56500403295278      0.49550053526017
  C   1.58211841804178     -0.32011909658930      0.18534113636385
  H   1.58339327019419     -0.09600877346206      1.25327857171304
  H   2.60191270502034     -0.19772645373599     -0.18550235024094
  H   1.30948616985971     -1.36911897650010      0.05519556585403
