15

C	0.0	0.0	0.0
C	-0.415689	-0.069342	-1.488992
F	1.353408	0.0	0.0
H	-0.547672	0.978003	-1.774075
N	-0.397203	1.307922	0.663901
O	-0.68258	1.33345	1.845256
O	-0.251887	2.286272	-0.065191
N	-0.334021	-1.265667	0.760087
O	-0.517177	-2.252057	0.059359
O	-0.213605	-1.25379	1.976603
C	-1.652617	-0.771891	-1.859657
N	-2.417163	-1.336064	-2.557708
C	0.686046	-0.620855	-2.301042
N	1.536334	-1.057395	-2.983705
F	-2.224405	0.0	0.0
