15

C	0.0	0.0	0.0
C	-0.418676	-0.119637	-1.487119
F	1.342104	0.0	0.0
H	-0.563571	-1.193338	-1.635468
N	-0.345618	1.349792	0.589072
O	-0.271979	1.495949	1.799464
O	-0.487083	2.239949	-0.23928
N	-0.402732	-1.217449	0.817022
O	-0.639951	-1.102606	2.003427
O	-0.29701	-2.276877	0.204076
C	0.691372	0.300619	-2.363767
N	1.56225	0.606577	-3.088728
C	-1.648718	0.539128	-1.946298
N	-2.411421	0.995934	-2.721599
F	-2.231585	0.0	0.0
