15

C	0.0	0.0	0.0
C	-0.385304	0.085796	-1.49398
F	1.370021	0.0	0.0
H	-0.39961	1.161995	-1.695759
N	-0.387605	1.23877	0.790067
O	-0.176736	2.282628	0.175756
O	-0.74437	1.148335	1.948497
N	-0.335823	-1.328054	0.628502
O	-0.604091	-2.22924	-0.152416
O	-0.138887	-1.439552	1.831077
C	-1.674213	-0.459558	-1.942954
N	-2.458837	-0.852791	-2.732232
C	0.68318	-0.5072	-2.320492
N	1.527142	-0.979059	-2.985818
F	-2.21727	0.0	0.0
