15

C	0.0	0.0	0.0
C	-0.353253	0.088407	-1.493059
F	1.353585	0.0	0.0
H	0.184152	-0.766654	-1.919497
N	-0.368926	1.195513	0.839529
O	-0.076152	1.119674	2.027825
O	-0.774211	2.184707	0.249237
N	-0.404907	-1.345154	0.582291
O	-0.184853	-2.274197	-0.192323
O	-0.783205	-1.439651	1.732768
C	0.269443	1.273313	-2.096257
N	0.813996	2.14991	-2.654824
C	-1.75935	-0.049096	-1.914926
N	-2.558022	-0.225576	-2.769164
F	-2.270735	0.0	0.0
