13
Coordinates from ORCA-job run
  C   0.92768571004541      0.49746701657458      0.25500763792343
  C   -0.57052031427160      0.65170816272463      0.07592075893919
  F   1.36292696147071      1.62588491535945      0.96891971757976
  H   -0.76385014152758      1.65464888683134     -0.31264833396290
  H   1.44419673490295      0.55194747575251     -0.70902991368479
  H   -1.02718270653833      0.60702671788325      1.07141581974708
  N   1.30923048973866     -0.68314082659402      0.94083107910517
  H   0.55900265182086     -1.16143050477296      1.41224020741334
  H   1.88845546902496     -1.31512168159089      0.41670912420217
  C   -1.16661402798502     -0.40408867269189     -0.84789180105559
  H   -1.02523764500751     -1.41190204348172     -0.45261724186184
  H   -0.69967432482868     -0.36623436416934     -1.83606783028796
  H   -2.23841885684482     -0.24676508182495     -0.98278922405707
