13
Coordinates from ORCA-job run
  C   0.80328944882026      0.45239752814954      0.52605211862670
  C   -0.44945716256342      0.76934463194713     -0.26537364684741
  F   0.39687805540618      0.10836644528295      1.84151722928085
  H   -0.99174322335064      1.54520717775667      0.28179544209281
  H   1.42418694891276      1.34372581050078      0.64569564930408
  H   -0.14183579216436      1.19538017888283     -1.22430923455552
  N   1.58480088300252     -0.57134527614215     -0.06664649261619
  H   1.06892846643579     -1.44061603563567     -0.10315984286744
  H   2.43270736224123     -0.72542439600229      0.46292636311106
  C   -1.35344809869428     -0.44075371137662     -0.48177043039240
  H   -1.57482701787747     -0.93046932473725      0.46814634778583
  H   -2.30064491121298     -0.13638185789787     -0.93086978781201
  H   -0.89783495895558     -1.16943117072806     -1.15600371511036
