17

C	-0.400083	-0.034207	-1.42167
C	0.0	0.0	0.0
Br	-2.397348	-0.030691	-1.947286
H	1.09364	0.0	0.0
N	0.178707	1.164078	-2.17569
O	0.277626	2.208432	-1.545825
O	0.506831	0.977336	-3.342225
C	0.105648	-1.245894	-2.047677
N	0.507942	-2.251884	-2.506196
C	-0.426459	-1.219492	0.790078
H	-0.026051	-1.119162	1.801791
H	-1.515866	-1.323296	0.826812
H	0.021598	-2.113747	0.351918
N	-0.456066	1.206561	0.753249
O	-1.624463	1.566712	0.614505
O	0.341437	1.711412	1.536985
H	2.494943	0.0	0.0
