17

C	-0.413835	-0.00507	-1.462663
C	0.0	0.0	0.0
Br	0.322332	-1.595803	-2.324115
H	1.092227	0.0	0.0
N	-1.921644	-0.105976	-1.798124
O	-2.59325	-0.804372	-1.053337
O	-2.353678	0.716332	-2.611188
C	0.124567	1.168015	-2.138977
N	0.622465	2.106762	-2.643113
C	-0.509208	-1.092184	0.918009
H	0.049888	-1.007113	1.853364
H	-0.300664	-2.070467	0.484393
H	-1.578248	-1.008046	1.111595
N	-0.408871	1.317335	0.579959
O	0.340953	1.824359	1.410889
O	-1.457157	1.829923	0.14675
H	2.678777	0.0	0.0
