14
Coordinates from ORCA-job run
  C   0.76075713601628     -0.46024135246610      0.66274370572512
  C   -0.58889722719404      0.21972006074464      0.43072907304335
  F   0.52460985152971     -1.55072015920691      1.47249333045653
  H   -1.18892347811214      0.21670816170499      1.33858371844594
  H   1.38726657507409      0.22573569211333      1.24892758525667
  N   1.31466765686804     -0.93325834720468     -0.56209735453518
  H   1.48250149417531     -0.15933976770656     -1.19273520289366
  H   2.18959580207925     -1.40814408028198     -0.37933030641352
  N   -1.36660828245747     -0.51321366596682     -0.62544307342442
  O   -1.31898173346390     -0.07223641830828     -1.76589224190274
  O   -1.94279946204459     -1.51687126698904     -0.23234068230310
  N   -0.44542614121353      1.63580553623164     -0.01622001425038
  O   -1.42225955979983      2.35391237791663      0.16834367482316
  O   0.61449736854283      1.96214322941914     -0.54676221202778
