13
Coordinates from ORCA-job run
  C   0.76063590446304      0.10192707361554     -0.55718815611468
  C   -0.70942562926256      0.00912118609198     -0.16658648538892
  F   1.29196131954337      1.26008521749819     -0.12783770556477
  H   -1.04678123142307     -1.02348407189870     -0.29135769684243
  H   0.87597267007792      0.01365030632628     -1.63998801735449
  N   1.53460722857301     -1.06841322260988      0.02196045849291
  O   2.55487903516693     -0.82679269022567      0.63992646464175
  O   1.05690025905613     -2.16190600394876     -0.25469254922416
  C   -1.51071461420858      0.92477103063320     -0.96566170420521
  N   -2.12283379298077      1.64125321899181     -1.66607580367704
  N   -0.85977483938003      0.31975185128119      1.31591609822789
  O   -1.75371418022890      1.08114946558722      1.65074370098110
  O   -0.06971212939649     -0.27011336134240      2.04084139602805
