13
Coordinates from ORCA-job run
  C   0.43090868736659     -0.80922559836122     -0.10499450189899
  C   -0.50798496069784      0.38725103966607     -0.07286995173639
  F   -0.17494046213824     -1.80910101817851     -0.78209961846374
  H   -0.80462998385367      0.64287870855518     -1.09245497827841
  H   0.74031653652086     -1.14146021246528      0.88392720125577
  N   1.66534038392003     -0.38722258055172     -0.86019622079997
  O   2.66548486313505     -0.17543048364061     -0.18236480999962
  O   1.53796794003051     -0.26762135290522     -2.07300046212127
  C   0.08277012557257      1.52344901152637      0.61905772859471
  N   0.56442504396809      2.44161924653507      1.17064427012546
  N   -1.76942387851830     -0.03665067638435      0.65658810800888
  O   -2.82752669852792      0.19748294476522      0.09023981923276
  O   -1.60270759677774     -0.56696902856099      1.74752341608079
