13
Coordinates from ORCA-job run
  C   0.40091000915824     -0.80990860082227     -0.16498946286195
  C   -0.46692026394484      0.43732077117205     -0.09334783836897
  F   -0.11519470021211     -1.63678807533316     -1.10176045994834
  H   -0.55149237330361      0.87748076528259     -1.08903319193962
  H   0.50138316615452     -1.32092696964155      0.79074816725454
  N   1.77427793543021     -0.37574089558210     -0.60694519643360
  O   1.86316361816816      0.01929920757985     -1.76387099687801
  O   2.66097701640508     -0.43486351737219      0.23882074547578
  C   0.04099071702538      1.39165900038877      0.88106998888958
  N   0.46169569219314      2.15835861461109      1.66505695558072
  N   -1.86136801494851      0.00136477486229      0.31567865194885
  O   -2.77853399090565      0.37355373892072     -0.40249600579985
  O   -1.93088881122001     -0.68080881406608      1.33006864308087
