13
Coordinates from ORCA-job run
  C   0.42865238889897     -0.79272590967555     -0.17889380586348
  C   -0.49358618965961      0.41178355915814     -0.06728827168924
  F   -0.10954416302365     -1.66305703724644     -1.06230443322722
  H   -0.66960627414178      0.82624708268162     -1.06200743968652
  H   0.62174368090206     -1.27833489740546      0.77583829104856
  N   1.74412877025895     -0.30092348314925     -0.72478202650619
  O   1.73183220350156      0.07375374443453     -1.89177028106398
  O   2.68965056688754     -0.29871616965188      0.05685140220600
  C   0.03270557462349      1.40990866612947      0.85191165560019
  N   0.46794051791890      2.21312090357704      1.59006058937688
  N   -1.83234373328488     -0.08295014673883      0.44714289482408
  O   -1.79636595043674     -0.74757784046193      1.47480538166741
  O   -2.81520739244481      0.23047152834853     -0.20956395668649
