13
Coordinates from ORCA-job run
  C   0.56007492327638     -0.71780020399938      0.12230893351065
  C   -0.56374388735024      0.26233554992599     -0.17791972482724
  F   0.15996857510154     -1.95426812740672     -0.24988211420811
  H   -0.84917679780401      0.17463969296599     -1.22825234018500
  H   0.87352942623855     -0.70881448259802      1.16451698592204
  N   1.74199190606213     -0.31747342453591     -0.72198505621407
  O   1.61882968472932     -0.48809935857933     -1.92948269436885
  O   2.69946416203698      0.16212511070340     -0.12352655947955
  C   -0.19658077278983      1.62630773509012      0.17295435279335
  N   0.11107181731478      2.72440067622790      0.45385508858737
  N   -1.76858309757195     -0.15644674445755      0.64325001613023
  O   -2.81562020046112     -0.31005297782986      0.03043827152248
  O   -1.57322573878252     -0.29685344550663      1.84372484081672
