13
Coordinates from ORCA-job run
  C   0.40897693469768     -0.80737296756038     -0.15733242197040
  C   -0.49311607867617      0.41363624968799     -0.06101032390263
  F   -0.19235080023074     -1.72179896955660     -0.95078380392614
  H   -0.72799734319255      0.77086526306638     -1.06577838697025
  H   0.65793039817877     -1.23728440901551      0.81104386310587
  N   1.69163596079400     -0.36637075868561     -0.81332676433638
  O   1.60856841329965     -0.06132795776123     -1.99760500795763
  O   2.68517045842853     -0.33079291694431     -0.09454221867999
  C   0.09983154044908      1.45765700527547      0.76160335708606
  N   0.58921935560657      2.29680701480719      1.42170232398048
  N   -1.80112055195951     -0.03225439713535      0.56535253476207
  O   -1.70608233453421     -0.63581833403152      1.62638754122829
  O   -2.82066595286108      0.25505517785348     -0.04571069241935
