13
Coordinates from ORCA-job run
  C   0.34509429555808     -0.69774110136560     -0.71974280929425
  C   -0.75681568443847      0.23359496099581     -0.21880045444603
  F   0.49008694966578     -0.53612493066031     -2.04996255404297
  H   -1.62567249738164      0.07649605898953     -0.86587055559713
  H   0.12248471523932     -1.73736455352793     -0.47903467140520
  N   1.64310021817155     -0.35105693669511     -0.02838340149815
  O   2.63898617655683     -0.19287967515590     -0.71356482055551
  O   1.54371132156700     -0.28640281544894      1.19263182407310
  C   -0.35135308300067      1.63008695776392     -0.24772411589218
  N   -0.00296869824608      2.74883520954687     -0.32456294788213
  N   -1.22217645248978     -0.18714003232320      1.16660656831017
  O   -1.49788312892002     -1.37551771341852      1.26498625720324
  O   -1.32559413228190      0.67521457129936      2.02242168102704
