13
Coordinates from ORCA-job run
  C   0.54873369635419     -0.73601650704639      0.03310077157477
  C   -0.56587586949614      0.28724043745209     -0.12325893542409
  F   0.09717986952770     -1.93126141201374     -0.40846828728108
  H   -0.91345297910195      0.28889920336761     -1.15838891098186
  H   0.92215435354620     -0.81470083007370      1.05239127893463
  N   1.68924693337080     -0.29483126118051     -0.84699949993165
  O   1.49192001098729     -0.36866632150963     -2.05448557343972
  O   2.69085565861047      0.11834064829749     -0.27163577310446
  C   -0.14606398834252      1.61139727583830      0.31101171601242
  N   0.20334615953756      2.67776712236875      0.65773320761213
  N   -1.73153802860634     -0.17167142390627      0.73255943111497
  O   -2.81556388109248     -0.25541193699433      0.17273289323570
  O   -1.47094193529478     -0.41108499459967      1.90470768167825
