13
Coordinates from ORCA-job run
  C   0.62446827219701     -0.65482079877257      0.15592585593065
  C   -0.59111864572290      0.19941061060107     -0.17031493460480
  F   0.31441863268312     -1.94879593737540     -0.08246751570700
  H   -0.91502981676636     -0.00684794761442     -1.19249960131004
  H   0.98346469862278     -0.52296422299256      1.17488185265955
  N   1.72821802062937     -0.24143542516503     -0.78273093245264
  O   1.56387905767006     -0.53329608520019     -1.96183097009080
  O   2.66811552242385      0.36731777772412     -0.28175863932443
  C   -0.32667351547062      1.61495485654698      0.04074277620414
  N   -0.10213964046044      2.75562354055352      0.20766897615694
  N   -1.71761446773144     -0.23982592422229      0.74618687160431
  O   -2.77336766250902     -0.53568793540206      0.20461168182092
  O   -1.45762045556540     -0.25263250868116      1.94258457911320
