13
Coordinates from ORCA-job run
  C   0.73814891116390      0.07246003246688     -0.59041566830065
  C   -0.71658345265365      0.01989788316423     -0.13940936075610
  F   1.30887537367143      1.22933798226294     -0.21112616175707
  H   -1.08084116897152     -1.00714464312332     -0.22974460460218
  H   0.80793069526180     -0.04401299800988     -1.67436624749671
  N   1.51244405334194     -1.09906129650879     -0.01380441428025
  O   0.99759902894705     -2.18866118743857     -0.23259762222071
  O   2.56803499533276     -0.86319079236019      0.54444701250316
  C   -1.52785042776493      0.93900420162554     -0.92405147859996
  N   -2.14584114259259      1.66100818681451     -1.61370855770652
  N   -0.80051176838154      0.36213918268642      1.34182160407908
  O   0.00868627659657     -0.22615867898044      2.04627588629971
  O   -1.66909137395120      1.14338212740067      1.69667961283818
