13
Coordinates from ORCA-job run
  C   0.63972677174367     -0.63098234449194      0.19378472166307
  C   -0.59970646153419      0.17500413118097     -0.16435016570145
  F   0.33790691013806     -1.94486484513142      0.09552618169093
  H   -0.96153455693527     -0.13557844313846     -1.14671169041617
  H   1.03712527911376     -0.39647676485222      1.17944180581303
  N   1.69917907905040     -0.30029856043786     -0.82524642149676
  O   2.64685673836222      0.36844156557641     -0.42557000218683
  O   1.49428168324259     -0.71080631166713     -1.96181300135675
  C   -0.34745789753802      1.60722370234137     -0.10636520062108
  N   -0.13408252760938      2.76135883269169     -0.06336289732531
  N   -1.68221135343810     -0.18140244595408      0.83701962819592
  O   -1.37288471517589     -0.07597860310699      2.01704341583713
  O   -2.75619894941986     -0.53563991301034      0.37160362590426
