13
Coordinates from ORCA-job run
  C   0.85037152724796      0.05406050587955     -0.41602007869942
  C   -0.65097058439959      0.23636469424663     -0.22832579686251
  F   1.53254584686872      0.87146855437795      0.40514065014725
  H   -1.17350892906351     -0.59843770019229     -0.70348413715767
  H   1.13261170878362      0.24253244351760     -1.45436544713338
  N   1.24291211130144     -1.38851272149614     -0.15316638728399
  O   0.59889907738232     -2.20200355180666     -0.80435253448417
  O   2.16724238491908     -1.59736766668410      0.61050280305934
  C   -1.08534661173964      1.51140138536640     -0.78016155709146
  N   -1.39781438747341      2.52639362749294     -1.28097293346887
  N   -0.98978657750702      0.15061856583606      1.25331146536388
  O   -0.48097650037267     -0.79721868931774      1.83660254769344
  O   -1.74817906594731      0.98970055277982      1.71329140591756
