13
Coordinates from ORCA-job run
  C   0.77508980795464      0.03197923497234     -0.59490980453047
  C   -0.68939152780475      0.13742912423272     -0.17716593918882
  F   1.52832080335656      1.04255021508569     -0.11595689019551
  H   -1.23072403667555     -0.73960046265658     -0.54046141194162
  H   0.84882694584803      0.00656813911065     -1.68411310623999
  N   1.38588817491510     -1.25963558687920     -0.10979343106108
  O   2.26435755995143     -1.72804971134029     -0.82571877043289
  O   0.98567096369283     -1.70227268049708      0.96354000886012
  C   -1.25703600770950      1.35811919447649     -0.73868484853440
  N   -1.70693646829084      2.33241443010788     -1.21544203655480
  N   -0.90610970524158      0.16101995146101      1.32799787002386
  O   -1.69616191414440     -0.66434934066403      1.76212294132476
  O   -0.30379459585196      1.02482749259039      1.94758541847084
