13
Coordinates from ORCA-job run
  C   0.75256431827158     -0.12285034988733     -0.56414317900607
  C   -0.69172610960396      0.15762357788939     -0.16679383389437
  F   1.54299036584404      0.91476484602024     -0.23783527397056
  H   -1.25855699110251     -0.77684516693561     -0.20185217116917
  H   0.82277469085598     -0.32749081302296     -1.63486208943498
  N   1.25018469023360     -1.38575422572277      0.11505684761672
  O   0.52951221482324     -2.35992065360971     -0.06476401314871
  O   2.31138252216854     -1.33323047747815      0.70861514143852
  C   -1.27845575410947      1.16144474149436     -1.04251086515879
  N   -1.72492687263570      1.93749130933856     -1.80218153340577
  N   -0.73757318373614      0.61842675520241      1.28323818433593
  O   -1.42941222050645      1.58822929259819      1.55084285601672
  O   -0.08675767050273     -0.07188883588661      2.05618992978052
