13
Coordinates from ORCA-job run
  C   0.62663034008005     -0.24193424009355     -0.66932622097048
  C   -0.70615375415491      0.17220784936368     -0.05700922702075
  F   1.49543258639079      0.78391216303647     -0.64996241304728
  H   -1.29668068802673     -0.72447896146804      0.15013364151719
  H   0.48453410849354     -0.59583921775995     -1.69297446610259
  N   1.20697056282986     -1.42554621237806      0.08324740435850
  O   2.36338051954850     -1.35220559587066      0.45550216175624
  O   0.43668333599721     -2.37263519282942      0.18433844717129
  C   -1.41932008733154      1.07769323246386     -0.94603144966502
  N   -1.97952099328214      1.76542313245403     -1.71534690695725
  N   -0.45994601988705      0.83037092597761      1.29309042720864
  O   -1.05809144574427      1.86603963939765      1.53908418551986
  O   0.30508153508669      0.21699247770638      2.02525441623166
