13
Coordinates from ORCA-job run
  C   0.33910018074795     -0.68540815663771     -0.73410010549234
  C   -0.76248889007206      0.22929078464701     -0.20283132161587
  F   0.45938745578356     -0.50665558367799     -2.06456455105498
  H   -1.64092256525034      0.07193470007669     -0.83681564311014
  H   0.13063170226882     -1.72986661303031     -0.50191078134512
  N   1.64575542534433     -0.33484991177236     -0.06115551064270
  O   1.56718089632725     -0.28589211707317      1.16209374714871
  O   2.62806059156413     -0.15924621543941     -0.76153408709324
  C   -0.37078649879540      1.62984381141547     -0.22093292399071
  N   -0.03441712046122      2.75284817739220     -0.28929776279496
  N   -1.20021712053384     -0.21318099133096      1.18491736100758
  O   -1.29716820244763      0.63744686399494      2.05315902937672
  O   -1.46311585447557     -1.40526474856440      1.27297254960707
