13
Coordinates from ORCA-job run
  C   0.85718136067572      0.05488119803463     -0.40222645449562
  C   -0.64894163969895      0.22543804422015     -0.24328510019025
  F   1.51751813760929      0.89503646012158      0.41357152216434
  H   -1.15464915131851     -0.62370508354481     -0.71120839524335
  H   1.15463023452699      0.22551549863844     -1.43944015579558
  N   1.25920548705056     -1.37841487835829     -0.10439072927634
  O   2.17351954981836     -1.56274282459334      0.67741929864346
  O   0.63314584760948     -2.21114262352317     -0.74873169994011
  C   -1.08615658806939      1.48488263390987     -0.82780745447011
  N   -1.39965217284026      2.48656238690526     -1.35417674172004
  N   -1.01301019696197      0.16500799097389      1.23320837904673
  O   -1.79123583837459      1.00247988599036      1.66202960508159
  O   -0.50255503002674     -0.76379868877458      1.84503792619527
