13
Coordinates from ORCA-job run
  C   0.35876817831998     -0.67852478723137     -0.73106890414888
  C   -0.75936303270290      0.22649818412826     -0.21812697099672
  F   0.50751703461900     -0.49028317247310     -2.05727276938323
  H   -1.62304590623213      0.06887201155648     -0.87197625586804
  H   0.15073622628857     -1.72555285997674     -0.51029392380320
  N   1.64811525708745     -0.32524391855526     -0.02699238402748
  O   1.54173188376358     -0.28408608723502      1.19457841147879
  O   2.64498908919136     -0.14021643340766     -0.70404818445637
  C   -0.37494354533912      1.62920158123895     -0.21802344289748
  N   -0.04441199318270      2.75471708426949     -0.27235963891246
  N   -1.22470620545964     -0.22813945493471      1.15693282229948
  O   -1.48262200705601     -1.42216253994399      1.23100991944394
  O   -1.34476497929744      0.61592039256467      2.02864132127164
