13
Coordinates from ORCA-job run
  C   0.36437081067962     -0.68562697741240     -0.72196883077976
  C   -0.75843837865042      0.22191336193032     -0.22406951564239
  F   0.51903748883287     -0.51021807756568     -2.04938763566858
  H   -1.61808561794644      0.05496786563298     -0.88095498333545
  H   0.15762673037780     -1.73100865992522     -0.49210115440883
  N   1.64948449995202     -0.32216250544238     -0.01536615215851
  O   1.53771266081311     -0.27064078708491      1.20522050432323
  O   2.64875532805010     -0.14012469184861     -0.68963255349542
  C   -0.37753183297826      1.62554284221648     -0.23745120086437
  N   -0.04793745342105      2.75080438273078     -0.30120573224931
  N   -1.23029221650969     -0.21837404704530      1.15316553418185
  O   -1.35879803249400      0.63529216616441      2.01427533895429
  O   -1.48490398670566     -1.41236487235045      1.23947638114327
