13
Coordinates from ORCA-job run
  C   0.40473908352895     -0.76440192733030     -0.30891472177770
  C   -0.49333045480962      0.41703784955959      0.02437304078654
  F   -0.21271731221638     -1.52072747174265     -1.24396030426030
  H   -0.74666156185231      0.95069523675650     -0.89399929301168
  H   0.67096211251733     -1.36284034066079      0.56033420930351
  N   1.67576986551908     -0.20948889020790     -0.89808097782808
  O   1.57122186344995      0.30459236255720     -2.00584925988391
  O   2.68245290576985     -0.30277274868301     -0.20320340034630
  C   0.11626663250986      1.29513945169848      1.01213865104559
  N   0.61824987893535      2.00140623716851      1.80500718132437
  N   -1.79015989345728     -0.13768290405636      0.58332819214591
  O   -2.82054514746188      0.25319764459732      0.05318657952696
  O   -1.67624797243290     -0.92315449965661      1.51564010297508
