13
Coordinates from ORCA-job run
  C   0.57666574118752     -0.71377439773551     -0.01733792742114
  C   -0.57062804262183      0.27918760107481     -0.12422130738311
  F   0.20393338412166     -1.86522952612397     -0.61979045871245
  H   -0.85812545658339      0.38898853924356     -1.17179219851447
  H   0.89436027176614     -0.89706962651427      1.00742137032607
  N   1.74546209574072     -0.13214483290061     -0.76928108227019
  O   2.70415808294590      0.22601473574675     -0.09291105553259
  O   1.61152228050446     -0.05308277549513     -1.98529400124654
  C   -0.23252874293061      1.55795458884197      0.48301802933208
  N   0.05271283650259      2.58861827082366      0.96868597484213
  N   -1.76162407349638     -0.31869897831107      0.60034364652746
  O   -2.80535569317415     -0.38432081801923     -0.03360202284939
  O   -1.55955268396263     -0.67644278063096      1.75376103290214
