13
Coordinates from ORCA-job run
  C   0.35816388283016     -0.67693805137157     -0.73285354314192
  C   -0.75506591543024      0.23539476897010     -0.22227033122018
  F   0.51928316894450     -0.48022305819159     -2.05650354356565
  H   -1.61466217144967      0.09089945444322     -0.88448975856769
  H   0.13804151081359     -1.72356333208647     -0.52213624699524
  N   1.64539153936839     -0.34168789243480     -0.01614882413355
  O   2.64919337659394     -0.16152426688627     -0.68413594828046
  O   1.53004884682716     -0.30866682898139      1.20474454561838
  C   -0.35692914592675      1.63423132795960     -0.20918482565706
  N   -0.01359572867917      2.75639375215741     -0.25189226281455
  N   -1.23650338699318     -0.22409258622096      1.14530288636881
  O   -1.35630988657145      0.61480654735815      2.02201581946231
  O   -1.50705609032726     -1.41602983471543      1.20855203292682
