13
Coordinates from ORCA-job run
  C   0.70348196341785     -0.13948130790418     -0.61771800456029
  C   -0.70214413379715      0.16670156581037     -0.11312773035331
  F   1.53306848284935      0.88501864132016     -0.35224704668025
  H   -1.28076566964071     -0.76050593427027     -0.08547616028147
  H   0.69214098916128     -0.34836753302275     -1.68978265354723
  N   1.22699929702858     -1.40859903194608      0.03057093269159
  O   0.49083029412657     -2.37635176568524     -0.11593379569614
  O   2.31595198819505     -1.36461031606392      0.57262333410256
  C   -1.34624331191564      1.16421434732118     -0.95485420827349
  N   -1.84911003385375      1.93053728584876     -1.68854752773428
  N   -0.61503228537143      0.65037478270463      1.32702302826551
  O   -1.17771890671030      1.69403358373247      1.61801764810793
  O   0.00954132651029     -0.09496431784511      2.07045218395888
