13
Coordinates from ORCA-job run
  C   0.31411778146683     -0.67643992216756     -0.75337875308155
  C   -0.76547418068988      0.23886970776750     -0.17976609447244
  F   0.40342446024068     -0.47540683661553     -2.08311844903742
  H   -1.66106415183603      0.10034909947121     -0.79378671614063
  H   0.10219732864488     -1.72299454729456     -0.53457544655395
  N   1.64000912533057     -0.34881213670394     -0.10703446191476
  O   1.59182424020893     -0.31766888251070      1.11831823204747
  O   2.60688492979034     -0.17196491717587     -0.82831730678179
  C   -0.36067821153224      1.63585864676358     -0.18550176907639
  N   -0.01500443360508      2.75653941614067     -0.24473026393045
  N   -1.17268163297130     -0.22193843905277      1.21114041423169
  O   -1.24227354081690      0.61590538390245      2.09435725716179
  O   -1.44228171423079     -1.41329657252446      1.28739335754843
