13
Coordinates from ORCA-job run
  C   0.71195526152019     -0.20066709411361     -0.59320746131634
  C   -0.68008421454185      0.22288065023392     -0.13987755673560
  F   1.61268980631086      0.75736933781261     -0.31274177470515
  H   -1.33594836504477     -0.65206349273225     -0.13864167034336
  H   0.71656898217711     -0.41976582576775     -1.66342474758448
  N   1.11258814984833     -1.50058566014642      0.08028185070516
  O   0.29338393248172     -2.40094442676069     -0.05682754047967
  O   2.19852953601779     -1.54727578770849      0.62788181851640
  C   -1.20335503742869      1.27176478460946     -1.00285545971229
  N   -1.60448830667022      2.08119366066319     -1.75294269202431
  N   -0.61810370973446      0.69889807445171      1.30492348563626
  O   -0.00572535755314     -0.04557926607306      2.05885785217669
  O   -1.19901067738287      1.73477504553138      1.58857389586668
