13
Coordinates from ORCA-job run
  C   0.33298449723766     -0.67237764798722     -0.74976225600826
  C   -0.76763975303910      0.22623232881405     -0.18936496414517
  F   0.43494937306217     -0.47000703621246     -2.07829071779173
  H   -1.65342032135256      0.07556398653595     -0.81464761690477
  H   0.13502696697087     -1.72213387860254     -0.53283243762195
  N   1.64435197989039     -0.32145517697828     -0.08642913353809
  O   2.61098442790393     -0.09798405782787     -0.79508042495487
  O   1.58378014273049     -0.31476056127531      1.13883908264581
  C   -0.37964451161747      1.62816296577540     -0.18943773129188
  N   -0.03764946608508      2.75010847595424     -0.24441994071188
  N   -1.18621226253295     -0.24066397924175      1.19627224616391
  O   -1.43438072844546     -1.43680027769108      1.27053538906582
  O   -1.28513034472290      0.59711485873688      2.07661850509306
