13
Coordinates from ORCA-job run
  C   0.36386215724944     -0.64682100657821     -0.75677450590365
  C   -0.76384267768439      0.22253671913317     -0.20483311520752
  F   0.50019099453937     -0.40907033234334     -2.07650030530051
  H   -1.62954668177527      0.07500473527557     -0.85842093325619
  H   0.17336955547079     -1.70422432778678     -0.57271498948837
  N   1.65298681713808     -0.29949478315638     -0.04924551248557
  O   1.55524074027202     -0.30375620548881      1.17360602821906
  O   2.64186871136215     -0.07520553236143     -0.72606520903910
  C   -0.40034395205460      1.63008192217338     -0.15825146007356
  N   -0.08559615945046      2.76127501554136     -0.17430227074563
  N   -1.21308321215948     -0.28658727910109      1.15607765499108
  O   -1.33999699247370      0.52450996536804      2.05764938195026
  O   -1.45310930043395     -1.48624889067547      1.18977523633969
