13
Coordinates from ORCA-job run
  C   0.35242018361832     -0.66947295771279     -0.74238676410228
  C   -0.75970261902608      0.23220472096175     -0.21069135279018
  F   0.49473460008360     -0.46259978523590     -2.06663785425654
  H   -1.62678431260532      0.08687271329674     -0.86293003110116
  H   0.14172022336827     -1.71890323701349     -0.53591114538090
  N   1.64694881405805     -0.33116036792690     -0.04036978130243
  O   2.64050297724872     -0.13954086614886     -0.72035708322306
  O   1.54765694605987     -0.30816220260675      1.18214377108251
  C   -0.36999727657420      1.63338073227591     -0.19309708674388
  N   -0.03343643953127      2.75771492491464     -0.23224399993000
  N   -1.21989642283341     -0.23978115814550      1.15959616146348
  O   -1.33361994304179      0.59245180689342      2.04352202402642
  O   -1.48154673082476     -1.43400432355225      1.21836314225803
