13

C	0.0	0.0	0.0
C	-0.496323	-0.049782	-1.43219
F	1.394914	0.0	0.0
H	-0.220542	0.848386	-1.985879
H	-0.324323	-0.910447	0.501697
H	-1.593678	-0.158204	-1.293068
N	-0.53879	1.115013	0.709307
H	-1.560145	0.87333	0.664305
H	-0.412296	1.946402	0.135872
N	0.059064	-1.192342	-2.187257
O	0.551967	-0.976435	-3.299278
O	-0.011196	-2.308462	-1.671129
F	-2.805816	0.0	0.0
