13

C	0.0	0.0	0.0
C	-0.50393	-0.053564	-1.422661
F	1.381932	0.0	0.0
H	-1.605638	-0.106777	-1.299075
H	-0.300667	-0.919302	0.511153
H	-0.151025	0.809368	-1.98273
N	-0.518342	1.199619	0.585562
H	-0.260085	1.196835	1.567886
H	-1.54549	1.002825	0.520094
N	-0.002056	-1.253673	-2.123336
O	-0.151647	-2.347547	-1.577729
O	0.524671	-1.105064	-3.23038
F	-2.799703	0.0	0.0
