17

C	0.0	0.0	0.0
C	-0.286363	-0.079266	-1.532463
Br	1.979874	0.0	0.0
H	0.418771	0.586606	-2.031818
C	-0.401917	1.345112	0.598334
H	-0.006607	2.190597	0.032961
H	-0.018486	1.389919	1.622259
H	-1.495738	1.331716	0.591936
N	-0.551885	-1.144104	0.635439
H	-1.588392	-0.928851	0.48104
H	-0.372266	-1.064398	1.632773
N	-1.619153	0.452895	-2.055531
O	-2.363584	-0.315302	-2.640102
O	-1.728939	1.671236	-1.999006
C	-0.075722	-1.434232	-2.038664
N	0.110632	-2.490915	-2.514678
F	-2.759547	0.0	0.0
