17

C	0.0	0.0	0.0
C	-0.595317	0.042629	-1.41851
Br	1.95404	0.0	0.0
H	-1.701931	0.040154	-1.169394
C	-0.424325	1.285907	0.71588
H	-1.51853	1.266446	0.698427
H	-0.02477	2.181978	0.235301
H	-0.055472	1.250054	1.74461
N	-0.503541	-1.202991	0.606238
H	-1.532238	-1.056979	0.5461
H	-0.238115	-1.193392	1.586242
N	-0.272115	-1.195022	-2.201147
O	-1.078951	-2.117941	-2.140459
O	0.774568	-1.203087	-2.853177
C	-0.190687	1.207544	-2.185685
N	0.083165	2.173711	-2.796291
F	-2.870827	0.0	0.0
