17

C	0.0	0.0	0.0
C	-0.530275	-0.118484	-1.427655
Br	2.008408	0.0	0.0
H	-0.060064	-0.991413	-1.887186
C	-0.396856	1.235832	0.78397
H	-0.01157	1.142965	1.804797
H	-1.485724	1.264324	0.772184
H	0.02961	2.130448	0.336839
N	-0.405643	-1.192896	0.647368
H	-0.269023	-1.147944	1.64397
H	0.047422	-2.011424	0.266903
N	-0.077421	1.018149	-2.298473
O	-0.465825	2.148508	-2.020906
O	0.643331	0.737791	-3.25512
C	-2.025049	-0.284162	-1.615842
N	-2.694188	-0.5717	-2.560066
F	-2.723075	0.0	0.0
