17

C	0.0	0.0	0.0
C	-0.569704	-0.022246	-1.445642
Br	1.96804	0.0	0.0
H	-1.676999	-0.086092	-1.182436
C	-0.418714	1.327885	0.629695
H	-1.510946	1.340108	0.587307
H	-0.078927	1.319521	1.666326
H	0.015918	2.182501	0.11053
N	-0.49867	-1.057831	0.824735
H	-1.523375	-0.885441	0.774573
H	-0.323191	-1.949301	0.374785
N	-0.14148	-1.229165	-2.211093
O	0.555342	-1.08009	-3.214805
O	-0.509916	-2.320495	-1.776021
C	-0.262354	1.165506	-2.222765
N	-0.066571	2.159882	-2.81807
F	-2.841889	0.0	0.0
