17

C	0.0	0.0	0.0
C	-0.370259	0.202641	-1.498244
Br	1.956109	0.0	0.0
H	0.013466	-0.680072	-2.011576
C	-0.426026	1.129533	0.93263
H	-0.000847	2.090336	0.64711
H	-1.517934	1.13296	0.882114
H	-0.092679	0.878602	1.944788
N	-0.532783	-1.290369	0.332557
H	-0.282585	-1.489019	1.29799
H	-1.561511	-1.072915	0.299458
N	0.368979	1.357188	-2.13648
O	1.127454	1.085663	-3.063705
O	0.143855	2.485371	-1.713269
C	-1.774468	0.398249	-1.915905
N	-2.564297	0.632011	-2.76274
F	-2.775663	0.0	0.0
