13
Coordinates from ORCA-job run
  C   0.69322534261180     -0.77982135491688      0.57750154751827
  C   -0.47437700009044      0.19182643530516      0.32359535391351
  Br  1.60474161234175     -0.35856781083826      2.24327042274858
  H   -1.03777314191654      0.26629612912992      1.26378029823313
  H   0.31670830744224     -1.79832005282557      0.69800333589188
  C   1.63788098225244     -0.74506302012286     -0.53015662938069
  N   2.38842398984503     -0.69205409492156     -1.43190706504065
  N   -1.23491112379262     -0.38022591859610     -0.78599943976418
  H   -1.71529173243952     -1.22856382088880     -0.50540856042703
  H   -1.93442621612912      0.28564349806204     -1.09222868012941
  N   0.04192837922626      1.49740450728988      0.02025091460831
  H   -0.65594698756878      2.21494033470973      0.15901754536400
  H   0.36981758821751      1.52750516861331     -0.93871904353571
