13
Coordinates from ORCA-job run
  C   0.69817571559941     -0.83841214793135      0.38951987598194
  C   -0.41414661902015     -0.02522477463089     -0.29161784727037
  Br  0.83833937845167     -0.45443873402861      2.29556777892512
  H   -0.43562164984213     -0.40826731045510     -1.32586824483082
  H   0.43630963659424     -1.89471155388174      0.31696726955302
  C   1.98550378935676     -0.59220915667838     -0.24651629785347
  N   2.98987371201265     -0.36029536457163     -0.81035336273961
  N   -0.11786349453468      1.39487860448616     -0.19911450851670
  H   0.76383583614244      1.62118269007851     -0.64784081431915
  H   -0.84668527146181      1.91973003667062     -0.66752007809174
  N   -1.67822994723377     -0.37738474108941      0.30758634859738
  H   -2.44155181954827     -0.11416355081243     -0.30282457067733
  H   -1.77793926651637      0.12831600284426      1.18101445124174
