13
Coordinates from ORCA-job run
  C   0.66195008689762     -0.83936193036319      0.52868195247151
  C   -0.46845590231609      0.18834671489605      0.33364339867210
  Br  1.58045043695106     -0.55572599740749      2.21971614625080
  H   -1.03286854633529      0.22473777775709      1.27539284678751
  H   0.24829800814750     -1.84897347380783      0.58473345841751
  C   1.61246148097648     -0.76960251168898     -0.57220153635002
  N   2.36863082527372     -0.68731673815467     -1.46693793975671
  N   -1.24444473369346     -0.28496044137962     -0.81135219528104
  H   -1.91950545206001      0.42312786308269     -1.07503235884028
  H   -1.75528086463735     -1.13202645588080     -0.58604050825232
  N   0.09640534541591      1.49043438067948      0.11310772677473
  H   -0.57417110822556      2.22328223107664      0.29797010344066
  H   0.42553042360547      1.56903858119062     -0.84268109433446
