13
Coordinates from ORCA-job run
  C   0.81012353180114     -0.92107653735040     -0.06801488650735
  C   -0.48513653391161     -0.16250597449822     -0.40587714466321
  Br  0.46700714610503     -2.69434578927968      0.64776550245463
  H   -1.06149099137245     -0.81047164734692     -1.07236592729085
  H   1.37979784042729     -1.05916969953293     -0.98674059430104
  C   1.59907737729658     -0.14375390463366      0.87951023101844
  N   2.17618249031170      0.55355273216696      1.62896921092673
  N   -0.06971762974246      1.00065992225081     -1.18541061069160
  H   -0.87551493898956      1.41904767683938     -1.63495118443554
  H   0.33909079081290      1.70169990630510     -0.57549530522201
  N   -1.26549895941524      0.03436445121591      0.79654429216527
  H   -2.19211445471604      0.37032287407725      0.56783767752251
  H   -0.82280566860728      0.71167598978640      1.40822873902402
