13
Coordinates from ORCA-job run
  C   0.79473752570253     -0.82298946910051     -0.10114160961931
  C   -0.56561622839116     -0.14710620702672     -0.39463295266217
  Br  0.60412384255401     -2.67671220818690      0.46192750280559
  H   -1.08500724753836     -0.79387532481662     -1.10876803787048
  H   1.38628381680331     -0.85409515117322     -1.01829451218020
  C   1.51992553629046     -0.06233410468887      0.90844599280832
  N   2.04219835555648      0.61708700199095      1.71273861416002
  N   -0.40031838151101      1.15546003864130     -1.02488899068646
  H   0.12704848095915      1.78373344360330     -0.42773384663264
  H   0.06798891870645      1.08785841467010     -1.92153180857256
  N   -1.34289537303863     -0.09638948266599      0.81553080627211
  H   -0.89829025406390      0.50837825407638      1.49881631825041
  H   -2.24917899202932      0.30098479467681      0.60053252392735
