13
Coordinates from ORCA-job run
  C   0.60278305092757     -0.81491716458924      0.30166502881499
  C   -0.32679291201392      0.41462515375406      0.13202581984118
  Br  0.55168265061664     -1.47933892882337      2.13540630969492
  H   -0.00167143557653      1.17186968498298      0.86068585047016
  H   0.23446178950041     -1.61863312542179     -0.33918040005197
  C   1.97712399069014     -0.49010433482966     -0.04959106545115
  N   3.06346973360738     -0.16168729716436     -0.35459454678458
  N   -1.72175759696254      0.14965944640725      0.37189164258556
  H   -1.88647247152873     -0.11233600255478      1.33466655065804
  H   -2.03923308776119     -0.59653254284841     -0.23745816931966
  N   -0.21035126606911      0.80943027212929     -1.25960793617461
  H   0.69059225285323      1.23229339604481     -1.44918128854592
  H   -0.93283469828336      1.49467144291323     -1.44672779573696
