13
Coordinates from ORCA-job run
  C   0.64303544839280     -0.80880295406171      0.28943156837307
  C   -0.39282966708895      0.34039929253725      0.28254319346921
  Br  0.70329115054728     -1.74323919789257      1.99731610429530
  H   -0.17387317789414      0.97930221652525      1.14344671705265
  H   0.36169172822226     -1.55802140518193     -0.45784050090648
  C   1.97432715045311     -0.30437971971447     -0.02001832961318
  N   3.02543361475812      0.15119438864981     -0.28062063781289
  N   -1.70236887691972     -0.23493810930679      0.46916635926806
  H   -1.95055788592786     -0.80245464214813     -0.33501203648809
  H   -2.37649668048629      0.51946840332172      0.52251501871114
  N   -0.29869211323716      1.17267384269745     -0.90766532532095
  H   -0.39722960317281      0.61767031078896     -1.75097075253753
  H   0.58326891235335      1.67012757378516     -0.95229137849032
