13
Coordinates from ORCA-job run
  C   0.64069403719868     -0.70755500954016      0.60009658447149
  C   -0.57885397671827      0.19011004519024      0.26204118015604
  Br  1.53383317102066     -0.05430856782702      2.20939984528009
  H   -1.16865874897624      0.27393867187282      1.18644277425054
  H   0.31677435808947     -1.72378867620875      0.83863188976484
  C   1.58476033050217     -0.73515441522674     -0.50629792629812
  N   2.33811320881700     -0.71178095616713     -1.40721105616961
  N   -1.25790781057678     -0.46682718196834     -0.83805686364210
  H   -1.94636839536308      0.17573676205171     -1.21143667575544
  H   -1.73227984748401     -1.30684750990071     -0.53051029753252
  N   -0.26278487248639      1.52297379149102     -0.17534081089043
  H   0.18614249989099      2.05544916856518      0.55796930782862
  H   0.34653604608580      1.48705387766786     -0.98572795146339
