13
Coordinates from ORCA-job run
  C   0.68321869627319     -0.87625151081673      0.08264866800228
  C   -0.29398503303391      0.30675510448535      0.17418405768240
  Br  0.41417762085429     -2.15754275201268      1.53952196957516
  H   -0.07767071638661      0.83686203273820      1.11324697685374
  H   0.48493931630337     -1.42511331871867     -0.84108861897823
  C   2.06415392686332     -0.41733068790972      0.11668143229785
  N   3.18076613745557     -0.05791131859176      0.17062573258313
  N   -1.65454245209340     -0.19788252149099      0.06339496342465
  H   -2.29971664995373      0.58036811801997      0.13624440986575
  H   -1.86616294752845     -0.84605024405285      0.81313694914238
  N   0.03100659755118      1.18625771816274     -0.92520714854618
  H   -0.16038283525255      2.15350956802982     -0.70507306451895
  H   -0.50680166105227      0.91332981215733     -1.73931632738398
