13
Coordinates from ORCA-job run
  C   0.62293908684637     -0.77336883894823      0.38791419194241
  C   -0.36075563067895      0.08197379598990     -0.44273154147533
  Br  0.66916343409569     -0.19370880900107      2.26052798580610
  H   -0.30625749390854     -0.34029811139502     -1.45422515508417
  H   0.26656064778994     -1.80489919704018      0.42618996261549
  C   1.97116939183118     -0.74717383597725     -0.15931021344237
  N   3.04787577150934     -0.76663591244414     -0.62844253230718
  N   0.13780277340452      1.43208930304953     -0.50474856766899
  H   0.13273723732528      1.84962932284545      0.41913924006969
  H   -0.48217628213144      1.97685612000632     -1.09179130266076
  N   -1.74729044777278     -0.01227725387378     -0.02389834657284
  H   -1.84194957397009      0.24969565526517      0.95099669938033
  H   -2.10981891434053     -0.95188223847671     -0.14062042060237
