13
Coordinates from ORCA-job run
  C   0.77391100066797     -0.95303390347379      0.04505045439640
  C   -0.47880080542388     -0.18179693803460     -0.40499786987451
  Br  0.33789234509402     -2.63706365151855      0.91052559487027
  H   -1.06062491036921     -0.86729722287150     -1.02764200933858
  H   1.36455182492957     -1.19848022295808     -0.83722723230023
  C   1.56542300997968     -0.12030758356351      0.94221212743058
  N   2.14765286435626      0.62219688755479      1.64261729720169
  N   0.00664687043343      0.88662222872928     -1.27453840902264
  H   0.42261366066848      1.62726822610352     -0.71878110182549
  H   -0.76690716673169      1.28890280792018     -1.79040480559873
  N   -1.28633205033081      0.15626452071476      0.74717034162185
  H   -0.83447974275618      0.87035092836414      1.30822719405960
  H   -2.19054690051765      0.50537392303337      0.45678841837979
