13
Coordinates from ORCA-job run
  C   0.69996031517776     -0.75344259520517      0.58979211491190
  C   -0.52762011884211      0.11716395050436      0.28855355392483
  Br  1.70507279005838     -0.07867920665469      2.12650679636895
  H   -1.14918945047323      0.09644457894160      1.19624193900237
  H   0.35059333047827     -1.74664022659221      0.87177743246943
  C   1.57592333111843     -0.85476254519962     -0.56929625587887
  N   2.25502618953192     -0.96152262392675     -1.52147126265027
  N   -1.25770295677546     -0.56555881483299     -0.75723093514844
  H   -2.23225069972809     -0.29396350683630     -0.75504923316199
  H   -0.85420870760745     -0.31663134898157     -1.65448495847006
  N   -0.09664675064117      1.44364155319141     -0.11775834836232
  H   0.43989189205873      1.89510318856561      0.61420760383328
  H   -0.90884916435598      2.01784759702631     -0.30978844683880
