13
Coordinates from ORCA-job run
  C   0.66242642987782     -0.78640855705614      0.39488796649350
  C   -0.45141089008221     -0.05358891949374     -0.38993195338313
  Br  0.74600884310401     -0.18260352961555      2.25658921771039
  H   -0.39613706291411     -0.47793417286035     -1.40026996885787
  H   0.43418969459321     -1.85257867914690      0.44026521241744
  C   1.95814736185787     -0.56146415297535     -0.22688454624671
  N   2.97023339594437     -0.35068988930769     -0.78526216845918
  N   -0.28531106450299      1.37851836682707     -0.52744721833090
  H   -0.20080966122757      1.81771762930814      0.38238070394007
  H   0.53747982096180      1.60768651458414     -1.07361778058973
  N   -1.72172794988398     -0.44495465103424      0.17688614131255
  H   -2.45342338151430     -0.00616988071372     -0.37030617249052
  H   -1.79966553621394     -0.08653007851569      1.12271056648411
