13
Coordinates from ORCA-job run
  C   0.69483524226724     -0.80565661702330     -0.18923843070202
  C   -0.60590196830044      0.01899367781519     -0.46660069961205
  Br  0.28137206219715     -2.64655425315456      0.32287403377665
  H   -1.15664842353448     -0.53552792618498     -1.23351280662019
  H   1.29468035114327     -0.88771007205419     -1.09897804950003
  C   1.47055627469041     -0.16178732557008      0.85984229252606
  N   2.02603730338597      0.43139725390133      1.70899568327492
  N   -0.27478849555974      1.32691850480408     -0.98844007060532
  H   0.37129493555526      1.26817144833363     -1.76543322666889
  H   0.13211850231873      1.91547101663480     -0.27070246349086
  N   -1.46394163190411      0.17294114561847      0.67781568487588
  H   -0.97481809271692      0.62746704989986      1.44148804379629
  H   -1.79479605954232     -0.72612390302024      1.00189000894956
