13
Coordinates from ORCA-job run
  C   0.71208492418633     -0.84962902530068     -0.07632146780521
  C   -0.54855819409663     -0.01286350018394     -0.38247303511736
  Br  0.24943350189933     -2.61188886695396      0.64363096122214
  H   -1.13866661783380     -0.59992718207341     -1.10393125175662
  H   1.24182066168096     -1.05774343039356     -1.00878101132340
  C   1.60220466983808     -0.15437811634576      0.84258697796496
  N   2.34053871002460      0.43619179909652      1.53953025786720
  N   -0.23216650787628      1.25364439453309     -0.99948760452561
  H   0.33852708675041      1.81213606944976     -0.37438372766509
  H   0.23792265376346      1.14058339838005     -1.88816458397432
  N   -1.22475584276102      0.29086195482191      0.85667876221711
  H   -1.57424212406613     -0.54892643951542      1.29997156898994
  H   -2.00414292150931      0.90393894448540      0.65214415390626
