13
Coordinates from ORCA-job run
  C   0.66919469863593     -0.85065968669086      0.50150413736732
  C   -0.47321568381868      0.16920379226510      0.33763711218034
  Br  1.57267994276500     -0.62074933159404      2.20866144903514
  H   -1.04482492561358      0.16149630784434      1.27572628813074
  H   0.26790743764559     -1.86668003963807      0.51591757827685
  C   1.62573776019680     -0.72697837261618     -0.58949171625105
  N   2.38644033967739     -0.60097896000736     -1.47528029422441
  N   -1.23456062250950     -0.26963421799899     -0.83062616647714
  H   -1.73886628653931     -1.12919954744940     -0.64093692501372
  H   -1.91404068937297      0.44098423500642     -1.07507811911537
  N   0.07581613189695      1.48619947600346      0.17252588270599
  H   -0.60789197588772      2.20191786847878      0.37618109483084
  H   0.41462387292409      1.60507847639681     -0.77574032144554
