13
Coordinates from ORCA-job run
  C   0.54548294251733     -0.63027661986467      0.73578780895828
  C   -0.53993134316902      0.33317879556621      0.20978965279136
  Br  1.60379907276085      0.18880811024976      2.16640548705970
  H   -1.16783987826556      0.59054099151680      1.07750333084029
  H   0.06647949822893     -1.49468725987614      1.20131212169267
  C   1.42142856248745     -1.08095192819697     -0.33661876675487
  N   2.08473564775848     -1.47792636096625     -1.22089014225916
  N   -1.39023332977254     -0.28300720137242     -0.78105573995392
  H   -0.84058688949776     -0.56647599847607     -1.58482282866131
  H   -1.89665772957065     -1.07698219896216     -0.41119300227133
  N   0.09926892580824      1.45511060010455     -0.43641857627579
  H   -0.61963285102232      2.03927269675862     -0.84511457044209
  H   0.63368737173657      2.00439637351873      0.22431522527618
