13
Coordinates from ORCA-job run
  C   0.70460754829822     -0.83184288161625      0.36030239205659
  C   -0.34636055089575     -0.00657010244220     -0.39073796397662
  Br  0.76408322449137     -0.34205760436341      2.25992764963233
  H   -0.28588159940512     -0.35053227763637     -1.43020839389475
  H   0.40747320660489     -1.88097698048079      0.34743847693626
  C   2.03243820173404     -0.67182893949124     -0.21194536698382
  N   3.09773811592808     -0.58641777603463     -0.69881122988168
  N   0.04646885585128      1.38819449510315     -0.38697066242521
  H   -0.06602643389040      1.78991729103194      0.53636294837686
  H   -0.51781652977143      1.91824856706314     -1.03866958139613
  N   -1.65997990516902     -0.39464108462961      0.10090364281513
  H   -1.79766436454091     -0.04088533545214      1.04118499261708
  H   -2.37807976923524      0.00739262894842     -0.48977690387604
