13
Coordinates from ORCA-job run
  C   0.69621495517634     -0.86586558031344      0.32959848235207
  C   -0.41509303384794     -0.00462414106951     -0.29173541289564
  Br  0.83824289849461     -0.61625081260099      2.25782361301721
  H   -0.44076560321883     -0.31671133921709     -1.34951617510225
  H   0.43189929424592     -1.91388909268989      0.18388559211614
  C   1.98382483229351     -0.57804818047803     -0.28761634087041
  N   2.98789632639019     -0.30687724094191     -0.83440241938058
  N   -0.11350383759551      1.40507337292984     -0.10426931862369
  H   0.77009046174827      1.65707035785744     -0.53509992791572
  H   -0.83910323526632      1.96250062928159     -0.53868413908999
  N   -1.67874555265644     -0.39165326268881      0.28636347060423
  H   -1.77699739158508      0.05950272531321      1.18929409624381
  H   -2.44296011417873     -0.09222743538242     -0.30564152045517
