13
Coordinates from ORCA-job run
  C   0.67115638122996     -0.84861986555935      0.58208373510504
  C   -0.48780775292347      0.14786838628122      0.40808929902715
  Br  1.75851962766919     -0.45765034695285      2.14388760445539
  H   -1.04213825934208      0.14997405000868      1.35089247458070
  H   0.25235673198033     -1.84327597122757      0.73282010749175
  C   1.50070034663161     -0.84876408735829     -0.61660867114430
  N   2.10441919268076     -0.79663005761359     -1.62343073892597
  N   -1.36141410315089     -0.43549440898109     -0.60662083670512
  H   -0.95253565386769     -0.31892600714765     -1.52839480370681
  H   -2.25559013429324      0.04073708548301     -0.60608346266824
  N   0.03834163160446      1.48075331847602      0.20633501727264
  H   -0.70271609548080      2.16732526647802      0.26339517048664
  H   0.47770808726186      1.56170263811345     -0.70436489526888
