13
Coordinates from ORCA-job run
  C   0.61313321440624     -0.83860105075378      0.31078117515655
  C   -0.43041649549004      0.11070045628962     -0.33897192582286
  Br  0.70959300970811     -0.62765595277417      2.24451452687703
  H   -0.44920676795198     -0.20240146990085     -1.39806424995550
  H   0.30560512923792     -1.87300415758987      0.13998755296188
  C   1.93192808945373     -0.62725701977097     -0.26895615292864
  N   2.96149241166164     -0.41044281186539     -0.79293637156541
  N   -0.02860180327155      1.48060315069585     -0.12703862910348
  H   0.84154872269444      1.69198623358070     -0.60034863843001
  H   -0.75561300819504      2.08164973776042     -0.49439217622351
  N   -1.77248233855702     -0.01946894140549      0.16470515297771
  H   -2.14498775046308     -0.94653495694899      0.00418283919866
  H   -1.78199241323337      0.17942678268292      1.15853689685759
