13
Coordinates from ORCA-job run
  C   0.59102715925654     -0.71958422100806      0.67144645364547
  C   -0.51309937733100      0.31901077627949      0.36421862218042
  Br  1.68052287738968     -0.22334327617402      2.20652603191726
  H   -1.07006768658207      0.46345163126304      1.29530469311093
  H   0.12597021443233     -1.67108546727827      0.93663889916044
  C   1.43360681771208     -0.91222389198979     -0.50210397525971
  N   2.05136273445718     -1.01956383237022     -1.49610312872672
  N   -1.45336852581188     -0.16750692205855     -0.63611109901991
  H   -0.97999986020564     -0.37559843841768     -1.50905100486353
  H   -1.94398405313643     -0.99836148382705     -0.32506317535741
  N   0.09764586855519      1.57193801067210      0.00534385087559
  H   -0.63433312676595      2.25472227726455     -0.14783958702397
  H   0.61471695802999      1.47914483764448     -0.86320658063886
