13
Coordinates from ORCA-job run
  C   0.66482814864182     -0.80780784725592      0.34417143278582
  C   -0.45236147907680     -0.03004579023983     -0.39118721068888
  Br  0.75339560892186     -0.31947306826878      2.23862732629555
  H   -0.39934410160094     -0.39151786761841     -1.42582271778368
  H   0.43740895069418     -1.87492559937529      0.32313669736252
  C   1.95846046925823     -0.54425249314910     -0.26665768151663
  N   2.96867655103414     -0.29910674912142     -0.81424428770562
  N   -0.28909171543165      1.40807698662187     -0.44115064485854
  H   0.53160001673679      1.67181993240165     -0.97463743680829
  H   -0.20246684573229      1.79081285761044      0.49354099242104
  N   -1.72039225862680     -0.45769185027431      0.15400071299733
  H   -1.79538504101871     -0.16164051170252      1.12142547869375
  H   -2.45432830379983      0.01475200037162     -0.36120266119438
