13
Coordinates from ORCA-job run
  C   0.51428710771542     -0.63591575578636      0.70514537021730
  C   -0.63388226831248      0.33356648076208      0.26885949100944
  Br  1.56997447869126      0.11519938783658      2.16961905653796
  H   -1.21985021551278      0.53217574440074      1.17230120925978
  H   0.09695469932368     -1.56562472565967      1.09936768870784
  C   1.37693284854945     -0.92048472600997     -0.43117668348255
  N   2.01332274396735     -1.09360585922948     -1.40401099854616
  N   -1.49013172724520     -0.30295950805529     -0.70804101967676
  H   -1.79468368919531     -1.21797029800662     -0.40053438613094
  H   -1.01915877458081     -0.39962943636343     -1.60020108256931
  N   -0.17771636321677      1.59312542560387     -0.25565642077052
  H   0.33972211711501      2.10721515050896      0.44486276571266
  H   0.42422904270116      1.45590811999860     -1.06053499026874
