13
Coordinates from ORCA-job run
  C   0.57830052263273     -0.80220873455617      0.28866656669469
  C   -0.48400118536467      0.08799814528733     -0.44153757117570
  Br  0.61397755452021     -0.43190007233098      2.20703533870530
  H   -0.41980557880632     -0.22968547228996     -1.49078349018544
  H   0.31672911138045     -1.86009165247945      0.19953932145553
  C   1.90185886272349     -0.57710335408761     -0.27092828543617
  N   2.93281323964248     -0.34670785186468     -0.78608435739897
  N   -0.19598188604535      1.49705927602827     -0.39382042712681
  H   0.00269414007639      1.79630383384500      0.55370547770464
  H   0.59535029922545      1.72990170777281     -0.97844743113635
  N   -1.83238619039847     -0.14166931015697      0.02307538494631
  H   -1.99764439522574     -1.11947510227890      0.22803481036764
  H   -2.01090449436064      0.39757858711129      0.86054466258533
