14

C	-0.648971	-0.118963	-1.522658
C	0.117377	-0.190326	-0.177355
Cl	0.255405	1.040886	-2.652174
H	1.190975	-0.249892	-0.384076
H	-0.205089	-1.131388	0.286946
C	-0.632392	-1.405539	-2.225789
N	-0.623067	-2.455286	-2.753631
N	-1.973261	0.300307	-1.262304
H	-2.44389	0.60603	-2.104043
H	-1.8632	1.065109	-0.589848
N	-0.186764	0.978087	0.611005
H	-0.561995	0.683845	1.505706
H	0.765403	1.443972	0.838447
H	2.163239	1.764836	1.161514
