15
Coordinates from ORCA-job run
  C   -0.46467470871518      0.15938297055777     -0.27099866098699
  C   0.91014435049041      0.52974145007051      0.34462020792465
  Br  -1.11306096477159      1.89946974434433     -1.10419216145830
  H   0.78135049486566      1.41852914104934      0.97158218379638
  N   -0.30057041243421     -0.88208670342901     -1.20077581988260
  H   -1.18482166953117     -1.23030108616720     -1.54772181317346
  H   0.30028873006388     -0.63781773535805     -1.97914942726635
  C   -1.47204675803335     -0.20906810865478      0.80143253498121
  H   -1.55621770879222      0.58190601855743      1.54740093046675
  H   -1.16185939923260     -1.13933296096552      1.28304939794136
  H   -2.45558960186613     -0.35338214641600      0.35056824229435
  C   1.89197186281757      0.83256495817543     -0.70107671273702
  N   2.66178178027826      1.04340221906861     -1.56234446180543
  C   1.39838333542159     -0.57283194812168      1.18286736879362
  N   1.76392066943908     -1.44017581271118      1.88473819111185
