15
Coordinates from ORCA-job run
  C   -0.37477700190613      0.02655119676321     -0.37084767575523
  C   1.03079954370529     -0.06238319710927      0.28291932336101
  Br  -0.37061674238572      1.52334655471126     -1.62616054747897
  H   1.00975041140751     -0.95082600629135      0.93116225004275
  N   -0.54064144564748     -1.19116654413814     -1.13979131967664
  H   -1.26276195269318     -1.07449966231187     -1.84027065705259
  H   -0.82133509945437     -1.94587723383032     -0.52000609969810
  C   -1.44400677450631      0.28014409156866      0.68301259385061
  H   -2.42525027008476      0.30415844353870      0.20615522588201
  H   -1.28961042834237      1.22210833395902      1.21112028653550
  H   -1.43214043234035     -0.53894758103390      1.41177165495479
  C   1.32925748665052      1.09638373035841      1.12863085984196
  N   1.54292808041798      2.01420478941975      1.82899182757320
  C   2.08624755820708     -0.26803404201367     -0.71226078086937
  N   2.96315706697229     -0.43416287359050     -1.47442694151094
