15
Coordinates from ORCA-job run
  C   -0.46201435543544      0.23043909027480     -0.30825889856926
  C   0.91303855300076      0.56716572845793      0.33216023022438
  Br  -1.10998571236496      1.88628728979895     -1.13375620563874
  H   0.76644629672941      1.35393671287788      1.08130001346080
  N   -0.23587554820304     -0.72303433853299     -1.36740192487833
  H   -1.07139850823008     -0.83697237045991     -1.92904406637312
  H   0.01034215283386     -1.62551364956740     -0.97022068717352
  C   -1.46480476217581     -0.18552533745169      0.76131019096762
  H   -1.57995223365371      0.58003329068098      1.53206936389903
  H   -1.13386126623541     -1.11724862484780      1.23028800791721
  H   -2.43848035675070     -0.35793120058378      0.29952421907805
  C   1.88502631003450      1.03868414471136     -0.65828318388352
  N   2.69049237119902      1.43197649140045     -1.41595136154531
  C   1.43319914302427     -0.62901733977927      1.00764577570662
  N   1.79782791622732     -1.61127988697953      1.53861852680809
