15
Coordinates from ORCA-job run
  C   -0.40131124441980     -0.00896903096855     -0.34338843324373
  C   1.04842360827770     -0.03733255789004      0.21184862233761
  Br  -0.49497664330545      1.35778067662578     -1.73600969530935
  H   1.07823327586945     -0.85847802057156      0.94332061327538
  N   -0.61709293801138     -1.29565294300482     -0.97537353262445
  H   -1.38718860150172     -1.24608623964291     -1.63118786975817
  H   -0.85002515334684     -1.98513121720655     -0.26627274655378
  C   -1.39216559489841      0.34940742119278      0.75556118241240
  H   -2.40540822112202      0.33015185928590      0.35117884934945
  H   -1.32427267956571     -0.39514450076086      1.55745438278727
  H   -1.20359906886483      1.33762402608813      1.17705252292540
  C   1.40311452809336      1.19671553885705      0.91750330948948
  N   1.66706749940053      2.17658390873668      1.50819447932414
  C   2.02998929112481     -0.34107794294245     -0.83246033776966
  N   2.85021194227028     -0.57939097779859     -1.63742134664198
