15
Coordinates from ORCA-job run
  C   -0.46590046966058      0.16210591753257     -0.26729329976580
  C   0.91356526383423      0.52471469095140      0.34201071010167
  Br  -1.11093418667563      1.90700215014603     -1.09331354490149
  H   0.79156637477112      1.40945847098333      0.97598248158635
  N   -0.31094080604179     -0.87796855814752     -1.19998185398312
  H   -1.19777949665653     -1.22272028950101     -1.54341403969348
  H   0.28810548917400     -0.63560883956431     -1.98037734946958
  C   -1.46957856375986     -0.20387203928917      0.80932217022625
  H   -2.45545210934243     -0.34497150835771      0.36260454512141
  H   -1.16040529333025     -1.13532589827657      1.28932897156992
  H   -1.54813534353847      0.58721799416687      1.55573795738536
  C   1.89018056322591      0.83136355494080     -0.70770708961157
  N   2.65838018530015      1.04585566135395     -1.56955084156911
  C   1.40457559039684     -0.58583264936874      1.16849636921797
  N   1.77375280230330     -1.46141865756993      1.85815481378524
