15
Coordinates from ORCA-job run
  C   -0.40275145366314     -0.01353265225606     -0.30970950529452
  C   0.98968225646566     -0.08088514466425      0.36868315373130
  Br  -0.32436720672473      1.50783169173374     -1.62984381973742
  H   0.91448833612057     -0.88661697448909      1.11163007553608
  N   -0.65041713082671     -1.26832381892952     -0.91670315590089
  H   0.00052054010185     -1.47261192983596     -1.66684183253389
  H   -1.59409626534279     -1.32068868977131     -1.27967793922741
  C   -1.48137760967150      0.32367108928026      0.70203566351290
  H   -1.29000769014355      1.28399977361626      1.18008503780243
  H   -1.51931579178188     -0.46612383003435      1.45798552939543
  H   -2.45135479585294      0.38003580276444      0.20416308928539
  C   1.33927983577562      1.15723256561386      1.06685682585069
  N   1.60167080810910      2.13098196721809      1.66786476122356
  C   2.03165501829906     -0.46008365884460     -0.58906134176377
  N   2.83639114913539     -0.81388619140150     -1.36746654187989
