15
Coordinates from ORCA-job run
  C   -0.45485999034989      0.16541003935026     -0.28425963943698
  C   0.91626795107048      0.51306072196414      0.35207977054176
  Br  -1.04226398228924      1.90481329159416     -1.16300557967859
  H   0.79753047443212      1.41749092912169      0.95836014330442
  N   -0.29919560631768     -0.89747948835979     -1.19106603129173
  H   -1.18520685329715     -1.22974061565622     -1.54891542769070
  H   0.32231522178199     -0.68277251004305     -1.96189211677877
  C   -1.49200068597547     -0.15722388421369      0.77450920306750
  H   -2.47127247759770     -0.27942208842636      0.30827227537669
  H   -1.56599266196297      0.64664211559871      1.50753337985615
  H   -1.21766528826143     -1.08870315750634      1.27476428399349
  C   1.92724043194088      0.77001908163134     -0.67794895288854
  N   2.72239572539801      0.94586576773827     -1.52396607703136
  C   1.35824450032292     -0.58402448722796      1.22265349241796
  N   1.68546324110516     -1.44393571556514      1.95188127623869
