15
Coordinates from ORCA-job run
  C   -0.42040608281428     -0.04115713725433     -0.28220940677682
  C   1.01093387696057     -0.04731598708983      0.31326766948784
  Br  -0.42222014174379      1.33950760264567     -1.75138330345214
  H   0.98359127806134     -0.77438520549428      1.13632466720817
  N   -0.70398051640834     -1.34918539940304     -0.74344294818033
  H   -1.66763330538843     -1.43223736037251     -1.04260287372191
  H   -0.09892028484297     -1.63236154480705     -1.50626955742254
  C   -1.43610219441565      0.40250666618348      0.75322895726652
  H   -1.21578176541227      1.40421762729800      1.12104821291809
  H   -2.43391732656336      0.41593813254859      0.31059397479526
  H   -1.42960237009319     -0.30791038803276      1.58493418238280
  C   1.40103514547401      1.25261269484926      0.86185511018295
  N   1.70082562718848      2.27483903736627      1.35519152058727
  C   1.99170917208639     -0.52644942671649     -0.66436125894875
  N   2.74246888791147     -0.97961931172101     -1.44517494632647
