15
Coordinates from ORCA-job run
  C   -0.41079924023794     -0.01671170407730     -0.33047121083566
  C   1.05593946876972     -0.01329404331456      0.17948709817420
  Br  -0.57916767339276      1.35445625182633     -1.71182390141992
  H   1.12792247727610     -0.83668260048358      0.90536036265037
  N   -0.61646308265058     -1.30535079293905     -0.96196160488056
  H   -0.82377601290599     -2.00081802331281     -0.25093090897160
  H   -1.39892945422642     -1.26784073383880     -1.60349143362070
  C   -1.37507614109312      0.31271103098718      0.80079507335549
  H   -2.39969438371879      0.27241632986173      0.42770401607259
  H   -1.19594645513274      1.30262727771382      1.22255788617916
  H   -1.26535741817683     -0.43443258786080      1.59565752663733
  C   1.40299494601963      1.22612274456573      0.87980099265426
  N   1.65710648284412      2.20915027564506      1.46952400940519
  C   2.01091827022962     -0.29031350435901     -0.89643242128299
  N   2.81132821639599     -0.51203992041397     -1.72577548411719
