15
Coordinates from ORCA-job run
  C   -0.56990220817695      0.23548987915673     -0.20163379964194
  C   0.89575749533992      0.55440249531814      0.26882035895391
  Br  -1.31222881160735      1.97517333446114     -0.74731911098432
  H   0.86619901216432      1.31844587889308      1.05379209552365
  N   -0.65690497988941     -0.65091077358378     -1.31702662118212
  H   -0.40669757734413     -1.59753643388445     -1.05510036005175
  H   -0.10333147893595     -0.34461727710376     -2.10819629404491
  C   -1.38799349341445     -0.30133097119436      0.95891854801510
  H   -1.00081573376117     -1.27592875696712      1.27114509994108
  H   -2.42116769981118     -0.42218184333268      0.63471391294822
  H   -1.35797334604815      0.37900159175644      1.81139773034205
  C   1.70701686934866      1.04763794889509     -0.84593595212246
  N   2.33123125142233      1.43615868223126     -1.76155966681413
  C   1.49637911336940     -0.67069634679410      0.80819344499637
  N   1.92043158734408     -1.68210740785166      1.22879061412127
