15
Coordinates from ORCA-job run
  C   -0.45109881008123      0.23551805641453     -0.31945320107991
  C   0.91808218260123      0.55219086764045      0.34367535540651
  Br  -1.04480064578135      1.88965854502867     -1.18636410013505
  H   0.77459878625806      1.35259240461794      1.07880574560052
  N   -0.22404556572105     -0.74163919325513     -1.35713991950508
  H   -1.04409116926909     -0.83581620849941     -1.94435853162569
  H   -0.02242775532774     -1.64597614218090     -0.93932452684231
  C   -1.48404535275608     -0.14050187533464      0.73605566417356
  H   -2.45111933316940     -0.30246861241954      0.25719744397605
  H   -1.18167174188270     -1.06954663736953      1.22894015849402
  H   -1.59956709106896      0.64129490852008      1.49014934785404
  C   1.92039394184928      0.98866888833621     -0.63268136687973
  N   2.75573405858928      1.36536190398868     -1.36612691520989
  C   1.39720692287861     -0.64777984105517      1.04247543135463
  N   1.73585157288120     -1.64155706443223      1.56914941441831
