15
Coordinates from ORCA-job run
  C   -0.44188598064777     -0.01740102334445     -0.34695115654057
  C   1.00082585953478      0.47195617249499     -0.05543120524269
  Br  -0.81553689348962      0.65633199190298     -2.23090899767343
  H   1.05207014921381      1.54543212597695     -0.26653766895985
  N   -0.49863285300100     -1.41685827403981     -0.22872657361845
  H   -1.44309800311858     -1.77139389348233     -0.30368732733625
  H   0.10280790815048     -1.90282345897219     -0.88342168459613
  C   -1.45136425167031      0.65670645286971      0.56252200916921
  H   -1.36754313174206      1.74234784501740      0.50322457082892
  H   -2.46322202669069      0.37963844011669      0.26110952716676
  H   -1.28481056272977      0.32917958583605      1.59138218019617
  C   1.97441917352653     -0.22182782653303     -0.90411318717026
  N   2.73561179112718     -0.83156658385154     -1.55814804021340
  C   1.32910380677660      0.25375221317252      1.35927952883183
  N   1.57025501476043      0.12752623283610      2.50140802515811
