15
Coordinates from ORCA-job run
  C   -0.42390824870404     -0.01392085516596     -0.27970765210193
  C   1.01620531835481     -0.06299893728502      0.29244194431239
  Br  -0.49124390798289      1.56673576758897     -1.52868297953533
  H   1.02142375004861     -0.90283809588452      1.00063296379435
  N   -0.67563735386816     -1.24830853701611     -0.92569440609717
  H   -0.07465122771631     -1.39654184263178     -1.72885358518857
  H   -1.64100066175673     -1.31707694598096     -1.22304658345113
  C   -1.43546976518386      0.23973678658697      0.82170576496462
  H   -2.44033196477476      0.28633541826971      0.39764138753653
  H   -1.39431995655137     -0.58474035863082      1.53934786486764
  H   -1.23910382730366      1.18304681571866      1.33054728180078
  C   1.37790035581436      1.15420697417526      1.02090553489710
  N   1.65630686212904      2.10766082639458      1.64677039976691
  C   1.99532265359915     -0.36194833635344     -0.75582376001379
  N   2.74850797389584     -0.65034867978556     -1.60918417555237
