15
Coordinates from ORCA-job run
  C   -0.40304225867311     -0.01459040584967     -0.30856899167556
  C   0.99272815570452     -0.06613548991546      0.36461495248899
  Br  -0.36968604770352      1.54954962301302     -1.57906375536998
  H   0.94131351586622     -0.89623655247174      1.08224920212335
  N   -0.61842157528740     -1.25582074754764     -0.95508948774222
  H   0.03557978329573     -1.41745509453018     -1.71297286510013
  H   -1.56124831246940     -1.32128566803284     -1.31833514407554
  C   -1.48764339616388      0.26027224508144      0.71559665005949
  H   -1.32009405733651      1.20843845228325      1.22568942865403
  H   -1.50364350379648     -0.55537627981603      1.44424385183671
  H   -2.45981758281790      0.30864040687433      0.22133337251481
  C   1.31174596256034      1.15850213975256      1.10021208344478
  N   1.55243415998032      2.11861618709903      1.73144504678207
  C   2.04078698661149     -0.38700627076322     -0.60776060574745
  N   2.85000817022962     -0.69311254517687     -1.40159373819334
