15
Coordinates from ORCA-job run
  C   -0.46930085924411      0.06612092668197     -0.34257824134560
  C   0.97439302605813     -0.02645372917257      0.26377425486113
  Br  -0.50532776607223      1.66777690533555     -1.47510415830916
  H   0.96939138627226     -0.91296043955407      0.91418556888420
  N   -0.80622817020014     -1.05486490680067     -1.16776303566532
  H   -0.91046219117665     -1.89860085005529     -0.61569650240810
  H   -0.13857980737894     -1.20474701311936     -1.91508212849285
  C   -1.48914696056534      0.21670028873385      0.77074580090694
  H   -1.45339370387103     -0.66350249858477      1.42331238367202
  H   -1.29925136898672      1.10653613357433      1.37090537234937
  H   -2.48367889041260      0.28568078444866      0.33082653573217
  C   1.32876663620277      1.12868204135920      1.08987171005730
  N   1.58427233832637      2.03953688882495      1.78567164854590
  C   1.96836335237819     -0.25740283227226     -0.78598269503872
  N   2.73018297867005     -0.49250169939953     -1.64808651374933
