15
Coordinates from ORCA-job run
  C   -0.42732022549526      0.01417283482437     -0.42091783305364
  C   1.03402865735549      0.43542514578846     -0.10097015616681
  Br  -0.78753553441027      0.60446207839652     -2.25434278183465
  H   1.11173510254508      1.52569672454904     -0.18405191845290
  N   -0.48374276842309     -1.42827210972145     -0.40945901162432
  H   -1.35667825425653     -1.75419551331447     -0.80686759879358
  H   -0.42034166986725     -1.76659437347396      0.54689797164929
  C   -1.40607411897940      0.72667466044805      0.50469267194222
  H   -1.30529303376697      1.81270663040504      0.44626272992231
  H   -1.23231018369297      0.40732634559435      1.53675896925320
  H   -2.42750631158688      0.46032783201111      0.22819564212433
  C   1.99993027331607     -0.17439370787164     -1.01930756963542
  N   2.80796356959999     -0.62965201688355     -1.73877806644235
  C   1.34984210128882      0.04697446702075      1.27993381023598
  N   1.54230239637315     -0.28165899777256      2.39095314087634
