15
Coordinates from ORCA-job run
  C   -0.49304965800491      0.17935858129177     -0.19915633275564
  C   0.93859031637376      0.50781029719094      0.29990092243736
  Br  -1.24506567949020      1.98607383593878     -0.75556166261864
  H   0.87302970601332      1.31996832294421      1.03178456457294
  N   -0.42426827238810     -0.74944380172882     -1.25257487987270
  H   -1.33907803793657     -1.07447844719491     -1.53739364832854
  H   0.08286245762384     -0.40657323052286     -2.06001329635649
  C   -1.37138735499712     -0.32740317038079      0.92891545254324
  H   -1.37678082751102      0.37253600225948      1.76520880166861
  H   -2.39831875027026     -0.43926287478527      0.57611500810385
  H   -1.00249533682826     -1.29973444583174      1.26364001430575
  C   1.79590565653199      0.94283868818945     -0.80680163041139
  N   2.46417888759975      1.26100567026325     -1.71840803129763
  C   1.52511143873418     -0.66972259725570      0.95246181076293
  N   1.97176545454961     -1.60097283037777      1.51088290724636
