15
Coordinates from ORCA-job run
  C   -0.49570960842164      0.25102526368243     -0.22718838522234
  C   0.94240924705017      0.54966908868083      0.28069776651087
  Br  -1.24892395717514      1.96600333421266     -0.80255691675727
  H   0.87952006506360      1.25310378317290      1.11913637386513
  N   -0.38622238994984     -0.58971432765323     -1.39540837866327
  H   -0.11183081628878     -1.52838602712295     -1.11858629159122
  H   -1.27415009875723     -0.64542750963149     -1.87970773877676
  C   -1.36271868345197     -0.28940636689617      0.90358730386510
  H   -1.39617962280776      0.39459854049009      1.75450593532017
  H   -2.38112093515599     -0.43860018149438      0.54132865387456
  H   -0.96908405932499     -1.25432642708899      1.23725440785396
  C   1.78791706841838      1.13667207009157     -0.76261225489721
  N   2.49957029039040      1.61754183833350     -1.56234715181184
  C   1.54590856635427     -0.69936240391502      0.76397312166175
  N   1.97061493405653     -1.72539067486174      1.14692355476835
