15
Coordinates from ORCA-job run
  C   -0.53773738192200      0.14002579128663     -0.42267579741792
  C   1.01204251283754      0.35539242154710     -0.27899763129365
  Br  -1.19384027651704      1.76187904376326     -1.32003504332356
  H   1.41618635245303      0.54166629572297     -1.28118854016104
  N   -0.87348228652502     -0.97890897493373     -1.24884438241512
  H   -0.66934657135746     -1.85430010946735     -0.77996802292858
  H   -0.41652906476582     -0.95194143867561     -2.15215295088591
  C   -1.20564271713358      0.00537373161258      0.93154163201412
  H   -2.27802013948314     -0.12025059544823      0.78380963101223
  H   -0.81531035455103     -0.87776843913433      1.44848867760336
  H   -1.02836973302497      0.88293863959846      1.55313458773395
  C   1.60654936451655     -0.87996660960107      0.24261210980812
  N   2.01680860060102     -1.90181765574162      0.65169971291850
  C   1.35735952800635      1.48868592853750      0.58099076264463
  N   1.60933216686554      2.38999197093343      1.29058525469088
