15
Coordinates from ORCA-job run
  C   -0.40862798630173     -0.01126866380148     -0.33469823364021
  C   1.05375814685481     -0.00698258665186      0.18692274467671
  Br  -0.58180979479261      1.39720008911992     -1.67750682343835
  H   1.12926040407080     -0.85043573461371      0.88920767410045
  N   -0.59489674885145     -1.28264368234657     -1.00527871965473
  H   -1.38165618311859     -1.23901237317989     -1.64128088074114
  H   -0.78585630062687     -2.00374017954634     -0.31539623716604
  C   -1.38524500376282      0.27564839059816      0.79760284268263
  H   -1.27372319269727     -0.49252203685646      1.57192582403206
  H   -1.22046784901959      1.25516873537273      1.24852696361341
  H   -2.40646711208676      0.23490236116684      0.41531782448454
  C   1.38182050000360      1.21508578315644      0.92601091356316
  N   1.62345117332507      2.18322889041891      1.54463947411171
  C   2.02047216711686     -0.24220127043222     -0.88861972932889
  N   2.82898777988654     -0.43042772240444     -1.71837363729536
