15
Coordinates from ORCA-job run
  C   -0.41303757387021      0.01798748306589     -0.32665297117987
  C   1.05813785049611     -0.00381938930630      0.17029740473048
  Br  -0.64226383695080      1.57376083266916     -1.48565026860059
  H   1.16475867329791     -0.92407732467988      0.76333163286442
  N   -0.58190237450406     -1.16863102535643     -1.14241206208826
  H   -1.36479486734132     -1.05934716769318     -1.77501827549726
  H   -0.76879256762756     -1.96724575431978     -0.54292964373124
  C   -1.37576191244641      0.14019088596733      0.84649593238185
  H   -1.22545566473480      1.06120393318355      1.41130675353728
  H   -2.40231261994990      0.12069472602924      0.47710019569726
  H   -1.23254039970323     -0.71344842229305      1.51944018514481
  C   1.37109092412150      1.12724507937709      1.04783093339006
  N   1.59818968450157      2.01746102413471      1.77887934642231
  C   2.01021039023537     -0.08195009652758     -0.94042639054816
  N   2.80447429447584     -0.13902478425076     -1.80259277252310
