15
Coordinates from ORCA-job run
  C   -0.45114825864347      0.05570400438456     -0.42034252145190
  C   1.07723593798971      0.24844090785417     -0.22982876749685
  Br  -1.04672776600181      1.69069061032225     -1.45271531545634
  H   1.53940042864028      0.31600346506087     -1.22261662302885
  N   -0.65455136772051     -1.14640609739324     -1.13258233611547
  H   -1.63506783678178     -1.39071609651743     -1.18814803943261
  H   -0.26337709272536     -1.12270780655727     -2.06647952405156
  C   -1.20120595433298      0.04799906643649      0.89587916567359
  H   -2.27327453719338     -0.04464142432731      0.71121736402725
  H   -0.86902043938043     -0.80748687613005      1.49011945583258
  H   -1.03107832209474      0.96983088129699      1.45164638225830
  C   1.63891215364200     -0.91246769321551      0.47401515418283
  N   2.08956900148789     -1.81787625807809      1.07040188538173
  C   1.39979285766262      1.47325891805573      0.50742723534923
  N   1.68054119545193      2.44037439880777      1.11100648432808
