15
Coordinates from ORCA-job run
  C   -0.43895647811166     -0.00563701005799     -0.35138375402979
  C   1.02407394322770      0.41458705145337     -0.05373057552589
  Br  -0.75069677558405      0.63044310317108     -2.26089165807430
  H   1.13606987215231      1.47702902630484     -0.29501296621285
  N   -0.57272339171556     -1.39515152316940     -0.19301743620565
  H   0.01171827062321     -1.93329026087348     -0.82165165103971
  H   -1.53344608946651     -1.70195747741845     -0.27073633206424
  C   -1.42276275296663      0.74955414433472      0.52165328471906
  H   -1.28739590538312      0.44656092429880      1.56258513338948
  H   -2.44396484575015      0.51700932106701      0.21414900686182
  H   -1.28034565549264      1.82676831577428      0.42979620797916
  C   1.97101680707414     -0.35294972232495     -0.86832323255200
  N   2.72149170963441     -0.99699403531152     -1.50156497539096
  C   1.32148244678703      0.21953395561938      1.37114175454476
  N   1.54443884497153      0.10249418713233      2.51798719360110
