15
Coordinates from ORCA-job run
  C   -0.42669417881810     -0.04960191689162     -0.27328258755931
  C   1.01797418979975     -0.02321436074694      0.28835142486203
  Br  -0.50996915613662      1.36641555265002     -1.70553582573163
  H   1.03389849169055     -0.77179260407288      1.09220110300837
  N   -0.67757069246666     -1.35460704002429     -0.76199267049695
  H   -0.08282178262249     -1.59671272339341     -1.54677918954637
  H   -1.64503304282155     -1.46253835341817     -1.04029276340455
  C   -1.43144475939890      0.33280020798035      0.79665043871284
  H   -2.43941980169761      0.32463317898188      0.37754977226010
  H   -1.38190428099712     -0.39847906076096      1.60858997771258
  H   -1.23521091736587      1.33135100450667      1.18609135309205
  C   1.37854239361589      1.27451417717569      0.86178288634946
  N   1.65410301545218      2.29825115772756      1.36589988312034
  C   1.99137216343558     -0.44221397611836     -0.72361877605584
  N   2.75417835833095     -0.82980524359553     -1.52761502632315
