15
Coordinates from ORCA-job run
  C   -0.54173191308614      0.14967824210859     -0.41459511715872
  C   1.01400781966536      0.33190287496115     -0.29397592528771
  Br  -1.17516509338105      1.78157053788181     -1.30979369324638
  H   1.40824994272767      0.50348683416441     -1.30269173676397
  N   -0.91392280577420     -0.96511433124543     -1.23086019984041
  H   -0.71959562679165     -1.84292371765490     -0.76234742672112
  H   -0.47164857737572     -0.95038026519560     -2.14171311338003
  C   -1.19278844144215      0.03539612330355      0.94963904746372
  H   -2.26996999278592     -0.06470307787154      0.81837972662088
  H   -0.98510702401770      0.91022601882560      1.56569922981524
  H   -0.81625307459067     -0.85545116298482      1.46363273892974
  C   1.58891518896668     -0.91367511553974      0.22583796640838
  N   1.98664529261138     -1.94348390391890      0.62721940299921
  C   1.39707117574535      1.46172395361805      0.55453511210943
  N   1.69029312952880      2.36074698954775      1.25103398805173
