15
Coordinates from ORCA-job run
  C   -0.56332463958902      0.25246667862640     -0.20161404021650
  C   0.91058608544485      0.52982400154665      0.26933925627299
  Br  -1.25250522604384      2.01043016235258     -0.75773448369960
  H   0.90204490155228      1.29879057326485      1.04996376130458
  N   -0.67559055236213     -0.63694608169900     -1.31247063160104
  H   -0.11272176689986     -0.35077440881452     -2.10464988713752
  H   -0.45198355563191     -1.58877771304974     -1.04525355061182
  C   -1.39820344928758     -0.25363941405702      0.96077483013685
  H   -1.04010214275264     -1.23748624296985      1.27875816872226
  H   -1.34930328622416      0.43023977479040      1.80954085014672
  H   -2.43409366025214     -0.34608128014044      0.63587481718073
  C   1.73814894830185      0.99198294318547     -0.84665971831195
  N   2.37702432158343      1.34954717076822     -1.76475590166808
  C   1.47413870440289     -0.71034142719607      0.81436758321627
  N   1.87688531775796     -1.73823473660795      1.21551894626612
