15
Coordinates from ORCA-job run
  C   -0.53712953206539      0.14459243568688     -0.42357065232852
  C   1.01816015559102      0.32376717983154     -0.29395185119181
  Br  -1.15847722838468      1.76431377650599     -1.34930231683670
  H   1.41989358689176      0.48064227024669     -1.30208984616631
  N   -0.90615511217026     -0.98207834391403     -1.22475719718360
  H   -0.45304612440797     -0.98622754637271     -2.13038652060257
  H   -0.72348191986469     -1.85264700796889     -0.73842442467748
  C   -1.19950782941447      0.05426301366492      0.93703927555757
  H   -2.27566807901299     -0.04703535484545      0.79845136800693
  H   -0.99613252113675      0.93949887053032      1.53944566512894
  H   -0.82803318091551     -0.82770862872400      1.46965605541633
  C   1.58526241077208     -0.91537810017018      0.24941793912696
  N   1.97509383000991     -1.92990733948740      0.69507011889300
  C   1.39810233393543      1.46394781237499      0.54200279813439
  N   1.68111921017256      2.37095696264130      1.23239958872288
