15
Coordinates from ORCA-job run
  C   -0.43842194473987      0.14595623649832     -0.46597059944110
  C   1.09173318029119      0.34033505405400     -0.26270615540121
  Br  -1.07277187083577      1.73824327046304     -1.41316300523330
  H   1.52416956615895      0.50302658035227     -1.25567676768924
  N   -0.58626966496568     -0.97741733964911     -1.37000001655129
  H   -1.52549230554412     -0.99461749860203     -1.75017549326037
  H   -0.43960735092272     -1.84314539797804     -0.85746639309667
  C   -1.18299487699762      0.03637053820473      0.85565522487006
  H   -1.04781792045019      0.92294885896388      1.47729748562647
  H   -0.81884256968131     -0.83970235375170      1.40273264770767
  H   -2.24911019519693     -0.09456601720051      0.66270723967328
  C   1.65517120511161     -0.89388960844605      0.29774252720629
  N   2.04337828519105     -1.90194954461728      0.75865543286550
  C   1.40758606934027      1.47650162338172      0.60550445964847
  N   1.64029039324113      2.38190559832684      1.31586341307548
