16
Coordinates from ORCA-job run
  C   -0.42655991294970     -0.17406690393887      0.50643974732068
  C   1.01681098789971     -0.04740413319929     -0.02207287612394
  Br  -0.33082544247978     -0.53459848597845      2.43304599885921
  H   1.49898705988762     -1.02852514043562      0.03739512294844
  C   -1.14151444522289     -1.34180876452423     -0.15596862878898
  H   -2.16434777882747     -1.41018942660285      0.21835381259076
  H   -1.15396305181258     -1.17325016481564     -1.23504478615010
  H   -0.63336217316179     -2.28697366978972      0.04523876076790
  N   -1.08292313803184      1.10995431101235      0.29756292967546
  H   -1.64936725562896      1.05810751168304     -0.54212279288463
  H   -1.68903428759682      1.34543118055991      1.07143590990418
  C   1.81030703454040      0.90407541011978      0.77803734219341
  N   2.49344493975115      1.68400375729792      1.33027274570838
  N   0.92500086089006      0.34725697776427     -1.42459611894107
  H   1.81900293278044      0.20934584618726     -1.88078851596714
  H   0.70934366996244      1.33764169466014     -1.45918865111256
