16
Coordinates from ORCA-job run
  C   -0.48466303938342     -0.13759567561151      0.45110112484324
  C   0.94472363210901      0.31968271316697      0.09407991260572
  Br  -0.20274238998974     -1.64733460124548      1.81872611394093
  H   1.39078664082838      0.72824908566021      1.01601087182712
  C   -1.22618848088370     -0.74565630444390     -0.71789503479931
  H   -2.19288137947096     -1.13461190188256     -0.39160614514966
  H   -0.64452009322462     -1.55188873364219     -1.15828241325353
  H   -1.39095416998157      0.03335755537681     -1.46732830998999
  N   -1.18897957488172      0.94137208868427      1.01293625234553
  H   -2.15593072405355      0.71433042799849      1.20412262496217
  H   -0.75361165187159      1.31057328820209      1.84879056822375
  C   0.84616925845402      1.42628533947747     -0.86869059200788
  N   0.80936505127455      2.31750568657280     -1.63177838556447
  N   1.71881372342661     -0.75423332231656     -0.51250526035747
  H   2.58006670257430     -0.38262839534121     -0.89429603006686
  H   1.95054649507399     -1.43840725065570      0.19761470244069
