16
Coordinates from ORCA-job run
  C   -0.39927848587521     -0.35721900308888      0.24358723210433
  C   0.88207996495331      0.34620022354751     -0.24915080668064
  Br  -0.05460921177248     -2.27232177702762      0.43031089704640
  H   0.59373129923648      1.41226341699257     -0.32053470047068
  C   -1.54906828924873     -0.17743729085145     -0.73659337777154
  H   -2.45029444612177     -0.64545588036287     -0.33677775570474
  H   -1.32876302674767     -0.62037830290911     -1.70866288286185
  H   -1.74375653259164      0.89261716637659     -0.87441552214052
  N   -0.66258750274259      0.16579677203641      1.58071214461577
  H   -1.12868095814839      1.06500887248111      1.49168342996851
  H   -1.28666495005099     -0.45672157034209      2.08004254102399
  C   1.23496631139411     -0.07977971581272     -1.60902413113441
  N   1.51821542474724     -0.37896122031945     -2.70822603208681
  N   1.98661740009539      0.10149598164874      0.65720351614651
  H   1.64214660063509      0.26253364811904      1.59756150694526
  H   2.74594640223785      0.74235867951223      0.46328394100043
