16
Coordinates from ORCA-job run
  C   -0.51050726751644     -0.34791513631017      0.26590333402849
  C   0.76168052354398      0.42224777188408     -0.15761566340114
  Br  0.06803244164239     -2.25027427011476      0.53086682143844
  H   0.42042098981060      1.45241950757486     -0.32392014569239
  C   -1.56469616991193     -0.34895859965321     -0.82217948544717
  H   -2.44633671795058     -0.88748682231155     -0.47201943179913
  H   -1.84807558268894      0.68488648565824     -1.05258308566613
  H   -1.20128915037558     -0.82396836605868     -1.73281023803128
  N   -1.03749209386768      0.13892130020884      1.49228480740980
  H   -0.29426743364892      0.48597738292205      2.08701423217351
  H   -1.75022147675829      0.84018184319170      1.34156139680895
  C   1.31089656352832     -0.06800104335184     -1.43432882604525
  N   1.78380045257054     -0.42574129709463     -2.44890976582715
  N   1.71706043838803      0.45771055487187      0.93808069137615
  H   2.14097113196960     -0.45700698792157      1.04804550751138
  H   2.45202335126489      1.12600767650476      0.74060985116291
