16
Coordinates from ORCA-job run
  C   -0.51448775388703     -0.22739288384411      0.26016106979603
  C   0.76035064234031      0.47646108221870     -0.23209527446376
  Br  0.06384310187841     -2.15193461685611      0.70937973249467
  H   0.43689601182388      1.49438254038095     -0.48180318519397
  C   -1.57316626991910     -0.36071255808067     -0.81348830682983
  H   -2.45321888241858     -0.86677745049470     -0.41196021183180
  H   -1.86607056703695      0.64178754487895     -1.13960223750619
  H   -1.20864463796714     -0.93348104866516     -1.66559000748014
  N   -0.98273969532760      0.47282153814238      1.38141711675785
  H   -1.78506704389557      0.03323959540855      1.81159783298361
  H   -0.23896410142690      0.62414736174581      2.05238494204513
  C   1.28040551150302     -0.13797125616604     -1.46640913164722
  N   1.73289828391090     -0.57985946922571     -2.45644153626006
  N   1.72951728511917      0.57911685608977      0.84802262911715
  H   2.44546311418572      1.25493409890141      0.61147529860031
  H   2.17398500111746     -0.32076133443400      0.99195126941821
