16
Coordinates from ORCA-job run
  C   -0.48209123061741     -0.15629525001492      0.46083687673171
  C   0.98130358861342     -0.00159371907080     -0.02090326611928
  Br  -0.29550113519257     -0.79223217850231      2.40012361467555
  H   1.52449347386064     -0.90179996190783      0.27836792564838
  C   -1.19900101291271     -1.26492017526872     -0.28244478417207
  H   -0.64752892337412     -2.20317491577581     -0.20686252592868
  H   -2.19187776822697     -1.42386431597038      0.14318417649999
  H   -1.28748350342042     -0.96977058298196     -1.32694757903181
  N   -1.17051857766974      1.06356148279601      0.35825228068800
  H   -0.75732931742004      1.80629803444620      0.91817068361650
  H   -2.15516186065563      0.97229462668265      0.58018635662881
  C   1.60875766891129      1.13106502811954      0.66753126280312
  N   2.09939766918656      2.09110808640190      1.13416890562762
  N   1.01088081445098      0.18695484634311     -1.46760310818959
  H   1.47450209689274      1.04525332074717     -1.72775547468742
  H   1.48715801757400     -0.58288432604386     -1.90930534479083
