14
Coordinates from ORCA-job run
  C   -0.20350520015779      0.12426058249117     -0.39617169434044
  C   1.16579769023978      0.34154269444154      0.24094638859753
  F   -0.03880806863262     -0.09862613055465     -1.72637921535931
  H   1.67336321546823      1.15178312524141     -0.29137811389039
  H   1.04261612517012      0.63950674428113      1.28341908479229
  N   -0.95810095209975      1.44389423989177     -0.25160080383393
  O   -1.10008575158568      1.83522714321639      0.90350068336071
  O   -1.36577016241432      1.98681130430413     -1.26743139224255
  C   -1.04223461993318     -0.96994219957917      0.21088441447139
  H   -0.52761689017304     -1.92387902445151      0.08955564880761
  H   -1.99862741355361     -1.01732798464358     -0.31247267754911
  H   -1.21657636277135     -0.77809893806711      1.26885359048938
  C   1.96982727677537     -0.87342270394248      0.15559508086436
  N   2.59872111366784     -1.86172885262905      0.09267900583246
