14
Coordinates from ORCA-job run
  C   -0.25740160362476     -0.08013216787757     -0.32505577628124
  C   1.13648868760281     -0.37006789562472      0.21529899348320
  F   -0.23395743745377     -0.14809062876051     -1.68162190790540
  H   1.39437597129700     -1.39985405620023     -0.04676630382544
  H   1.13131742913241     -0.27732983650948      1.30229366725179
  N   -0.61031347045111      1.35628599732547      0.04995446372003
  O   -0.56878102280191      1.59468506419588      1.25362827798944
  O   -0.91756781164318      2.12699052573247     -0.84601828331088
  C   -1.33450136052205     -0.98518589068579      0.21784743491905
  H   -1.11390774932754     -2.01502938195068     -0.06750268311273
  H   -2.29363640231194     -0.70065162886094     -0.21850829906332
  H   -1.39314956210012     -0.90678089844549      1.30259892982077
  C   2.13230824853072      0.53668905335778     -0.35133120781103
  N   2.92872608367343      1.26947174430381     -0.80381730587426
