15
Coordinates from ORCA-job run
  C   0.89474446577463     -0.04741546325840      0.14636590539977
  C   -0.56021456244423      0.44795618851921      0.19623094455098
  Cl  1.64470059565976      0.07494525015014      1.74393862946724
  H   -0.51858232227011      1.46324311120926      0.60283893019145
  N   1.68668239093330      0.89058873746811     -0.79205005571023
  O   2.37381216667129      0.36525035017806     -1.65473317443991
  O   1.54502856422332      2.08221711546117     -0.56637336423786
  C   0.99032772687685     -1.41173294152267     -0.34966902454209
  N   0.99676376736611     -2.53207931468840     -0.70655178314130
  C   -1.45920008239226     -0.44572306621275      1.05270879220964
  H   -2.46920714454737     -0.03362230668529      1.06122009143559
  H   -1.50333726043713     -1.45723065047907      0.64548224704438
  H   -1.09337099135120     -0.48609257527957      2.07863743373569
  C   -1.05974366014882      0.52423412183767     -1.17894499764166
  N   -1.46940365391413      0.56546144330253     -2.27910057432168
