15
Coordinates from ORCA-job run
  C   0.88614400847140      0.26990829981563     -0.10927958912479
  C   -0.55106713911290      0.11615419131470      0.44028021090227
  Cl  0.98453451852592      1.44968197599605     -1.39948684770196
  H   -0.47234401525962     -0.58719026962390      1.27712145874311
  N   1.26818562086330     -1.14326682215456     -0.62965366564242
  O   1.35205806432794     -1.97733244889681      0.26227620244003
  O   1.38842086253609     -1.31373737789009     -1.82836282584642
  C   1.82456828527951      0.60260776318228      0.95464334367577
  N   2.56217326592241      0.88538705312116      1.82552836408204
  C   -1.53035262048111     -0.43199344098863     -0.59971830891675
  H   -1.24511634525966     -1.44033120347450     -0.90358910595781
  H   -1.57239598052464      0.21000105410862     -1.47933530218877
  H   -2.52638210518531     -0.48170894308372     -0.15824192477928
  C   -0.99203967589982      1.40638964550289      0.96756492159223
  N   -1.37638674420352      2.43643052307089      1.38025306872274
