15
Coordinates from ORCA-job run
  C   0.85555321592263      0.37396439023281     -0.00675999437723
  C   -0.52363466283938     -0.14133711859081      0.46621797242593
  Cl  0.77896482501644      2.00795891416225     -0.63197601998056
  H   -0.33548794590236     -1.12950092117619      0.90136894718653
  N   1.29239272192999     -0.61760195267864     -1.11973450603961
  O   1.49500739441564     -1.75004024208427     -0.70192936428333
  O   1.33588452423443     -0.22527934952170     -2.27067632201862
  C   1.84477381882109      0.28404771579469      1.05929153629244
  N   2.62040088819266      0.21101735457552      1.94010440666079
  C   -1.53432182769988     -0.26837217148239     -0.67552310440480
  H   -1.20476700586576     -1.01606938332661     -1.39886778202016
  H   -1.67829346358098      0.68524174536698     -1.18347332365499
  H   -2.49251801282653     -0.59298344481395     -0.26777051114956
  C   -1.01475094283001      0.73816685191257      1.52566619831168
  N   -1.43820352698797      1.44178761162973      2.36506186705150
