15
Coordinates from ORCA-job run
  C   0.89158371611106     -0.04560118148006      0.16609332004193
  C   -0.56595334507018      0.44325564357776      0.18624884037472
  Cl  1.60425567765894      0.06605575615055      1.78133147784402
  H   -0.53820300726134      1.45626868091283      0.59988003058251
  N   1.70076266261441      0.90479812456450     -0.74604721537147
  O   2.40464664599664      0.39062098281884     -1.60188782436897
  O   1.55214334797863      2.09355330832195     -0.50997513777683
  C   1.00516579412088     -1.40459711988535     -0.34034913257970
  N   1.02532690028417     -2.52149483910929     -0.70743211668462
  C   -1.48032257891769     -0.45928138657397      1.01707376726129
  H   -1.50634646371769     -1.47021827162024      0.60678018849699
  H   -1.14111784526735     -0.49921845713407      2.05209272034043
  H   -2.49314871312425     -0.05459942346459      1.00005130617444
  C   -1.03560298891832      0.52683518257399     -1.19896466161961
  N   -1.42318980248791      0.57362300034714     -2.30689556271513
