15
Coordinates from ORCA-job run
  C   0.84887823378110      0.38587123941229      0.01282497944150
  C   -0.52617217514975     -0.16684326043734      0.45243893367003
  Cl  0.75166964126517      2.03648295403165     -0.56434096684279
  H   -0.32676141260159     -1.16794659615133      0.85155122859411
  N   1.31805589050836     -0.56392310774591     -1.12227919724690
  O   1.36691116687288     -0.13756678032434     -2.26102588542080
  O   1.54055352564476     -1.70347751997945     -0.73449126332881
  C   1.82632311278546      0.28260668650679      1.08856642523107
  N   2.59507660972011      0.20226055977122      1.97453460897410
  C   -1.52586226188999     -0.26438479840103     -0.70201292964046
  H   -1.17853041876907     -0.97515073835465     -1.45363889218253
  H   -1.68196590927761      0.70712165563803     -1.17078825588040
  H   -2.48151837695612     -0.62087497480100     -0.31551149525090
  C   -1.04090845134985      0.66308422588307      1.54032038753944
  N   -1.48774917458386      1.32174045495199      2.40385232234334
