15
Coordinates from ORCA-job run
  C   0.86067127306457      0.28809873562319     -0.21505117157481
  C   -0.52415105685104      0.15679295217370      0.45958728378131
  Cl  0.80561981127503      1.26625097491326     -1.66685629171927
  H   -0.34993164282577     -0.40889576905416      1.38208457012387
  N   1.28155103125530     -1.16801368517925     -0.55217108253296
  O   1.32585435339645     -1.51059010485782     -1.71897280695449
  O   1.47347245249640     -1.85511925269434      0.44251508065915
  C   1.85149575913159      0.81610878649078      0.71381231911765
  N   2.62957292818737      1.25836982185683      1.47628910919315
  C   -1.54216739057120     -0.58325466749795     -0.41077012856975
  H   -1.67537338124044     -0.08580840028013     -1.37141286560099
  H   -2.50264385397738     -0.60432297249578      0.10573083608861
  H   -1.22659653917850     -1.61407369954858     -0.57980424768798
  C   -0.99716130813512      1.49092642474939      0.82506965019642
  N   -1.40921243602725      2.55253085580085      1.11194974548008
