11

C	-0.347623	-0.053575	-1.487423
C	0.0	0.0	0.0
F	-0.031974	1.156996	-2.079198
H	1.096008	0.0	0.0
H	-1.410152	-0.241872	-1.67481
H	0.26985	-0.831101	-1.941865
C	-0.460975	-1.221684	0.634727
N	-0.837518	-2.230845	1.106777
C	-0.561243	1.16955	0.648543
N	-1.000135	2.127074	1.170856
F	2.474375	0.0	0.0
