11

C	-0.348086	-0.05759	-1.487311
C	0.0	0.0	0.0
F	-0.033387	1.151712	-2.082172
H	1.096025	0.0	0.0
H	-1.410675	-0.246984	-1.674015
H	0.269833	-0.835983	-1.939975
C	-0.460338	-1.220223	0.638004
N	-0.834465	-2.229708	1.11137
C	-0.561151	1.171331	0.645583
N	-1.000628	2.130478	1.164504
F	2.474082	0.0	0.0
