16

C	0.0	0.0	0.0
C	-0.515624	-0.001449	-1.414522
F	1.359706	0.0	0.0
H	-1.592174	0.180246	-1.368808
H	-0.04308	0.832426	-1.935501
N	-0.246015	1.420276	0.646429
O	-0.18844	2.405792	-0.080431
O	-0.364738	1.446797	1.86836
N	-0.52062	-1.020645	0.790626
H	-0.327105	-0.830058	1.766164
H	-1.53695	-1.023295	0.659856
C	-0.21279	-1.326853	-2.107378
H	-0.751001	-2.145103	-1.629708
H	0.855668	-1.55592	-2.07648
H	-0.523845	-1.277943	-3.154418
Br	-3.788554	0.0	0.0
