16

C	0.0	0.0	0.0
C	-0.436671	0.20598	-1.435056
F	1.383881	0.0	0.0
H	-1.495687	0.47345	-1.431968
H	0.147402	1.038245	-1.834777
N	-0.338801	1.204254	0.874597
O	-0.446731	2.289296	0.317966
O	-0.372557	1.014464	2.087798
N	-0.534617	-1.131189	0.608484
H	-0.391458	-1.1273	1.607266
H	-0.202501	-1.978937	0.175743
C	-0.221744	-1.063918	-2.255847
H	-0.952599	-1.823455	-1.967444
H	0.79093	-1.464139	-2.134928
H	-0.37258	-0.857379	-3.317979
Br	-4.064978	0.0	0.0
