16

C	0.0	0.0	0.0
C	-0.513058	0.243261	-1.408457
F	1.358325	0.0	0.0
H	-1.606034	0.224343	-1.338942
H	-0.207485	-0.653689	-1.964527
N	-0.331488	1.202741	0.91229
O	0.271727	2.241791	0.644578
O	-1.122692	1.055592	1.833281
N	-0.501045	-1.15518	0.651895
H	-1.48942	-0.986488	0.856757
H	-0.466618	-1.924133	-0.008232
C	-0.014661	1.490923	-2.13009
H	-0.288092	1.42703	-3.187279
H	1.069964	1.592933	-2.056055
H	-0.469101	2.392463	-1.720014
Br	-3.895689	0.0	0.0
