16

C	0.0	0.0	0.0
C	-0.520437	0.112625	-1.415471
F	1.381759	0.0	0.0
H	-1.547197	0.47859	-1.357823
H	-0.580391	-0.916873	-1.77971
N	-0.248999	1.329178	0.797232
O	-0.082214	1.24965	2.013215
O	-0.518926	2.357949	0.189139
N	-0.511423	-1.098657	0.68791
H	-0.321228	-0.995199	1.678354
H	-1.527028	-1.105217	0.545812
C	0.343972	0.943797	-2.356759
H	0.436841	1.970216	-2.006139
H	-0.121065	0.965766	-3.345475
H	1.343482	0.51796	-2.461944
Br	-3.786918	0.0	0.0
