17

C	-0.73557	-0.024426	-1.49922
C	0.207217	-0.005612	-0.294913
Br	-0.0382	1.359996	-2.888686
H	1.236222	-0.092253	-0.653901
N	-0.620655	-1.312642	-2.292935
O	0.503329	-1.743117	-2.499084
O	-1.669319	-1.811108	-2.695402
N	-2.027205	0.207992	-1.102925
H	-2.709258	0.286845	-1.840292
H	-2.012734	0.959608	-0.417228
N	-0.084504	-1.186182	0.490802
H	-1.011884	-1.049079	0.883916
H	0.56066	-1.098604	1.293028
N	-0.056753	1.221949	0.45515
H	0.438619	1.990655	0.008738
H	0.434941	1.042794	1.360857
H	1.455218	0.166117	2.49011
