16

C	-0.510684	-0.042459	-1.418876
C	0.0	0.0	0.0
Cl	-2.230291	-0.473007	-1.551249
H	1.088154	0.0	0.0
N	-0.274643	1.353228	-2.084495
O	0.786351	1.868983	-1.777671
O	-1.088615	1.741386	-2.900868
C	0.26472	-0.941523	-2.274194
N	0.881341	-1.554209	-3.066143
N	-0.316669	-1.245075	0.687763
O	-0.794641	-1.236739	1.823071
O	0.003901	-2.259264	0.050382
N	-0.453065	1.157476	0.733625
O	0.089243	1.32851	1.832189
O	-1.259633	1.938646	0.200243
H	2.287336	0.0	0.0
