16

C	-0.57069	0.003518	-1.403071
C	0.0	0.0	0.0
Cl	0.285524	1.139433	-2.473669
H	1.088419	0.0	0.0
N	-0.325763	-1.381211	-2.050721
O	0.685981	-1.962493	-1.698701
O	-1.117168	-1.71303	-2.921298
C	-2.000124	0.290624	-1.452975
N	-3.132557	0.608926	-1.470892
N	-0.4824	-1.143955	0.744501
O	-1.349975	-1.875347	0.233522
O	0.079903	-1.346506	1.825166
N	-0.350624	1.238594	0.717035
O	-1.067542	1.180482	1.720979
O	0.149786	2.265631	0.248742
H	2.334046	0.0	0.0
