15
Coordinates from ORCA-job run
  C   0.99931269578466      0.27236832098701      0.49650408974186
  C   -0.39863148337406      0.46735217897329     -0.09165289693414
  Br  1.91336959209656      1.93586229601479      0.80876417948713
  H   -0.28990093274541      1.13642307035385     -0.94984906825799
  H   0.96943465798898     -0.27184362672019      1.43936161557325
  N   1.81287221711980     -0.56946656288099     -0.44151827638239
  O   2.14230463701859     -1.68030298639545     -0.02987365340652
  O   2.02267994880618     -0.11918980956665     -1.56209838454686
  N   -1.20200516002471      1.13301541970031      0.92452978495227
  H   -1.89720243010040      1.72836439326304      0.49627980267118
  H   -1.68460539992512      0.44884010652240      1.49485282276003
  C   -0.97663193541307     -0.86962043982875     -0.55988110976888
  H   -1.00528055115310     -1.58984233030501      0.26403090286860
  H   -1.99900214057132     -0.71046494604048     -0.90921358991248
  H   -0.40671371550759     -1.30949508407715     -1.38023621884505
