15
Coordinates from ORCA-job run
  C   1.04761676843304     -0.04517720781029     -0.33276422258131
  C   -0.39241830546641      0.29643934864522      0.04199040561515
  Br  1.27900777682487     -1.87570978993159     -0.88326594282534
  H   -0.35209176392418      1.35823225132240      0.30708290727599
  H   1.41342730947818      0.58760666491474     -1.14094338707179
  N   1.92184336217191      0.28525877768834      0.86211897959678
  O   1.97455718160301      1.49184807857573      1.08728093468745
  O   2.46322884289294     -0.59883951291422      1.50170451332710
  N   -0.73456607352464     -0.42877034568705      1.25449770887947
  H   -1.55561694571995     -0.02311529553599      1.68461656572706
  H   -0.93662584356562     -1.39929843224553      1.04383047371986
  C   -1.34476794253093      0.11976718508204     -1.13749050506859
  H   -1.44855287846218     -0.93445965870857     -1.40082277311848
  H   -1.00274165611221      0.66377073190328     -2.02298730479384
  H   -2.33129983209784      0.50244720470148     -0.86484835336950
