15
Coordinates from ORCA-job run
  C   0.94988495761280      0.22824536271166      0.51952857981892
  C   -0.43597142136044      0.39268869460561     -0.09105737655081
  Br  1.75602300294725      1.92417205265307      0.97837124325002
  H   -0.33165706368370      1.05049245978817     -0.96533678080282
  H   0.91595312527690     -0.37866944230789      1.42162205692719
  N   1.83907058981391     -0.48506962083269     -0.45417982441403
  O   2.04006523720326      0.05523420700558     -1.53599151569261
  O   2.23763014772695     -1.59537789834838     -0.10809984645625
  N   -1.30239166204864      0.92036493213559      0.95628529356684
  H   -2.26827545704572      0.85413256040444      0.65958362435791
  H   -1.09941626662417      1.89869621064017      1.12309149357659
  C   -0.96507810482969     -0.96422548910480     -0.53966400970474
  H   -1.97628804555292     -0.84603507216943     -0.93761120918847
  H   -0.35322023725597     -1.39946103732017     -1.33079510440651
  H   -1.00732880217984     -1.65518791986093      0.30525337571879
