15
Coordinates from ORCA-job run
  C   1.00606769673172     -0.12697549095814     -0.25151300061380
  C   -0.45623939103917      0.21006604969605      0.01756308111811
  Br  1.39053671244159     -2.01691530982023     -0.29507965807499
  H   -0.44673500276603      1.30234879262281      0.19192869850432
  H   1.33295151172771      0.28794088008857     -1.20352946849111
  N   1.91828058794874      0.50832088585660      0.76581460217484
  O   2.93040096140876      1.04742155055765      0.32895541009538
  O   1.58591770850802      0.45164953391928      1.94695683991703
  N   -1.00150392711087     -0.54901770898289      1.12577082821004
  H   -0.51052060681797     -0.32669692264929      1.98181031610962
  H   -1.97896840016113     -0.31338836047410      1.24341305706929
  C   -1.28019228124512     -0.06655731733979     -1.23288220457208
  H   -0.89614449648498      0.48030502726740     -2.09720025857104
  H   -1.28078648977850     -1.13559703055755     -1.44978640321397
  H   -2.31406458336275      0.24909542077362     -1.07122183966165
