15
Coordinates from ORCA-job run
  C   1.06608873436944     -0.11554939999195     -0.24264620672396
  C   -0.39208602289756      0.29526296080229     -0.05544075196370
  Br  1.31741652606926     -2.02343124252586     -0.32248666414165
  H   -0.35986669755193      1.38996896328672     -0.05001355218120
  H   1.48905381382828      0.30654841144451     -1.15381999362071
  N   1.86434021012096      0.49810476826206      0.89226888250340
  O   1.91437037036016      1.72368928230244      0.82334042050957
  O   2.35377773447477     -0.20331134286921      1.75970036040950
  N   -0.81847835521440     -0.12063686692196      1.27082543890798
  H   -1.00763343465215     -1.11628999343236      1.28689501017265
  H   -1.66741751104716      0.36387514831753      1.53240503459703
  C   -1.26708808322395     -0.16543494110342     -1.21794484878947
  H   -0.86409049057026      0.15398560008000     -2.18363828421522
  H   -1.36233483867639     -1.25276324034988     -1.22793582343773
  H   -2.26605195538908      0.26398189269910     -1.10950902202648
