15
Coordinates from ORCA-job run
  C   0.85381092605133      0.09645349644551      0.60904253357092
  C   -0.43530813511898      0.47670621603652     -0.13386713194454
  Br  1.70450334502848      1.62029702086155      1.43796304154726
  H   -0.16436420687817      1.24801099448049     -0.86104274460944
  H   0.67644843910684     -0.64382119535674      1.38847857402074
  N   1.81499573033055     -0.53739060446758     -0.35247163188651
  O   2.07337813958179     -1.72347954583841     -0.15667487785629
  O   2.20301087502221      0.14756215134653     -1.29185525925953
  N   -1.46345323713162      1.01577610827982      0.73442850222734
  H   -1.74361454173043      0.33037666546583      1.42686120936639
  H   -1.13787853298834      1.84371667807004      1.21742668543249
  C   -0.98223092531170     -0.74304887459528     -0.86745049244645
  H   -1.92866127657835     -0.46595144574069     -1.33229564750020
  H   -0.30342007358918     -1.09654336785360     -1.64445824104982
  H   -1.16821652579444     -1.56866429713397     -0.17308451961237
