15
Coordinates from ORCA-job run
  C   1.06059876800525     -0.02935269863794     -0.25203905144100
  C   -0.44033323721832      0.19076650374322     -0.05443150897175
  Br  1.57990464054484     -1.86609130516371     -0.42317112043887
  H   -0.53376819337777      1.28784179647133      0.02581927170220
  H   1.41190181208867      0.50530165918251     -1.13276824678302
  N   1.77064305214319      0.63553762744902      0.90780647991213
  O   2.02700006089433     -0.01362590762123      1.91339799719286
  O   1.95451970937573      1.84155424142792      0.75304079133078
  N   -0.90645778630641     -0.52597197039116      1.11744419082429
  H   -0.51425187579367     -0.15307145484687      1.97311554012201
  H   -1.91449600570014     -0.46343669541701      1.18030958898986
  C   -1.22013164481455     -0.26807934740896     -1.27661170297723
  H   -0.82887666579877      0.18185703727542     -2.19178028731351
  H   -1.17716085775744     -1.35417917209983     -1.36204564678060
  H   -2.26709177628492      0.03094968603729     -1.17808629536816
