15
Coordinates from ORCA-job run
  C   0.98205992076995      0.27625111292075      0.42603490206760
  C   -0.44465057820354      0.38191404343054     -0.09733744394848
  Br  1.80848096453644      2.00771391993948      0.66364744766141
  H   -0.40609820303330      0.95131267524741     -1.03671764981242
  H   1.01629908046827     -0.24152495461196      1.38212840636823
  N   1.80465784068758     -0.52642355174593     -0.53571483309860
  O   1.92222512358210     -0.09308228999680     -1.67637119154421
  O   2.23763433083880     -1.59676908157631     -0.11359988312238
  N   -1.23900320075115      1.00843832026126      0.95208820784883
  H   -1.02376541077788      1.99627677132316      1.01612212384008
  H   -2.22250529294981      0.92326545814495      0.72654975761031
  C   -0.99441200363804     -1.01245790535234     -0.37402963652299
  H   -2.03345921165748     -0.93468337312282     -0.70457849372904
  H   -0.96820806965944     -1.61933959898469      0.53376299444283
  H   -0.43925529021249     -1.51989154587669     -1.16398470806116
