15
Coordinates from ORCA-job run
  C   1.06935428393545      0.62229922210296      0.04815811342891
  C   -0.46295996875972      0.59625416928067     -0.03340168016774
  Br  1.88570362397512      1.37620446073987     -1.52005463507733
  H   -0.74069484728928      1.56261938561558     -0.46439991308012
  H   1.38396515698729      1.20249548151706      0.91347982289004
  N   1.56084510543859     -0.78663091157601      0.29094837933063
  O   1.36805037983892     -1.18083934903992      1.44160344995260
  O   2.01578867025964     -1.44950146663747     -0.62887959891148
  N   -0.98595931634009      0.58413178088566      1.32978995394521
  H   -0.78807430879869     -0.30571625262231      1.77282712002467
  H   -1.99212626859388      0.70109205877948      1.30141630067001
  C   -0.97201501508009     -0.51903856637548     -0.94520630203107
  H   -0.78032524882845     -1.50004590570493     -0.50221537108018
  H   -2.05215042080462     -0.41640702923314     -1.07179161155154
  H   -0.50740182594017     -0.48891707773200     -1.93327402834262
