15
Coordinates from ORCA-job run
  C   0.98384162401127      0.62948172452935      0.06173711022564
  C   -0.55720446578126      0.54149152545468     -0.08574503621397
  Br  1.83970995072289      1.37349650751058     -1.49345835345010
  H   -0.85351370205697      1.51300032789554     -0.49429707092113
  H   1.25842619211107      1.24960770772447      0.91362632904942
  N   1.51860087581873     -0.74244550288486      0.37507125335581
  O   1.94613588392514     -1.45395709870668     -0.52254783223047
  O   1.37918539509535     -1.06883076616753      1.55560064392901
  N   -1.25336307081962      0.36755197144959      1.17398839651475
  H   -1.06026950000841      1.13355592834562      1.80815760937394
  H   -0.96330113377143     -0.49010746413202      1.62884918026634
  C   -0.97294514420498     -0.55491081610374     -1.05478068899390
  H   -2.04663728690624     -0.47839675798394     -1.22582362843450
  H   -0.77029098744251     -1.54340454479609     -0.63334626789341
  H   -0.44937463069304     -0.47813274213499     -2.00803164457743
