17

C	0.0	0.0	0.0
C	-0.484596	-0.178081	-1.453649
Cl	1.790842	0.0	0.0
H	-1.577518	-0.070262	-1.395278
N	-0.432723	1.309235	0.434645
H	-0.131928	1.45735	1.392707
H	-1.455862	1.278996	0.426386
N	-0.443521	-1.148207	0.76214
H	-1.466891	-1.107553	0.737259
H	-0.158832	-1.017269	1.728711
C	-0.149051	-1.540081	-2.059829
H	-0.585539	-2.326638	-1.447123
H	0.931	-1.689125	-2.107728
H	-0.558641	-1.602328	-3.070714
C	0.025994	0.896954	-2.305308
N	0.401267	1.703816	-3.072532
Cl	-3.561309	0.0	0.0
