17

C	0.0	0.0	0.0
C	-0.47882	0.154224	-1.458744
Cl	1.79088	0.0	0.0
H	-1.573799	0.228463	-1.384924
N	-0.437675	1.173077	0.718109
H	-0.17031	1.078713	1.693326
H	-1.460179	1.149588	0.674101
N	-0.442483	-1.292139	0.481176
H	-1.466619	-1.245602	0.49506
H	-0.125	-1.404521	1.438188
C	-0.12364	-1.028561	-2.360222
H	0.959281	-1.142286	-2.444968
H	-0.542463	-0.864819	-3.357104
H	-0.544132	-1.94087	-1.937358
C	0.017273	1.402902	-2.038035
N	0.381734	2.369753	-2.597334
Cl	-3.559554	0.0	0.0
