17

C	0.0	0.0	0.0
C	-0.28573	0.413427	-1.475284
Cl	1.844212	0.0	0.0
H	0.335545	1.292379	-1.670228
N	-0.503587	1.009048	0.879865
H	-0.189835	0.82379	1.827311
H	-1.522519	0.922831	0.856935
N	-0.527058	-1.285194	0.252095
H	-0.061521	-2.036777	-0.23648
H	-0.63253	-1.484356	1.235325
C	-1.749419	0.722312	-1.770857
H	-2.410274	-0.077969	-1.441571
H	-1.882275	0.881638	-2.844814
H	-2.065092	1.62273	-1.24543
C	0.188337	-0.654091	-2.362258
N	0.534222	-1.508497	-3.090102
Cl	-4.474822	0.0	0.0
