17

C	0.0	0.0	0.0
C	-0.339437	-0.24532	-1.49892
Cl	1.852105	0.0	0.0
H	0.240406	0.487343	-2.071718
N	-0.450299	1.243376	0.538812
H	-0.1758	2.019267	-0.049852
H	-1.465837	1.200209	0.608118
N	-0.533734	-1.024702	0.797667
H	-0.219515	-1.947446	0.534425
H	-0.376784	-0.842929	1.778902
C	-1.829284	-0.098501	-1.804083
H	-2.016671	-0.34692	-2.851439
H	-2.451522	-0.724671	-1.167513
H	-2.161268	0.925035	-1.634609
C	0.136924	-1.570209	-1.903828
N	0.483619	-2.646947	-2.221032
Cl	-4.69015	0.0	0.0
