17

C	0.0	0.0	0.0
C	-0.362045	0.245844	-1.495525
Cl	1.820539	0.0	0.0
H	0.224752	1.113905	-1.817963
N	-0.454514	1.007989	0.909322
H	-0.180709	1.930939	0.596972
H	-1.470246	0.945639	0.954392
N	-0.544306	-1.225173	0.434171
H	-0.384831	-1.357793	1.423258
H	-0.218281	-2.017866	-0.099962
C	-1.852508	0.506817	-1.71057
H	-2.146179	1.451117	-1.252396
H	-2.482979	-0.260036	-1.262833
H	-2.067925	0.569184	-2.779927
C	0.087235	-0.890519	-2.303287
N	0.425098	-1.819298	-2.938678
Cl	-4.747747	0.0	0.0
