17

C	0.0	0.0	0.0
C	-0.288277	-0.202066	-1.506144
Cl	1.919136	0.0	0.0
H	0.3551	0.506502	-2.034083
N	-0.433163	1.296839	0.416633
H	-1.452572	1.262881	0.463559
H	-0.073206	1.495313	1.343026
N	-0.507122	-1.056275	0.76315
H	-0.464036	-0.901502	1.759544
H	-0.163275	-1.970115	0.506456
C	-1.748095	0.030054	-1.894197
H	-2.005531	1.082468	-1.778397
H	-2.446938	-0.534509	-1.277497
H	-1.890263	-0.242621	-2.942206
C	0.133436	-1.549042	-1.900241
N	0.431249	-2.635802	-2.230973
Cl	-4.540656	0.0	0.0
