17

C	-0.528284	0.000525	-1.443754
C	0.0	0.0	0.0
F	-0.110565	1.155335	-2.088622
H	1.090578	0.0	0.0
C	0.054874	-1.158124	-2.14643
N	0.422025	-2.07677	-2.777496
C	-2.043156	-0.064963	-1.554098
H	-2.414892	-0.99047	-1.115047
H	-2.316849	-0.03741	-2.609952
H	-2.490051	0.789926	-1.045167
N	-0.486981	-1.148041	0.689547
H	0.178493	-1.414389	1.401298
H	-1.384297	-0.955099	1.114403
N	-0.457463	1.303545	0.63457
O	-1.515825	1.276251	1.275245
O	0.219134	2.303498	0.447929
Cl	3.305163	0.0	0.0
