17

C	-0.401549	-0.031085	-1.494879
C	0.0	0.0	0.0
F	-0.053403	-1.308637	-1.936988
H	1.093407	0.0	0.0
C	-1.866134	0.070769	-1.662342
N	-3.030382	0.13588	-1.804395
C	0.346718	0.977669	-2.339677
H	0.025924	1.994087	-2.11455
H	1.410381	0.881146	-2.108284
H	0.1647	0.761814	-3.394892
N	-0.482973	-1.074484	0.795971
H	-1.436807	-1.331734	0.58025
H	0.136359	-1.863838	0.684856
N	-0.502739	1.30325	0.559229
O	-1.581443	1.277745	1.152515
O	0.163816	2.313356	0.345092
Cl	3.316814	0.0	0.0
