17

C	-0.615806	-0.014707	-1.405199
C	0.0	0.0	0.0
F	-0.068315	0.976177	-2.200743
H	1.097884	0.0	0.0
C	-0.301967	-1.317201	-2.0212
N	-0.124731	-2.354481	-2.541434
C	-2.124389	0.18361	-1.390482
H	-2.357591	1.176148	-1.00164
H	-2.602277	-0.576256	-0.772031
H	-2.506665	0.107213	-2.40943
N	-0.46459	-1.135262	0.735274
H	0.286815	-1.461982	1.329363
H	-1.256727	-0.881378	1.312389
N	-0.429757	1.312517	0.642286
O	0.059362	2.342741	0.197404
O	-1.282689	1.265842	1.535306
Cl	3.26318	0.0	0.0
