13
Coordinates from ORCA-job run
  C   -0.65810086666829      0.27679620012121      0.23202640819897
  C   0.53373114385990     -0.65888389032163     -0.04465036651560
  Br  -0.94452610300935      0.36187415816447      2.17090171394121
  H   0.29462219004425     -1.62225792088734      0.41415257319108
  H   0.54565264924850     -0.80383938573997     -1.13728863663442
  C   -0.31101453420927      1.62238710814049     -0.23370577759036
  N   0.01901057865834      2.65828438993992     -0.67913349515225
  N   -1.90614694389851     -0.12391071275490     -0.37430280352565
  H   -2.14510738181587     -1.06518943200248     -0.08321300137249
  H   -1.82798383369365     -0.09298387228135     -1.38547840040069
  N   1.76655296942786     -0.13997451542938      0.50388009828831
  H   2.39760076012196     -0.88171579462358      0.76874682318049
  H   2.23570937193412      0.46841366767456     -0.15293513560857
