13
Coordinates from ORCA-job run
  C   -0.51872795873502      0.45341550717434      0.12587508181916
  C   0.94408937347695      0.01200245868551      0.00304873254306
  Br  -1.08398320341247     -0.04429674068541      2.04929791175374
  H   1.52415711989205      0.48815053131992      0.80017741783836
  H   1.29313592397843      0.39411977408785     -0.96077765812379
  C   -0.64275325515456      1.90763591883187      0.09639496846491
  N   -0.70537864532620      3.07973959521898      0.04149723595079
  N   -1.29088237529640     -0.15857641171977     -0.86300200659191
  H   -2.28174245257068      0.02288844876189     -0.78696540738278
  H   -1.07510579633628     -1.14900531388061     -0.89698240931892
  N   0.99501674839187     -1.44116766433806     -0.01862483873639
  H   1.81600673071128     -1.75926323793875     -0.51456033366960
  H   1.02716779038105     -1.80564286551776      0.92462130545337
