13
Coordinates from ORCA-job run
  C   -0.59533793469922      0.34814339189621      0.18780513791254
  C   0.54596627980607     -0.65225726547823     -0.03842678842714
  Br  -0.48433256325667      0.94188171756024      2.07305066489458
  H   0.34731352975173     -1.51237654337574      0.61995404910537
  H   0.44283224390124     -0.99461935193686     -1.07437964551377
  C   -0.40626960822562      1.52649324837216     -0.65956667841852
  N   -0.29124818796791      2.42967894895530     -1.40143980658023
  N   -1.92114512738654     -0.17358159136676     -0.02025574106630
  H   -2.03510991014229     -1.05338330587346      0.46982407488495
  H   -2.09519596603870     -0.30624625273960     -1.01039679131878
  N   1.84233201419407     -0.02986818574660      0.12116826521602
  H   2.55603008850238     -0.55308027144076     -0.36666778752812
  H   2.09516514156145      0.02921546117409      1.09833104683938
