13
Coordinates from ORCA-job run
  C   -0.68977799994112      0.33545002274725      0.34599164077961
  C   0.59848301996516     -0.48244492650332      0.55154946180542
  Br  -1.65293418580563      0.37569917956265      2.05115030547166
  H   0.29401349052478     -1.49427215169136      0.83195734816581
  H   1.17450277093707     -0.05622841388172      1.38215382611441
  C   -0.31145728654070      1.71279614948596      0.00786005752708
  N   0.06475664320900      2.78512075920574     -0.29018002382756
  N   -1.58027463178410     -0.17155207034397     -0.67144186345042
  H   -1.96151368559888     -1.05960098489876     -0.36220565549150
  H   -1.00722780207313     -0.33897599297572     -1.49546063361716
  N   1.29900787591803     -0.51921492548688     -0.72583953378264
  H   1.92088557107070      0.27441413265395     -0.81597130616715
  H   1.85153622011885     -1.36119077787381     -0.81156362352756
