13
Coordinates from ORCA-job run
  C   -0.57712779360621      0.37772832374023      0.11738443026720
  C   0.92994170642997      0.09873114594819      0.13552603843725
  Br  -1.31581040771104     -0.47158322008124      1.84920730286365
  H   1.35056889924994      0.49287945456140      1.06634781391066
  H   1.34958462449594      0.66096957616290     -0.70390523517699
  C   -0.86028290441613      1.79986993740773      0.28474630102899
  N   -1.05814871419407      2.95341515077341      0.39117600147313
  N   -1.14757565394305     -0.13651632962493     -1.04843916985096
  H   -0.81728280261878     -1.08399273720377     -1.19697543369914
  H   -2.15465561261794     -0.06461762780385     -1.08378757203785
  N   1.14680774845734     -1.32103791708033     -0.09202135831265
  H   1.09626590610517     -1.82791988148904      0.78222088991991
  H   2.05671500436887     -1.47892587531069     -0.50248000882322
