13
Coordinates from ORCA-job run
  C   -0.67311513452590      0.21279074795733      0.40406042290431
  C   0.67958059339752     -0.48944340677325      0.57308592950011
  Br  -1.57147326029617      0.24649234184059      2.15171367561639
  H   0.45678889390666     -1.50664413122427      0.90137874253819
  H   1.24764798136531      0.01781588198372      1.36085331018338
  C   -0.44326676624084      1.61789570027350      0.02636586787719
  N   -0.21544934007972      2.71255666516316     -0.33867827658585
  N   -1.46799050475292     -0.52981841219752     -0.52732845012451
  H   -0.88188094031430     -0.70931912143390     -1.33817028727757
  H   -2.29748836924005     -0.01877966513757     -0.80279480858324
  N   1.33350279786177     -0.52803686677756     -0.72952637282614
  H   1.94280974317677     -1.33114866707151     -0.80140580333037
  H   1.88933430574192      0.30463893339729     -0.87855394989194
