13
Coordinates from ORCA-job run
  C   -0.56930023646779      0.28417132206944      0.03432932298416
  C   0.58996744917937     -0.70959748446225     -0.03334014376853
  Br  -0.53666234799683      1.07859432820035      1.91471877127132
  H   0.36105172724457     -1.52243847050340      0.67311186008616
  H   0.55831065303692     -1.12409208766647     -1.04514290330316
  C   -0.35094906115993      1.42022328074591     -0.85816558892104
  N   -0.21945936176970      2.31085600059620     -1.61251697898265
  N   -1.79381321607508     -0.35031217712229     -0.26816699455103
  H   -1.97970333275375     -1.11680827412138      0.36668297439367
  H   -2.57568802211116      0.29195042052546     -0.26621925537065
  N   1.86099299440532     -0.04951085922148      0.16992813873719
  H   2.61102414703779     -0.59572660471686     -0.23007094607498
  H   2.04622860743027      0.08369060567677      1.15485174349953
