13
Coordinates from ORCA-job run
  C   -0.62290218113038      0.16693320729189      0.24628879575733
  C   0.59490027373907     -0.72289008878294     -0.02473393908434
  Br  -0.92659978948987      0.30560487482722      2.17086593267564
  H   0.39914942597043     -1.67120607205822      0.47852280105485
  H   0.59830904771869     -0.91673459495314     -1.10997324531653
  C   -0.34390376994452      1.52866624629263     -0.23983816968144
  N   -0.11456956955011      2.57735461875451     -0.72034040048498
  N   -1.79576696889776     -0.44209926027798     -0.34024850804646
  H   -2.62485596879212      0.09765862113945     -0.12019774669793
  H   -1.69119788585524     -0.46899882207429     -1.35001428694197
  N   1.81013205928917     -0.11847332511073      0.47633494740570
  H   2.23515244261736      0.48526187711395     -0.21418553429063
  H   2.48215288432527     -0.82107728216235      0.74751935365077
