13
Coordinates from ORCA-job run
  C   -0.56851751222863      0.37833477481529      0.15311869622681
  C   0.93688892610292      0.10096729404715      0.07176074815124
  Br  -1.18533895993463     -0.45100485826401      1.94102109031096
  H   1.41874166163722      0.50504743236054      0.96792775456702
  H   1.29778088602764      0.65386085767520     -0.80046534307493
  C   -0.84211051753776      1.80244327434835      0.32136950218156
  N   -1.03495174562666      2.95703834627276      0.42400095368471
  N   -1.21624920226128     -0.14995330201389     -0.96496582643982
  H   -0.89645729760987     -1.09899461650824     -1.12513652464234
  H   -2.22330199876165     -0.07662406656566     -0.93400822269998
  N   1.14011966608190     -1.32131556053065     -0.15399375764163
  H   1.15529972528034     -1.81789848746744      0.72740022961523
  H   2.01809636883043     -1.48190108816934     -0.62802930023886
