13
Coordinates from ORCA-job run
  C   -0.51831042305564      0.45733277766453      0.11552257899816
  C   0.94359093903096      0.00509021409934      0.02593919531578
  Br  -1.13257101279762     -0.04146439258671      2.02328311179467
  H   1.31840299703974      0.38684125576787     -0.92832433318315
  H   1.50830813538541      0.47450762276982      0.83786986404299
  C   -0.63131066517753      1.91246490597813      0.08679383328009
  N   -0.68561343307964      3.08507383680537      0.03304764680550
  N   -1.27124633272993     -0.14656345812101     -0.89321771318171
  H   -1.06192365884945     -1.13846527542319     -0.92288460163125
  H   -2.26217594941271      0.04228495440401     -0.84018101631251
  N   0.98424801811719     -1.44828273243236      0.00127768714327
  H   1.80996983790207     -1.77155424793753     -0.48359472703364
  H   0.99863154762714     -1.81626546098826      0.94346847396180
