13
Coordinates from ORCA-job run
  C   -0.50848997926257      0.46127675081911      0.13770415547458
  C   0.94292026673666      0.00526032009393     -0.04876340016620
  Br  -0.97140092707469      0.03366703762650      2.10502899636296
  H   1.24129513298649      0.35118552372032     -1.04276967998857
  H   1.56827773476826      0.50420608951735      0.69858994852072
  C   -0.62648202100874      1.91442180320912      0.06534153291090
  N   -0.68676192987955      3.08444379146163     -0.02575321095565
  N   -1.33655531462862     -0.17839814939067     -0.78625575461407
  H   -2.32073419150522      0.01351380864693     -0.66355353219926
  H   -1.12897337247307     -1.17107037851647     -0.79734011589640
  N   0.98461791929624     -1.44818693098644     -0.02218368475278
  H   1.77541356578638     -1.78926469490543     -0.55093772297263
  H   1.06687311625841     -1.78005497129589      0.92989246827641
