13
Coordinates from ORCA-job run
  C   -0.55857916132645      0.20016334449386      0.00061291677946
  C   0.62773576013008     -0.78760029045556     -0.05708230512585
  Br  -0.92343097159620      0.56279344045356      1.97509942031843
  H   0.30046367521462     -1.71024078989924      0.43307559915702
  H   0.76975256990794     -1.00527055991065     -1.12023291106366
  C   -0.17229909662697      1.49922389143487     -0.54544493835686
  N   0.14791076539964      2.52276694919334     -1.02593516169155
  N   -1.67574657608968     -0.31464915174549     -0.68698971343748
  H   -1.95061355857603     -1.21865711407893     -0.32301301377088
  H   -2.46846899272639      0.31406695879390     -0.68452665726098
  N   1.87958294229382     -0.36507592866475      0.51046494730013
  H   1.78031242332733     -0.14657383435268      1.49279335435527
  H   2.24538022066828      0.44705308473776      0.03017846279694
