13
Coordinates from ORCA-job run
  C   -0.48451462668255      0.31887828947010      0.18664874034799
  C   1.03235967898871      0.02658596195897      0.13753987874433
  Br  -1.21946668182328     -0.30630265864201      1.89479536629690
  H   1.52258725071307      0.58910227915685      0.93479537663623
  H   1.38608029438239      0.43987306997595     -0.81622076503895
  C   -0.71618871733649      1.76880798280928      0.13790789962733
  N   -0.86332423588856      2.93031690678912      0.02326131261938
  N   -1.14347668033446     -0.42038608707232     -0.86865240204057
  H   -2.14930440680519     -0.30638982578883     -0.81547998166449
  H   -0.83021467472691     -0.06251692674546     -1.76684483659832
  N   1.40294375215407     -1.36345528128800      0.21835069033826
  H   1.23380107456427     -1.71342959519468      1.15268112053432
  H   0.82871797279494     -1.90208411542897     -0.41878239980242
