13
Coordinates from ORCA-job run
  C   -0.59658128742113      0.33996821466534      0.19363345076809
  C   0.55497674473302     -0.64548651190592     -0.04494169016266
  Br  -0.47099075748025      0.93774386864830      2.07716314331923
  H   0.44382387502574     -0.99049588104931     -1.07920212729192
  H   0.37478623593537     -1.50737948056066      0.61658157043646
  C   -0.43410003335501      1.52020399084630     -0.65670311473612
  N   -0.34596141461771      2.42539633977041     -1.39993985094268
  N   -1.91755836023849     -0.19934800052489      0.00241892527575
  H   -2.01499857853110     -1.07926405156973      0.49576783357057
  H   -2.10287802313306     -0.33540950841025     -0.98512284662791
  N   1.84488494876822     -0.00632277636394      0.09772487686155
  H   2.56086569571102     -0.52601903582134     -0.39061474164720
  H   2.10473095460338      0.06541283227567      1.07223457117684
