13
Coordinates from ORCA-job run
  C   -0.67226614565726      0.34682067935895      0.37021477375058
  C   0.61660974692088     -0.47976659225264      0.53188145432614
  Br  -1.55868535108499      0.42234975955995      2.11577625799078
  H   1.23126734795231     -0.04795606628096      1.33130219181402
  H   0.31563013777316     -1.48475249687647      0.83962526938676
  C   -0.29635624972426      1.71509459909637     -0.00524793420747
  N   0.08733449334095      2.77752847000395     -0.32839022326186
  N   -1.61181088699757     -0.16701248639257     -0.59838911719072
  H   -1.97885258470608     -1.05155479529934     -0.26272346980870
  H   -1.07950574056334     -0.34427691681464     -1.44730904508206
  N   1.26122699894913     -0.54087629289916     -0.77329537355989
  H   1.79986159284296     -1.39023241431990     -0.87266021705420
  H   1.88654664095409      0.24463455311644     -0.90178456710338
