13
Coordinates from ORCA-job run
  C   -0.52557254834449      0.44494701201980      0.17704332422207
  C   0.95686849539410     -0.01638694528764      0.20431255592983
  Br  -1.33939412791411     -0.06892769727423      1.90405693680943
  H   1.45437203275945      0.46587587351765      1.04927637218050
  H   1.41147756169330      0.37449930151786     -0.71366851976327
  C   -0.56334013876034      1.90513586521499      0.09348839237896
  N   -0.51091254491258      3.07434208063967     -0.01389734209850
  N   -1.34994833995479     -0.10817495640738     -0.86615496820609
  H   -1.06175422469821      0.24937998295028     -1.77070937164726
  H   -1.29238906071493     -1.11934853358182     -0.85915473005823
  N   1.19115125099052     -1.43676337948704      0.26413761744129
  H   0.85640875188112     -1.91653447662053     -0.55967688047558
  H   0.77403289258094     -1.84704412720163      1.08894661328688
