13
Coordinates from ORCA-job run
  C   -0.43890404127372      0.45453928771289      0.10967808142937
  C   1.03132391383096     -0.01641917102751      0.17717654449466
  Br  -1.28737655967214     -0.04484353642515      1.90167911415476
  H   1.48581091994907      0.42338020137640      1.06661494705124
  H   1.52265850934527      0.40993667700904     -0.70277046079095
  C   -0.50977758153577      1.91160731223605      0.06012218402509
  N   -0.54084136572631      3.08428987476548     -0.01124405690860
  N   -1.11140126140952     -0.11072157356369     -0.99252328927309
  H   -2.06392924156863      0.21853819312798     -1.08187562589021
  H   -1.10458739725814     -1.12112280526722     -0.93889376930481
  N   1.24521668449210     -1.44045477192079      0.18026896633450
  H   1.01827723484190     -1.87115343392861     -0.70430645075314
  H   0.75353018598491     -1.89757625409487      0.93607381543117
