13
Coordinates from ORCA-job run
  C   -0.55211248018167      0.22541708197826      0.03527352693981
  C   0.60398535400351     -0.79830703482101      0.10081197343245
  Br  -0.52035799127160      1.25920111955631      1.79321203974456
  H   0.53286335106514     -1.37139725483656     -0.82885567309810
  H   0.38312311133408     -1.47673559116727      0.93120726742602
  C   -0.28379457175928      1.23271278495624     -0.98861533976908
  N   -0.03000854015062      2.00537086792246     -1.83694936847942
  N   -1.78082562338678     -0.42000166986134     -0.20957128303905
  H   -2.56063967734153      0.22139820165186     -0.27464025025984
  H   -1.97360617357072     -1.12703502006764      0.48914678024385
  N   1.94166490572879     -0.29107206862442      0.24335720285064
  H   2.03831673199747      0.25146308708243      1.09124282419124
  H   2.20139160353322      0.28698549623070     -0.54561970018306
