13
Coordinates from ORCA-job run
  C   -0.64738332742060      0.28286311190154      0.25213490970532
  C   0.52804551753342     -0.66274246123486     -0.05841662629012
  Br  -0.86597253914859      0.38457959967225      2.19901109661006
  H   0.29881650761499     -1.62104327373044      0.41585875388130
  H   0.50117992899816     -0.81651731660757     -1.14961316431304
  C   -0.30833334346263      1.62269072518964     -0.23550929737341
  N   0.00828692519811      2.65493136800889     -0.69876695854989
  N   -1.91842872840017     -0.11384121458098     -0.30726282902768
  H   -1.87421438487780     -0.09471532206342     -1.32079186035480
  H   -2.15522720294246     -1.04972299345905      0.00236547737152
  N   1.78234230020335     -0.14809280469215      0.44296274903927
  H   2.41780921823203     -0.89160364480559      0.69164534120184
  H   2.23207912847221      0.45321422640171     -0.23361759190040
