13
Coordinates from ORCA-job run
  C   -0.56034009776646      0.18514227840649      0.18956516985038
  C   0.65555455598973     -0.76311815903215      0.13351132664077
  Br  -0.61037180699070      1.06204586581116      1.94657866753418
  H   0.58235481085786     -1.30144275889466     -0.81987888323477
  H   0.51304338984838     -1.49082169609399      0.93557307168730
  C   -0.38894892008573      1.25955241092144     -0.80209354342875
  N   -0.24841784361236      2.05389155033848     -1.65833342655208
  N   -1.77326671817982     -0.57858139150053      0.04704768184660
  H   -2.58935378965651      0.02164745187949      0.07779526584579
  H   -1.76265558815142     -1.06566050748788     -0.84375860812246
  N   1.96535680907310     -0.17269239875237      0.22520641130079
  H   2.13518061782079      0.47536396544551     -0.53333883293990
  H   2.08186458085315      0.31567338895898      1.10312569957215
