13
Coordinates from ORCA-job run
  C   -0.55509085198938      0.27589898583561      0.26747045535202
  C   0.70208686124467     -0.53466723849746      0.64168500848178
  Br  -1.61632881544989      0.52615138636965      1.97395558672226
  H   0.36047983736242     -1.52075880255717      0.97462169696461
  H   1.18987550347948     -0.05605637968809      1.49198383791614
  C   -0.18691024580725      1.62198160267248     -0.16738486604000
  N   0.14410765497715      2.68586331664907     -0.54072676131579
  N   -1.28330358098439     -0.38161159412306     -0.75589297339247
  H   -1.60463178666924     -1.28980146207833     -0.44107339320499
  H   -2.07358374015359      0.16077884438340     -1.08149940160546
  N   1.64794513029129     -0.68225577638016     -0.43961462286036
  H   1.17781970096217     -1.00564690828787     -1.27519798830058
  H   2.09753433273657      0.20012402570194     -0.64932657871717
