13
Coordinates from ORCA-job run
  C   -0.51607099542419      0.43805722977638      0.21580434707324
  C   0.97035563999105     -0.00438655107870      0.13627210706063
  Br  -1.19608335797232     -0.08492958983724      1.99738558319456
  H   1.35250288587850      0.39123398282110     -0.81217326237031
  H   1.52114386775757      0.48499330724683      0.94326797234160
  C   -0.57977226045706      1.89730620422026      0.13466758282344
  N   -0.56564925117480      3.06661796689594      0.01809900606187
  N   -1.40579943898794     -0.12672762182955     -0.76530890483084
  H   -1.32915049832579     -1.13663893399672     -0.76759860246682
  H   -1.19404032964465      0.23972284567630     -1.68717731581080
  N   1.22624836946019     -1.42156280036002      0.17856499611532
  H   0.84545850803587     -1.90545337405402     -0.62242861644752
  H   0.87085686086358     -1.83823266548058      1.02862510725567
