13
Coordinates from ORCA-job run
  C   -0.49202018655427      0.45171159734764      0.24066275842029
  C   0.97879597073444     -0.00659793373896      0.04696154371103
  Br  -1.00931652369543      0.01763421394175      2.09909316456053
  H   1.60249026789000      0.51389077659807      0.77783494072405
  H   1.27510646942110      0.34306207512051     -0.94907285908027
  C   -0.55588875095797      1.90664537712849      0.09812815964791
  N   -0.54720284945015      3.06932675182129     -0.07261764479204
  N   -1.47070655405520     -0.14912985669513     -0.62782833069290
  H   -1.33981361567207      0.17012675182937     -1.58176672414464
  H   -1.40189526000717     -1.15882475549086     -0.58763002773769
  N   1.23164857764716     -1.42234278466713      0.13134722144880
  H   0.77247628731162     -1.94016391360569     -0.60475177470776
  H   0.95832616738795     -1.79533829958938      1.03063957264269
