16
Coordinates from ORCA-job run
  C   -0.78426034493197     -0.13780007054831      0.43732448271581
  C   0.69734795762274      0.18874304493362      0.55343158450576
  F   -1.27697043083065     -0.55384203024952      1.60800340941910
  H   0.74533812333353      1.01617108582815      1.27009758492249
  N   -1.04463955232378     -1.20588523492222     -0.60816003599404
  O   -0.95534119285795     -0.81644221354668     -1.76620965461999
  O   -1.27557466087139     -2.33278329853209     -0.20018514400055
  N   -1.63486087352153      1.05702639907379      0.02831933492686
  O   -2.79490655413079      0.78807913790712     -0.25127951863940
  O   -1.11555590268783      2.16495014101356      0.09325661952798
  C   1.39926039700947      0.59800294379334     -0.74657599269748
  H   1.45378460242212     -0.23333400287404     -1.44733061296099
  H   0.88384178467344      1.43250261792787     -1.21767595527743
  H   2.41549103780075      0.90932476728951     -0.50086463366405
  C   1.36041830454776     -0.97403914007944      1.15088352277706
  N   1.92762730474607     -1.89967414701468      1.59796500905886
