16
Coordinates from ORCA-job run
  C   -0.66170757645225     -0.21387213765246      0.30329524413488
  C   0.68500778915049      0.41463639297020      0.00516815552154
  F   -0.56853306891355     -1.28534489069952      1.08136284695623
  H   0.49689855751495      1.31925051321821     -0.57742087364689
  N   -1.32605308756705     -0.61648842734205     -1.00903075169163
  O   -1.55867127004142     -1.80239730514899     -1.17494076519913
  O   -1.52780241659356      0.31571266624415     -1.77790944654811
  N   -1.64494127364709      0.75758100466846      0.95044547524710
  O   -2.60257127709854      0.22987637912559      1.49894183030458
  O   -1.40029711087465      1.95136720926184      0.83662572008387
  C   1.57349976167192     -0.55953781278100     -0.77812721565788
  H   1.15152156843339     -0.75369740186190     -1.76559390535078
  H   1.68453735272917     -1.50269423396961     -0.24245830361004
  H   2.56071084427911     -0.11741959782571     -0.91296786802488
  C   1.30492320703809      0.79344349240160      1.27560222493348
  N   1.83147800037100      1.06858414939119      2.28800763254766
