15

C	-0.627643	0.004183	-1.365252
C	0.0	0.0	0.0
Br	0.073816	-1.639626	-2.300155
H	1.087605	0.0	0.0
H	-1.699608	-0.173391	-1.305611
N	-0.346257	1.220548	-2.023372
H	-0.884346	1.333029	-2.870913
H	0.640546	1.345666	-2.216551
N	-0.463991	-1.143043	0.841085
O	-1.589239	-1.604231	0.641786
O	0.356421	-1.569693	1.652603
N	-0.455376	1.241003	0.714253
O	-1.659225	1.346291	0.945224
O	0.411873	2.058027	1.000484
Br	2.756055	0.0	0.0
