15

C	-0.448555	0.014484	-1.444706
C	0.0	0.0	0.0
Br	-2.446776	0.552817	-1.55984
H	1.09039	0.0	0.0
H	0.027027	0.877446	-1.905091
N	-0.139223	-1.159419	-2.119786
H	-0.642261	-1.961007	-1.770855
H	-0.20598	-1.069908	-3.121441
N	-0.460131	-1.16383	0.803261
O	-1.28804	-1.934478	0.310262
O	0.050327	-1.27939	1.910207
N	-0.433607	1.258428	0.683033
O	-0.034313	2.283312	0.141425
O	-1.139389	1.190177	1.682051
Br	3.314221	0.0	0.0
