15

C	0.0	0.0	0.0
C	-0.420904	0.017836	-1.458673
F	1.401234	0.0	0.0
H	-0.039109	-0.902001	-1.919301
H	-0.305963	0.932384	0.487934
H	0.115819	0.848401	-1.931953
C	-0.510605	-1.184568	0.78338
H	-0.233994	-2.115966	0.28175
H	-0.079734	-1.186846	1.787396
H	-1.598638	-1.13612	0.869091
C	-1.92161	0.158528	-1.679016
H	-2.144589	0.244309	-2.745695
H	-2.331285	1.039724	-1.183595
H	-2.498575	-0.678514	-1.289968
Br	-5.142648	0.0	0.0
