13

C	0.0	0.0	0.0
C	-0.544932	0.058053	-1.43484
Cl	1.790478	0.0	0.0
H	0.168311	-0.47312	-2.071616
H	-0.297204	-0.937094	0.476794
H	-0.542713	1.102357	-1.757874
C	-0.458739	1.120944	0.815031
N	-0.754071	2.076433	1.432475
C	-1.933256	-0.561214	-1.573854
H	-2.680975	-0.200442	-0.867563
H	-2.308642	-0.328009	-2.577235
H	-1.874386	-1.653935	-1.479334
Cl	-5.0122	0.0	0.0
