16

C	0.0	0.0	0.0
C	-0.497863	0.066354	-1.429734
F	1.411323	0.0	0.0
H	-0.163729	1.018141	-1.863399
H	-1.593507	0.09552	-1.33826
N	-0.373512	1.216682	0.688502
H	-0.050597	1.159995	1.648653
H	0.090613	2.000556	0.241826
N	-0.498726	-1.17225	0.637731
H	-0.200519	-1.171058	1.609965
H	-1.528881	-1.042113	0.616426
C	-0.019276	-1.103692	-2.275247
H	-0.423791	-1.037049	-3.289754
H	1.071999	-1.124804	-2.339197
H	-0.352236	-2.041793	-1.830731
H	-3.409085	0.0	0.0
