16

C	0.0	0.0	0.0
C	-0.448133	0.040069	-1.454665
F	1.388121	0.0	0.0
H	-1.544067	0.055785	-1.431429
H	-0.095641	0.994688	-1.858061
N	-0.444183	1.215951	0.643926
H	-1.470755	1.162577	0.552068
H	-0.24701	1.126764	1.638675
N	-0.442992	-1.240384	0.598305
H	-0.193521	-1.214307	1.582024
H	-1.471245	-1.168944	0.548962
C	0.077617	-1.129294	-2.27622
H	-0.250412	-1.044935	-3.317711
H	1.170153	-1.157138	-2.263125
H	-0.287965	-2.073681	-1.871887
H	-3.12083	0.0	0.0
