16

C	0.0	0.0	0.0
C	-0.380262	0.056467	-1.476753
F	1.411963	0.0	0.0
H	0.347849	-0.578684	-1.992433
H	-0.19531	1.085449	-1.81162
N	-0.459352	1.165172	0.689693
H	-0.270224	1.094188	1.681825
H	-0.017888	1.993848	0.317878
N	-0.436494	-1.22028	0.607924
H	-1.457253	-1.205126	0.607091
H	-0.133919	-1.231625	1.579184
C	-1.803407	-0.373237	-1.800311
H	-2.572449	0.015551	-1.117015
H	-1.887973	-1.464575	-1.76487
H	-2.071639	-0.061475	-2.815728
H	-4.375614	0.0	0.0
