16

C	0.0	0.0	0.0
C	-0.412476	-0.068435	-1.465615
F	1.41625	0.0	0.0
H	-1.508308	-0.111622	-1.45385
H	-0.035614	-1.020167	-1.862891
N	-0.470606	1.218521	0.584112
H	-1.494527	1.166318	0.455221
H	-0.314481	1.126542	1.584644
N	-0.426329	-1.136407	0.78022
H	-0.179611	-1.986065	0.279037
H	-1.454688	-1.061237	0.759201
C	0.0985	1.095735	-2.304935
H	-0.25857	2.039085	-1.891585
H	1.190691	1.123143	-2.310522
H	-0.251468	1.01342	-3.339516
H	-3.100342	0.0	0.0
