16

C	0.0	0.0	0.0
C	-0.447293	-0.047679	-1.452931
F	1.41561	0.0	0.0
H	-1.540454	0.055506	-1.399119
H	-0.029657	0.82583	-1.970566
N	-0.403299	1.243498	0.579274
H	0.107193	1.995895	0.134431
H	-0.172229	1.210879	1.565156
N	-0.515018	-1.030519	0.846053
H	-0.331696	-1.933562	0.423466
H	-1.540982	-0.871757	0.800681
C	-0.03628	-1.32361	-2.177316
H	-0.566882	-2.189655	-1.772385
H	1.039629	-1.502676	-2.093544
H	-0.291515	-1.263857	-3.23946
H	-3.34643	0.0	0.0
