16

C	0.0	0.0	0.0
C	-0.416266	0.076066	-1.467569
F	1.397715	0.0	0.0
H	-1.511897	0.108874	-1.46279
H	-0.034843	1.026293	-1.855194
N	-0.479168	1.170559	0.669999
H	-1.498578	1.149412	0.500968
H	-0.365428	0.991708	1.665216
N	-0.423816	-1.187584	0.70441
H	-0.129032	-2.011885	0.191123
H	-1.451454	-1.137831	0.667267
C	0.095715	-1.083288	-2.312981
H	1.181217	-1.185504	-2.231068
H	-0.152559	-0.929969	-3.36736
H	-0.365086	-2.028088	-2.01063
H	-3.13204	0.0	0.0
