16

C	0.0	0.0	0.0
C	-0.238419	-0.01912	-1.522099
F	1.413403	0.0	0.0
H	0.255114	0.879397	-1.91582
H	0.352573	-0.864448	-1.898549
N	-0.463185	1.209485	0.582848
H	0.077673	1.987261	0.234121
H	-0.3879	1.151163	1.589223
N	-0.542396	-1.079127	0.758233
H	-1.555415	-0.903422	0.793525
H	-0.410662	-1.945202	0.248849
C	-1.669357	-0.09779	-2.020411
H	-2.323789	0.622373	-1.530385
H	-1.682118	0.045592	-3.108817
H	-2.131354	-1.058437	-1.795029
H	-3.935935	0.0	0.0
