14
Coordinates from ORCA-job run
  C   0.65393054947931      0.09266747535533     -0.24369614208191
  C   -0.58117981999730      0.93339920647816      0.08551467704804
  H   0.75898711563424      0.06531998661710     -1.33286082519899
  H   -0.75622608240902      1.00304074067517      1.15804549231702
  H   -0.51687842017895      1.92725155189654     -0.36004205213479
  C   0.53945189743172     -1.33484163206073      0.29835917582907
  H   1.44813637851172     -1.89788470994248      0.08193386740032
  H   0.38625722024083     -1.32693611298624      1.37951081158629
  H   -0.29941843076568     -1.85107442156259     -0.17175869561583
  C   1.82581625106454      0.77303666427648      0.31106355767883
  N   2.75579408799324      1.31702867611128      0.77772553665643
  N   -1.77834328845053      0.27066206171008     -0.50937987832615
  O   -1.75474485956007      0.09553910477060     -1.72544652958174
  O   -2.68158259899406     -0.06720859133869      0.25103100442341
