16

C	0.0	0.0	0.0
C	-0.541817	-0.057612	-1.455954
Br	1.971967	0.0	0.0
H	-1.612886	-0.258649	-1.340686
C	-0.333583	1.332531	0.543924
N	-0.543643	2.399628	0.992728
N	-0.475315	-1.111611	0.755348
H	-0.243907	-0.985701	1.734578
H	-1.499312	-1.105439	0.660983
N	0.05026	-1.253384	-2.153635
O	1.036391	-1.063339	-2.863382
O	-0.496805	-2.337586	-1.964717
N	-0.350071	1.100068	-2.259133
H	0.578417	1.48908	-2.156099
H	-1.052455	1.786521	-2.01717
Cl	-3.478078	0.0	0.0
