16

C	0.0	0.0	0.0
C	-0.410943	0.133878	-1.512943
Br	2.006166	0.0	0.0
H	0.485552	0.000814	-2.121091
C	-0.342478	1.11833	0.886216
N	-0.566399	1.929746	1.706791
N	-0.532937	-1.169047	0.50945
H	-0.638144	-1.92558	-0.146057
H	-0.317788	-1.398482	1.463718
N	-0.75858	1.603985	-1.858078
O	-1.618364	1.775518	-2.713407
O	-0.047193	2.475157	-1.365651
N	-1.387776	-0.810296	-1.870741
H	-2.256272	-0.641252	-1.32962
H	-1.592249	-0.745988	-2.859209
Cl	-3.771729	0.0	0.0
