16

C	0.0	0.0	0.0
C	-0.605913	0.158111	-1.399956
Br	1.976007	0.0	0.0
H	-1.691603	0.005362	-1.219034
C	-0.30832	1.224154	0.761121
N	-0.468645	2.162822	1.449039
N	-0.517798	-1.104719	0.679732
H	-0.526389	-1.957233	0.145216
H	-0.192022	-1.205179	1.626299
N	-0.134665	-0.991253	-2.298945
O	0.338063	-0.698275	-3.39483
O	-0.277957	-2.14297	-1.891902
N	-0.342423	1.427641	-1.955045
H	-1.060729	1.683457	-2.616425
H	0.565159	1.464179	-2.399125
Cl	-3.666483	0.0	0.0
