16

C	-0.545103	0.032901	-1.416456
C	0.0	0.0	0.0
F	-0.044635	-1.08614	-2.066679
H	1.087648	0.0	0.0
H	-1.634001	-0.066496	-1.398813
C	-0.077641	1.267889	-2.153315
H	1.005314	1.362618	-2.056305
H	-0.551432	2.170276	-1.764253
H	-0.342196	1.16362	-3.20749
N	-0.500621	-1.171892	0.779854
O	-0.015166	-1.3023	1.898417
O	-1.359054	-1.895695	0.277998
N	-0.505987	1.206281	0.722882
O	-1.652084	1.141825	1.172648
O	0.221967	2.190086	0.757042
Cl	3.238682	0.0	0.0
