16

C	-0.525383	0.060018	-1.423856
C	0.0	0.0	0.0
F	-0.058974	-1.078155	-2.067638
H	1.087667	0.0	0.0
H	-1.617295	0.004433	-1.425688
C	0.011863	1.27379	-2.147321
H	-0.427454	2.196557	-1.766404
H	-0.233357	1.18293	-3.207667
H	1.095688	1.317709	-2.025198
N	-0.513692	-1.184638	0.750974
O	0.005099	-1.378201	1.846841
O	-1.417647	-1.853325	0.253486
N	-0.506871	1.193591	0.742608
O	-1.653898	1.122256	1.187954
O	0.225496	2.173615	0.801592
Cl	3.246784	0.0	0.0
