16

C	-0.45137	-0.027238	-1.44279
C	0.0	0.0	0.0
F	-1.844071	-0.070419	-1.519753
H	1.090179	0.0	0.0
H	-0.130994	0.917881	-1.884606
C	0.137953	-1.204148	-2.184929
H	-0.274885	-2.141435	-1.808784
H	-0.100152	-1.116438	-3.246867
H	1.221795	-1.216623	-2.047234
N	-0.544392	-1.18071	0.725368
O	-1.669938	-1.082666	1.210873
O	0.148998	-2.194834	0.711814
N	-0.432454	1.232183	0.728467
O	-0.331419	1.205544	1.949417
O	-0.778571	2.201686	0.057501
Cl	3.207246	0.0	0.0
