16

C	-0.550531	0.046245	-1.423402
C	0.0	0.0	0.0
F	-0.519556	-1.271652	-1.887773
H	1.095889	0.0	0.0
H	-1.600123	0.348734	-1.405148
C	0.299462	0.896357	-2.334985
H	0.233419	1.944059	-2.041573
H	-0.057792	0.787716	-3.362034
H	1.341148	0.57579	-2.266852
N	-0.573049	-1.192482	0.688739
O	-1.791875	-1.159919	0.871358
O	0.178056	-2.111535	0.983356
N	-0.435782	1.177989	0.80698
O	-0.287024	1.09094	2.021033
O	-0.874676	2.159522	0.207591
Cl	3.239786	0.0	0.0
