16

C	-0.533522	-0.10224	-1.417853
C	0.0	0.0	0.0
F	-0.001161	-1.255776	-1.974016
H	1.090228	0.0	0.0
H	-1.620307	-0.222751	-1.401664
C	-0.083898	1.081449	-2.246549
H	-0.585716	2.000599	-1.938883
H	-0.328365	0.885974	-3.292529
H	0.995603	1.209209	-2.143559
N	-0.496212	-1.092932	0.890267
O	-0.093529	-1.04845	2.048659
O	-1.259494	-1.936557	0.424464
N	-0.520494	1.265303	0.597646
O	0.223638	2.238311	0.616052
O	-1.697538	1.24884	0.967264
Cl	3.235102	0.0	0.0
