16

C	-0.541986	0.049564	-1.426821
C	0.0	0.0	0.0
F	-0.475037	-1.26449	-1.898485
H	1.090924	0.0	0.0
H	-1.599	0.323653	-1.413398
C	0.291686	0.922319	-2.33125
H	1.3437	0.645994	-2.239707
H	0.178283	1.969923	-2.057022
H	-0.039433	0.784478	-3.36404
N	-0.572232	-1.198343	0.679571
O	0.188699	-2.096212	1.008702
O	-1.796664	-1.190447	0.821782
N	-0.443807	1.171045	0.811457
O	-0.341931	1.064414	2.029033
O	-0.845433	2.165875	0.212138
Cl	3.23976	0.0	0.0
