16

C	-0.518921	0.011167	-1.420184
C	0.0	0.0	0.0
F	-1.904597	-0.176485	-1.413332
H	1.089758	0.0	0.0
H	-0.33409	1.010879	-1.816499
C	0.127963	-1.044236	-2.283966
H	-0.221509	-0.925157	-3.312523
H	-0.134853	-2.042071	-1.932771
H	1.214558	-0.935927	-2.242277
N	-0.514158	-1.207064	0.713772
O	-1.5309	-1.093906	1.392544
O	0.098741	-2.249502	0.50283
N	-0.427162	1.199826	0.787721
O	-0.106722	1.1978	1.9713
O	-1.009509	2.111853	0.20132
Cl	3.21069	0.0	0.0
