18

C	0.0	0.0	0.0
C	-0.561356	0.049217	-1.428263
F	1.386379	0.0	0.0
H	-1.659947	-0.031048	-1.24047
C	-0.419311	1.24213	0.68549
N	-0.604864	2.249987	1.258779
C	-0.480994	-1.212579	0.775741
H	-1.576445	-1.144802	0.746842
H	-0.082389	-1.166094	1.79274
H	-0.119661	-2.121291	0.29211
N	-0.09473	-1.179721	-2.141883
O	1.023377	-1.16744	-2.663758
O	-0.857903	-2.145877	-2.172549
C	-0.124948	1.273876	-2.203648
H	-0.457156	1.202564	-3.242702
H	-0.590372	2.155071	-1.758521
H	0.959672	1.38903	-2.193215
F	-2.822297	0.0	0.0
