18

C	0.0	0.0	0.0
C	-0.265712	0.025533	-1.539575
F	1.390846	0.0	0.0
H	0.010462	-0.974002	-1.884347
C	-0.420025	1.233252	0.691074
N	-0.63817	2.194498	1.328264
C	-0.613316	-1.207327	0.650297
H	-0.279378	-2.112919	0.135933
H	-0.314271	-1.253816	1.700765
H	-1.708211	-1.040539	0.552089
N	0.792968	0.900026	-2.167181
O	1.530807	0.384554	-3.008448
O	0.822649	2.083204	-1.840365
C	-1.597661	0.459755	-2.101643
H	-2.415087	0.013409	-1.498331
H	-1.711167	1.537166	-1.965585
H	-1.617905	0.217443	-3.169416
F	-3.083564	0.0	0.0
