18

C	0.0	0.0	0.0
C	-0.416375	-0.330439	-1.456924
F	1.394722	0.0	0.0
H	0.505999	-0.199145	-2.037466
C	-0.413134	1.318599	0.510075
N	-0.496426	2.335727	1.092664
C	-0.372126	-1.043624	1.051892
H	-1.459922	-1.066148	1.096676
H	0.068925	-2.006731	0.786939
H	0.0641	-0.719049	2.000669
N	-1.321834	0.694575	-2.090449
O	-0.998804	1.869278	-1.938854
O	-2.200158	0.311578	-2.851311
C	-0.982335	-1.718008	-1.657581
H	-1.91147	-1.74753	-1.08973
H	-0.269822	-2.471878	-1.313872
H	-1.180042	-1.888001	-2.715802
F	-2.519914	0.0	0.0
