18

C	0.0	0.0	0.0
C	-0.267588	-0.039965	-1.537096
F	1.390679	0.0	0.0
H	0.009417	-1.051583	-1.843571
C	-0.428187	1.259705	0.635323
N	-0.631234	2.246327	1.23828
C	-0.613454	-1.178719	0.701844
H	-0.279663	-2.105703	0.227386
H	-1.707954	-1.015809	0.595199
H	-0.315428	-1.17926	1.75354
N	0.788942	0.811049	-2.201312
O	0.808833	2.008612	-1.931757
O	1.536177	0.260517	-3.011509
C	-1.599871	0.372756	-2.110943
H	-1.725456	1.450006	-1.987721
H	-1.608342	0.120047	-3.176924
H	-2.417126	-0.070902	-1.508761
F	-3.083478	0.0	0.0
