18

C	0.0	0.0	0.0
C	-0.555405	-0.067497	-1.425738
F	1.386551	0.0	0.0
H	-1.653127	-0.153014	-1.229072
C	-0.424224	1.283489	0.594134
N	-0.576072	2.33173	1.101155
C	-0.472218	-1.147554	0.872067
H	-0.073612	-2.087069	0.486507
H	-1.567135	-1.109732	0.819074
H	-0.101858	-0.993548	1.888239
N	-0.059199	-1.335725	-2.043899
O	1.001964	-1.308455	-2.674895
O	-0.736223	-2.352553	-1.883843
C	-0.14619	1.109373	-2.286939
H	0.933383	1.264319	-2.271605
H	-0.453887	0.944472	-3.321314
H	-0.651382	2.003699	-1.918266
F	-2.797912	0.0	0.0
