18

C	0.0	0.0	0.0
C	-0.552584	0.009387	-1.429591
F	1.386686	0.0	0.0
H	-1.636405	-0.184879	-1.252192
C	-0.418617	1.248592	0.669342
N	-0.565903	2.266666	1.235914
C	-0.458452	-1.195008	0.817407
H	-1.553049	-1.157677	0.792992
H	-0.069396	-2.110668	0.368925
H	-0.063675	-1.096471	1.832293
N	0.06867	-1.135903	-2.159607
O	1.073643	-0.923836	-2.84391
O	-0.457782	-2.243173	-2.037664
C	-0.284197	1.303131	-2.169095
H	0.763145	1.602098	-2.102114
H	-0.54435	1.198508	-3.224532
H	-0.91827	2.07788	-1.735928
F	-2.780021	0.0	0.0
