18

C	0.0	0.0	0.0
C	-0.261002	0.012458	-1.540067
F	1.391156	0.0	0.0
H	0.033823	-0.983829	-1.878013
C	-0.430905	1.234615	0.679624
N	-0.639912	2.199236	1.315139
C	-0.605458	-1.206983	0.65903
H	-0.268038	-2.113496	0.148701
H	-1.700983	-1.045869	0.563999
H	-0.300589	-1.245636	1.708134
N	0.785554	0.900971	-2.167568
O	1.538621	0.392597	-2.999447
O	0.791742	2.086704	-1.849935
C	-1.595632	0.421986	-2.111869
H	-1.596523	0.191724	-3.182911
H	-2.408472	-0.045561	-1.523703
H	-1.736406	1.49405	-1.965433
F	-3.064105	0.0	0.0
