16

C	-0.466247	-0.091938	-1.450238
C	0.0	0.0	0.0
Cl	0.412037	1.050716	-2.543516
H	1.091366	0.0	0.0
C	-0.184669	-1.435596	-1.974324
N	-0.039992	-2.518007	-2.408839
C	-1.910418	0.132597	-1.592418
N	-3.078861	0.212112	-1.696568
C	-0.351433	-1.214081	0.836617
H	0.20769	-2.07364	0.464983
H	-1.422764	-1.437897	0.844393
H	-0.016569	-1.015891	1.852586
N	-0.457726	1.228253	0.606016
O	-0.28016	1.347293	1.828846
O	-0.883266	2.145619	-0.121917
H	2.435414	0.0	0.0
