16

C	-0.422623	-0.026169	-1.451921
C	0.0	0.0	0.0
Cl	-2.240751	-0.057956	-1.649608
H	1.09248	0.0	0.0
C	0.082091	1.086368	-2.268409
N	0.464693	1.903181	-3.022295
C	0.066321	-1.266125	-2.073138
N	0.414023	-2.260449	-2.594067
C	-0.361453	-1.233591	0.794174
H	0.13184	-1.158665	1.762448
H	-1.438546	-1.342353	0.942398
H	0.035539	-2.117443	0.290793
N	-0.418836	1.215348	0.652127
O	-0.660238	2.215571	-0.045157
O	-0.392971	1.230975	1.892501
H	2.429296	0.0	0.0
