16

C	-0.464955	-0.035871	-1.450907
C	0.0	0.0	0.0
Cl	0.332165	1.223214	-2.470134
H	1.091416	0.0	0.0
C	-0.089707	-1.325724	-2.050689
N	0.17652	-2.348432	-2.563419
C	-1.921056	0.094641	-1.582057
N	-3.091216	0.099055	-1.693522
C	-0.339682	-1.256594	0.778756
H	-1.413637	-1.465222	0.812261
H	0.035128	-1.119522	1.791976
H	0.193371	-2.102947	0.342424
N	-0.481769	1.184352	0.677155
O	-0.247481	1.259824	1.893956
O	-1.001066	2.099589	0.011862
H	2.451464	0.0	0.0
