16

C	-0.434273	-0.085493	-1.460443
C	0.0	0.0	0.0
Cl	0.393052	1.13444	-2.510898
H	1.091444	0.0	0.0
C	-0.048977	-1.398769	-2.005537
N	0.211529	-2.444169	-2.477438
C	-1.886522	0.051027	-1.626329
N	-3.053898	0.092804	-1.760111
C	-0.358168	-1.224405	0.818951
H	0.004698	-1.052774	1.83208
H	0.1697	-2.093266	0.420044
H	-1.43544	-1.420324	0.845969
N	-0.483314	1.210747	0.622206
O	-0.282888	1.322414	1.843073
O	-0.96637	2.114591	-0.086596
H	2.448026	0.0	0.0
