14

C	0.0	0.0	0.0
C	-0.539776	0.162207	-1.430156
Cl	1.78127	0.0	0.0
H	-1.622864	0.351467	-1.186532
H	-0.347361	0.837218	0.597469
C	-0.460306	-1.260952	0.575582
N	-0.625266	-2.331375	1.031697
N	-0.383445	-0.945836	-2.307536
H	0.52829	-1.37829	-2.223173
H	-1.102738	-1.617545	-2.077018
N	0.092487	1.39615	-1.997418
O	0.695755	1.337963	-3.067815
O	-0.042443	2.421892	-1.326012
F	-2.591561	0.0	0.0
