14

C	0.0	0.0	0.0
C	-0.552636	0.272043	-1.401799
Cl	1.78794	0.0	0.0
H	-1.646672	0.401578	-1.121052
H	-0.344972	0.779419	0.671213
C	-0.454719	-1.308661	0.464544
N	-0.629154	-2.411418	0.827762
N	-0.36683	-0.750737	-2.368879
H	-1.112727	-1.42242	-2.261043
H	0.529046	-1.215424	-2.278123
N	0.007967	1.583207	-1.862485
O	0.414101	1.702861	-3.014099
O	-0.023185	2.50018	-1.03801
F	-2.613	0.0	0.0
