14

C	0.0	0.0	0.0
C	-0.431605	0.476443	-1.441503
Cl	1.782221	0.0	0.0
H	0.491655	0.686627	-1.990497
H	-0.336592	0.764472	0.69343
C	-0.469934	-1.291612	0.49033
N	-0.627403	-2.345341	0.987443
N	-1.301914	1.592145	-1.52503
H	-2.06494	1.308084	-0.876745
H	-0.807929	2.415426	-1.2026
N	-1.000255	-0.694674	-2.217248
O	-2.002991	-0.541697	-2.895266
O	-0.323107	-1.723964	-2.167556
F	-2.439695	0.0	0.0
