14

C	0.0	0.0	0.0
C	-0.449652	0.278653	-1.460043
Cl	1.783279	0.0	0.0
H	0.436034	0.304643	-2.104019
H	-0.329843	0.850801	0.586461
C	-0.456477	-1.215177	0.668067
N	-0.609606	-2.170363	1.335267
N	-1.162378	1.497765	-1.520348
H	-1.444416	1.671452	-2.476722
H	-1.993266	1.249035	-0.941796
N	-1.200998	-0.916262	-2.066869
O	-0.749914	-2.035027	-1.835638
O	-2.089049	-0.665756	-2.872674
F	-2.468389	0.0	0.0
