14

C	0.0	0.0	0.0
C	-0.449313	0.10816	-1.481705
Cl	1.782808	0.0	0.0
H	0.439634	0.078855	-2.121249
H	-0.325834	0.914712	0.48403
C	-0.460424	-1.127899	0.805221
N	-0.612671	-1.996051	1.582282
N	-1.179377	1.301518	-1.684314
H	-1.461683	1.35401	-2.654921
H	-2.00804	1.111911	-1.077796
N	-1.174039	-1.163552	-1.952103
O	-2.061731	-1.025175	-2.784911
O	-0.705942	-2.239388	-1.592212
F	-2.476641	0.0	0.0
