13

C	0.0	0.0	0.0
C	-0.541439	0.048643	-1.409232
Cl	1.782928	0.0	0.0
H	-0.232833	-0.820008	-1.986077
H	-0.275432	0.933785	0.493914
H	-1.644189	0.102464	-1.230973
N	-0.548708	-1.181371	0.609046
H	-1.57382	-0.968096	0.516827
H	-0.319853	-1.155356	1.597811
N	-0.106012	1.245022	-2.153814
O	-0.082667	2.32366	-1.560935
O	0.169245	1.10894	-3.349076
F	-2.827679	0.0	0.0
