13

C	0.0	0.0	0.0
C	-0.533826	-0.010594	-1.407809
Cl	1.840158	0.0	0.0
H	-0.247273	-0.91384	-1.940247
H	-0.241185	0.960458	0.457369
H	-1.637932	0.056282	-1.232149
N	-0.539375	-1.147158	0.663673
H	-0.322295	-1.068326	1.652268
H	-1.566532	-0.948158	0.550522
N	-0.095803	1.135319	-2.226316
O	0.084528	2.221678	-1.676323
O	0.009544	0.946486	-3.441823
F	-2.816371	0.0	0.0
