13

C	0.0	0.0	0.0
C	-0.328625	0.429594	-1.460909
Cl	1.803005	0.0	0.0
H	0.461464	0.076807	-2.125341
H	-0.331839	0.786619	0.67086
H	-0.409044	1.511653	-1.527959
N	-0.505909	-1.237879	0.472691
H	-1.538815	-0.987016	0.465824
H	-0.362952	-1.940702	-0.243871
N	-1.555538	-0.117557	-2.108779
O	-1.607657	-1.338916	-2.236462
O	-2.308169	0.678626	-2.655662
F	-2.641643	0.0	0.0
