13

C	0.0	0.0	0.0
C	-0.20817	0.137552	-1.536808
Cl	1.80266	0.0	0.0
H	0.260323	1.05707	-1.887511
H	-0.329799	0.907809	0.498232
H	0.265882	-0.723715	-2.009312
N	-0.567672	-1.118063	0.641644
H	-1.608472	-0.83029	0.547654
H	-0.41311	-1.939365	0.062416
N	-1.585015	0.166227	-2.118694
O	-2.049041	-0.909467	-2.485455
O	-2.074212	1.269109	-2.344861
F	-2.699485	0.0	0.0
