13

C	0.0	0.0	0.0
C	-0.518696	-0.278164	-1.410711
Cl	1.789149	0.0	0.0
H	-1.6204	-0.319076	-1.231207
H	-0.306185	1.027929	0.194711
H	-0.231943	0.503266	-2.112958
N	-0.530375	-0.80906	1.052557
H	-1.551291	-0.61221	0.926675
H	-0.380907	-1.778827	0.796451
N	-0.025267	-1.53881	-1.995614
O	-0.086043	-2.565467	-1.314301
O	0.40875	-1.510846	-3.151179
F	-2.800707	0.0	0.0
