16

C	-0.528001	0.000274	-1.428202
C	0.0	0.0	0.0
Cl	0.041175	-1.508696	-2.207418
H	1.090498	0.0	0.0
H	0.00093	0.810334	-1.928926
C	-2.027641	0.128735	-1.621824
H	-2.23951	0.207802	-2.690073
H	-2.550191	-0.739015	-1.223956
H	-2.398149	1.026109	-1.125217
N	-0.539867	-1.140371	0.79345
O	0.239516	-2.024132	1.127824
O	-1.750109	-1.116938	1.030867
N	-0.387462	1.253118	0.723041
O	-0.437112	1.204723	1.94598
O	-0.538352	2.263091	0.037824
Cl	3.201004	0.0	0.0
