16

C	-0.551416	-0.043553	-1.411667
C	0.0	0.0	0.0
Cl	0.11215	1.34898	-2.314955
H	1.08747	0.0	0.0
H	-1.633969	0.091377	-1.386447
C	-0.135261	-1.331255	-2.103533
H	-0.412412	-1.28577	-3.158043
H	-0.635274	-2.19169	-1.6529
H	0.94585	-1.461805	-2.018386
N	-0.50415	-1.21437	0.72244
O	0.255179	-2.168381	0.828067
O	-1.677977	-1.179896	1.097988
N	-0.513557	1.153012	0.803753
O	-0.009162	1.27999	1.913897
O	-1.406007	1.854041	0.334397
Cl	3.233303	0.0	0.0
