16

C	-0.551282	-0.030917	-1.41166
C	0.0	0.0	0.0
Cl	0.117883	1.36379	-2.306958
H	1.088557	0.0	0.0
H	-1.633023	0.107109	-1.385639
C	-0.139563	-1.316527	-2.108924
H	0.94004	-1.452007	-2.02258
H	-0.414446	-1.26563	-3.16295
H	-0.644372	-2.176556	-1.662767
N	-0.506635	-1.220448	0.709654
O	-1.693047	-1.201066	1.045917
O	0.263267	-2.1625	0.846112
N	-0.514603	1.144407	0.81588
O	-1.398243	1.857539	0.347332
O	-0.018316	1.252959	1.933263
Cl	3.235512	0.0	0.0
