16

C	-0.494636	-0.02167	-1.442866
C	0.0	0.0	0.0
Cl	-0.05528	-1.592134	-2.171064
H	1.090004	0.0	0.0
H	0.135301	0.711216	-1.948545
C	-1.960129	0.29177	-1.679069
H	-2.156435	0.286023	-2.753976
H	-2.601924	-0.437319	-1.192046
H	-2.190903	1.291905	-1.301582
N	-0.504947	-1.096765	0.872759
O	0.172563	-1.348651	1.861627
O	-1.564656	-1.64551	0.572598
N	-0.451437	1.287216	0.619428
O	-1.145095	1.253273	1.632399
O	-0.100929	2.299973	0.021565
Cl	3.194012	0.0	0.0
