16

C	-0.512063	-0.004627	-1.434342
C	0.0	0.0	0.0
Cl	0.008318	-1.518884	-2.22917
H	1.085824	0.0	0.0
H	0.064144	0.783378	-1.921532
C	-1.998972	0.223224	-1.636631
H	-2.208883	0.287102	-2.703205
H	-2.579376	-0.58598	-1.206395
H	-2.298525	1.167232	-1.179027
N	-0.481535	-1.11063	0.869173
O	-1.473847	-1.75117	0.518994
O	0.152709	-1.284501	1.903334
N	-0.457809	1.278876	0.637744
O	-1.1594	1.230317	1.643922
O	-0.109702	2.300141	0.053525
Cl	3.191644	0.0	0.0
