16

C	-0.487849	0.037778	-1.454991
C	0.0	0.0	0.0
Br	-0.037878	-1.640917	-2.371409
H	1.096701	0.0	0.0
H	-1.582022	0.070358	-1.484773
C	0.127569	1.19217	-2.227955
H	-0.204581	2.138996	-1.790428
H	1.216934	1.13724	-2.159296
H	-0.177247	1.167262	-3.275975
C	-0.490851	-1.196399	0.817447
H	-0.17442	-1.083002	1.85603
H	-0.045944	-2.110849	0.427173
H	-1.581801	-1.283939	0.786343
C	-0.467527	1.236076	0.631083
N	-0.895055	2.206093	1.139054
Br	3.526332	0.0	0.0
