16

C	-0.326654	-0.021361	-1.492879
C	0.0	0.0	0.0
Br	-2.27767	-0.067485	-1.826006
H	1.099286	0.0	0.0
H	-0.014349	0.930009	-1.926512
C	0.349172	-1.169155	-2.216922
H	0.217848	-1.0707	-3.296217
H	-0.060335	-2.132554	-1.910016
H	1.41627	-1.136559	-1.973457
C	-0.462418	-1.223408	0.790278
H	-0.000854	-2.124173	0.383549
H	-1.549208	-1.329637	0.769828
H	-0.133232	-1.126717	1.826477
C	-0.484565	1.228948	0.620891
N	-0.903272	2.201582	1.130094
Br	3.496991	0.0	0.0
