16

C	-0.465116	0.07308	-1.463986
C	0.0	0.0	0.0
Br	-0.161857	-1.640515	-2.37815
H	1.096924	0.0	0.0
H	-1.551089	0.203567	-1.510425
C	0.268629	1.16639	-2.221947
H	1.345892	1.000146	-2.145559
H	0.036152	2.137241	-1.773222
H	-0.031333	1.186744	-3.271772
C	-0.511614	-1.198584	0.799035
H	-0.231081	-1.084212	1.847757
H	-1.600282	-1.29061	0.731725
H	-0.051011	-2.110731	0.422775
C	-0.460635	1.236919	0.636174
N	-0.890533	2.20388	1.148084
Br	3.527	0.0	0.0
