18

C	-0.550124	0.026437	-1.433612
C	0.0	0.0	0.0
Cl	0.113731	1.474564	-2.29162
H	1.096793	0.0	0.0
C	-0.114319	-1.152395	-2.187424
N	0.142545	-2.126842	-2.792273
C	-2.07089	0.125842	-1.488155
H	-2.518002	-0.780843	-1.07245
H	-2.413156	0.247124	-2.51777
H	-2.364993	0.986376	-0.887984
C	-0.454646	-1.244138	0.746572
H	-0.288813	-2.152607	0.1633
H	0.157588	-1.329192	1.649642
H	-1.511139	-1.194494	1.036419
N	-0.469014	1.214066	0.693507
H	0.314988	1.862118	0.678994
H	-0.610486	0.978154	1.669081
H	2.885328	0.0	0.0
