18

C	-0.366502	0.05055	-1.50456
C	0.0	0.0	0.0
Cl	0.011976	-1.525828	-2.313068
H	1.096914	0.0	0.0
C	-1.807732	0.267809	-1.678899
N	-2.958845	0.499632	-1.75504
C	0.450151	1.127937	-2.212232
H	1.502102	0.95153	-1.962636
H	0.29246	1.088668	-3.291831
H	0.155735	2.113881	-1.847342
C	-0.583772	-1.185482	0.741986
H	-1.681066	-1.166679	0.731705
H	-0.239256	-2.134599	0.330348
H	-0.251247	-1.113803	1.778834
N	-0.378853	1.241224	0.672963
H	-1.267831	1.613526	0.357105
H	0.351403	1.928904	0.536169
H	2.932414	0.0	0.0
