18

C	-0.368898	0.047597	-1.504687
C	0.0	0.0	0.0
Cl	-0.010168	-1.535732	-2.307386
H	1.096838	0.0	0.0
C	-1.80681	0.280227	-1.680271
N	-2.952948	0.525896	-1.784857
C	0.458788	1.113219	-2.216797
H	0.299319	1.073127	-3.296142
H	1.508526	0.925633	-1.966653
H	0.175884	2.103147	-1.854051
C	-0.583735	-1.183132	0.74535
H	-0.25691	-1.104209	1.783301
H	-1.680953	-1.168853	0.728838
H	-0.233577	-2.133434	0.341287
N	-0.378136	1.242804	0.669323
H	0.349186	1.932258	0.527147
H	-1.270207	1.611048	0.35831
H	2.936117	0.0	0.0
