15

C	-0.428821	-0.05027	-1.446292
C	0.0	0.0	0.0
F	-0.113059	1.127333	-2.100452
H	1.091076	0.0	0.0
H	0.166223	-0.845767	-1.905915
C	-1.857015	-0.339362	-1.687398
N	-2.969192	-0.635624	-1.917267
C	-0.479282	-1.204382	0.788596
H	-0.100298	-2.114677	0.317836
H	-1.571377	-1.262767	0.85682
H	-0.049356	-1.152178	1.789721
N	-0.540756	1.220212	0.647691
O	0.081039	1.670038	1.606558
O	-1.598455	1.699743	0.22397
F	2.547873	0.0	0.0
