15

C	-0.39288	-0.125641	-1.450637
C	0.0	0.0	0.0
F	5.4e-05	0.966127	-2.201522
H	1.091042	0.0	0.0
H	0.167485	-0.986664	-1.829483
C	-1.831054	-0.372464	-1.691504
N	-2.95431	-0.650324	-1.893431
C	-0.400178	-1.224892	0.805242
H	0.003271	-1.1188	1.811316
H	-1.485159	-1.374722	0.857688
H	0.066734	-2.105021	0.357114
N	-0.574436	1.201188	0.624716
O	-1.342115	1.912569	-0.031841
O	-0.247847	1.436486	1.789384
F	2.528861	0.0	0.0
