16
Coordinates from ORCA-job run
  C   0.92109200765376      0.18360912849478     -0.28717082228378
  C   -0.48413059936313      0.18416294968954      0.31262930036439
  Br  0.85447193467484     -0.29715228350260     -2.19792240770746
  H   -0.32402989129275      0.44924502010446      1.36773333376479
  H   1.30729846508911      1.20580246990678     -0.28950540661321
  C   1.87607279409017     -0.75513265984708      0.42340505944114
  H   1.95256242217964     -0.45599093864431      1.47410258145983
  H   1.49922943364231     -1.77566079029579      0.38490125406836
  H   2.87150575842979     -0.71451813750369     -0.02116637918360
  N   -1.02835130509672     -1.17034543137176      0.30528169693103
  H   -1.27344029527896     -1.42539051306782     -0.64557025097807
  H   -1.87938549326793     -1.19607422376816      0.85437566805338
  C   -1.39568841023905      1.24352911537450     -0.30438956769035
  H   -0.94101825786808      2.23845382229948     -0.26810255347055
  H   -1.61400786030010      1.00494828518803     -1.34732775382099
  H   -2.34218070305291      1.28451418694364      0.24172624766510
