16
Coordinates from ORCA-job run
  C   0.91256989285779      0.16020894751023      0.60564678494482
  C   -0.60787999026512      0.30371302175602      0.46387810547024
  Br  1.73595879520256      1.94065136598487      0.68499476459632
  H   -0.93455110082958      1.05055324566436      1.20251335085182
  H   1.12664176433942     -0.26613509064633      1.58968171892684
  C   1.57415894620752     -0.66830080344218     -0.47738974188663
  H   2.62375118903289     -0.84629292317356     -0.23806117898351
  H   1.05430123550619     -1.62610289105155     -0.54624835816652
  H   1.52999030978229     -0.16554327723776     -1.44435488968105
  N   -1.17387110313972     -1.02468710924159      0.72108624535272
  H   -2.14339977625596     -1.04563545258686      0.42658005890448
  H   -1.15846609772323     -1.22153926717002      1.71555894897020
  C   -1.04402575634261      0.76682524468077     -0.91649150214674
  H   -0.84940619849662     -0.01001630480004     -1.65846193679844
  H   -0.52683223016479      1.68096026268723     -1.21054439465060
  H   -2.11793987971105      0.97434103106642     -0.91838797570395
