16
Coordinates from ORCA-job run
  C   0.75861060943831     -0.38925783365219      0.41207597068581
  C   -0.57611603607813      0.36704598488784      0.34100751273023
  Br  1.55347121533806     -0.12720830268868      2.19570741290189
  H   -0.36287193912660      1.42424283150649      0.54028466157599
  H   0.56171743685139     -1.46513707833007      0.36346433143047
  C   1.78173065150337      0.02084029824262     -0.63226900310819
  H   1.94444054335608      1.10113302278659     -0.60600410826338
  H   1.43407531868125     -0.25818534855911     -1.62952060542498
  H   2.73850727516294     -0.47287973577036     -0.45857825816486
  N   -1.57704841387323     -0.05647487873489      1.31164380643154
  H   -1.20511410940326      0.02320140111794      2.25052989520071
  H   -1.80802049845388     -1.03271748550446      1.15778086914187
  C   -1.18508619846997      0.24192532557190     -1.05360801290920
  H   -2.17712353274527      0.69465266441149     -1.03885590822061
  H   -0.58625660515034      0.74046280172623     -1.81610331386025
  H   -1.29591571703072     -0.81064366701135     -1.33755525014704
