16
Coordinates from ORCA-job run
  C   0.87527894969544      0.18403008254469     -0.23719400754697
  C   -0.57271696742807      0.25043757365608      0.27783584444670
  Br  0.91680156582645     -0.33552508412359     -2.13317992736162
  H   -0.46828052618384      0.55767085584695      1.32885521292805
  H   1.30280433751773      1.19038116531520     -0.22526597958623
  C   1.75793691985660     -0.76934822367533      0.54680189265288
  H   2.78905667841238     -0.73236985124303      0.19325724352677
  H   1.74535599717947     -0.48977279684526      1.60566210742374
  H   1.40849268446320     -1.79864298636510      0.45127980094526
  N   -1.30717779044977     -1.00516262215123      0.28187387926283
  H   -0.84756110447048     -1.69729111819952      0.85996397900381
  H   -1.36147042575225     -1.37204426617516     -0.66188405060625
  C   -1.39939792153023      1.30902691527194     -0.43754598587694
  H   -2.35769047825740      1.42131205890091      0.07110013210067
  H   -0.88663638036088      2.27440017381329     -0.45039386452732
  H   -1.59379553851835      1.01489812342914     -1.47116627678538
