14
Coordinates from ORCA-job run
  C   -0.34672820822408     -0.37728347757612      0.36418051901504
  C   0.67814912381481     -0.16858347453470     -0.73533459516042
  H   -0.01360834854701     -1.07114293145275      1.13534140891746
  H   0.23056482230546      0.48001603489437     -1.49122746032727
  H   0.87934346966082     -1.13197738808922     -1.20495885206492
  N   -1.66289943264569     -0.88855632075675     -0.15880099240208
  O   -1.59714817211943     -1.63859634730151     -1.12770403967093
  O   -2.67612577598767     -0.56208973494301      0.44660230139167
  N   -0.62054346498446      0.92318085081786      1.04663567284693
  O   -0.88900480565962      1.86837467982903      0.31092304211958
  O   -0.55216442633277      0.93869070858030      2.26946191445657
  N   1.85533882333918      0.42804790262481     -0.11946986779727
  H   2.04145706171186      1.34578925577226     -0.49399799515229
  H   2.67536933366858     -0.14586975786459     -0.24265105617209
