16

C	-0.451571	-0.0284	-1.451935
C	0.0	0.0	0.0
F	-0.12264	1.187291	-2.056912
H	1.095839	0.0	0.0
H	0.141739	-0.799262	-1.958382
C	-1.935263	-0.241028	-1.67187
H	-2.50159	0.537936	-1.154786
H	-2.255786	-1.217482	-1.30122
H	-2.161011	-0.183074	-2.739988
C	-0.372835	-1.286424	0.741194
H	-1.446153	-1.394636	0.921077
H	0.152081	-1.304116	1.698468
H	-0.015191	-2.145382	0.164979
C	-0.535844	1.164708	0.683581
N	-1.002752	2.084752	1.248285
H	2.788727	0.0	0.0
