15

C	-0.414872	-0.000716	-1.438373
C	0.0	0.0	0.0
F	0.034139	-1.100606	-2.102304
H	1.103161	0.0	0.0
H	-0.363403	0.930153	0.44567
C	-1.876088	0.085421	-1.661984
N	-3.045303	0.108899	-1.781947
N	0.184337	1.227389	-2.139048
O	-0.222818	2.305783	-1.720861
O	0.985562	1.041054	-3.038417
C	-0.524238	-1.226013	0.731918
H	-0.142123	-1.206284	1.755521
H	-1.619785	-1.29153	0.772354
H	-0.134208	-2.132805	0.263792
F	2.600711	0.0	0.0
