15

C	-0.432166	0.065059	-1.417003
C	0.0	0.0	0.0
F	-1.808131	-0.060749	-1.598337
H	1.101118	0.0	0.0
H	-0.369653	-0.952608	0.392238
C	-0.029815	1.300854	-2.105635
N	0.190991	2.335296	-2.614644
N	0.155737	-1.1235	-2.182108
O	-0.279626	-2.2195	-1.851453
O	0.991102	-0.901707	-3.049591
C	-0.496903	1.188676	0.8112
H	-0.010953	2.106363	0.4697
H	-0.201717	1.045645	1.853232
H	-1.583099	1.327363	0.775051
F	2.588501	0.0	0.0
