13

C	0.0	0.0	0.0
C	-0.43793	-0.113898	-1.449646
F	1.394914	0.0	0.0
H	-0.144113	0.766455	-2.0209
H	-0.332061	-0.880241	0.54895
H	-1.523375	-0.256697	-1.458353
N	-0.491669	1.166741	0.653364
H	-1.488495	1.006881	0.81301
H	-0.414525	1.965195	0.031508
N	0.200985	-1.275016	-2.120158
O	0.748218	-1.085242	-3.208162
O	0.136556	-2.362326	-1.549871
Cl	-3.535372	0.0	0.0
