13

C	0.0	0.0	0.0
C	-0.181166	-0.068612	-1.549519
F	1.403511	0.0	0.0
H	-0.077291	-1.09408	-1.899432
H	-0.350923	-0.914528	0.474538
H	0.626995	0.542013	-1.955339
N	-0.50945	1.118062	0.688836
H	-0.468698	1.939111	0.097883
H	-1.502342	0.927288	0.848901
N	-1.392673	0.490481	-2.205307
O	-2.039783	-0.253859	-2.933676
O	-1.57082	1.700116	-2.074142
Cl	-3.503669	0.0	0.0
