13

C	0.0	0.0	0.0
C	-0.481963	-0.251693	-1.410236
F	1.381932	0.0	0.0
H	-1.569997	-0.377356	-1.390596
H	-0.2949	-0.836705	0.640847
H	-0.178281	0.561218	-2.066034
N	-0.481897	1.283468	0.417819
H	-0.297056	1.382455	1.410062
H	-1.500322	1.247369	0.321084
N	0.120807	-1.492737	-1.958887
O	0.09666	-2.50074	-1.255266
O	0.58817	-1.446362	-3.097458
Cl	-3.566811	0.0	0.0
