16
Coordinates from ORCA-job run
  C   -0.65277534163523      0.34903271525899      0.11916839739522
  C   0.66882914041594     -0.01903741795544      0.15006822379218
  N   -1.21561892755855      1.34522686492369      0.85208873799749
  H   -2.21527842524984      1.33684271732148      0.95582043484568
  H   -0.65945033539114      1.72498533992553      1.60368297244152
  C   -1.58288029865473     -0.30344325847806     -0.87283141194939
  H   -2.61750105510573     -0.01405749461869     -0.68026867699809
  H   -1.52146053478951     -1.39085922049291     -0.82574008683201
  H   -1.33863181923477      0.00606115424015     -1.89166080470548
  N   1.56577308498431      0.51876612227408      1.13446649005601
  O   2.69898481916583      0.03016408866673      1.19489505167274
  O   1.19017125112750      1.43828813835211      1.88518431989999
  C   1.28961904527392     -1.05652044139065     -0.73402509538459
  H   2.21743128193888     -0.67668770592542     -1.16579967807122
  H   0.62273757603977     -1.32975742809074     -1.55005494388078
  H   1.54905053867333     -1.95900417401084     -0.17399393027927
