16
Coordinates from ORCA-job run
  C   -0.62799980368727      0.22120304428774     -0.09499276331242
  C   0.64064588283509     -0.23939785815027      0.08538823478685
  N   -0.83096825260439      1.28702815697697     -0.95032993462088
  H   -1.77221593523005      1.39993061312890     -1.28938020120230
  H   -0.12717658229248      1.45682034033301     -1.65083900770540
  C   -1.86921235176437     -0.23861827921682      0.61508040854415
  H   -2.24410710128403     -1.16502207041881      0.17588746409961
  H   -2.63958424668387      0.53261264695059      0.54087241001606
  H   -1.68020616219255     -0.44699765205577      1.66578390666454
  N   0.90452336112878     -1.30114679050707      1.03308868524769
  O   -0.01390153492906     -2.06880178375216      1.34011113313875
  O   2.05065421382161     -1.39518267111027      1.48156493794338
  C   1.82099682456770      0.37124010877982     -0.60471707256192
  H   1.76340463198727      0.22900484886471     -1.69025723281022
  H   1.88459654823616      1.44587299462853     -0.40495918943656
  H   2.74055050809146     -0.08954564873911     -0.25330177879133
