16
Coordinates from ORCA-job run
  C   -0.62304475161692      0.25918942408325     -0.13014675683659
  C   0.66495888121188     -0.06136925018848      0.19070793962521
  N   -0.85227090937100      0.94590556038325     -1.32254084406269
  H   -0.38705829305988      0.57603161628033     -2.13801437485909
  H   -1.82673303379438      1.12384918712673     -1.50866341379405
  C   -1.82364990453497      0.03162988760771      0.74581782565631
  H   -1.75602081217770      0.63547391740895      1.65250810523441
  H   -1.88034872192290     -1.00238566429111      1.08596034249769
  H   -2.73593057739268      0.30064401531913      0.21015688654597
  N   0.92128749786066     -0.96660339766536      1.29654901741542
  O   0.14323217627259     -0.96099256510136      2.25699518876847
  O   1.87842067701080     -1.73273626664353      1.18497312007654
  C   1.83689829888158      0.17100469471983     -0.71325821286841
  H   1.61631827471526      0.95632903021971     -1.43370372466500
  H   2.11387356602164     -0.74353708522417     -1.24516001231192
  H   2.71206763189599      0.46756689596513     -0.13018108642228
