16
Coordinates from ORCA-job run
  C   -0.64368816234202      0.36138088092849      0.12960750122687
  C   0.63307338051166     -0.13167559595813      0.22951870634428
  N   -1.22806320391081      1.23051660581615      0.99502084636235
  H   -2.04185726578824      1.72685113812815      0.67650670768676
  H   -0.62178833864060      1.68328887178596      1.66267244008703
  C   -1.55640885879481     -0.15358421466867     -0.95528578750614
  H   -1.82869161521656     -1.19483947837995     -0.76793731420834
  H   -1.08465033799710     -0.09852631903642     -1.93654894766790
  H   -2.48047150157875      0.42618024538310     -0.99017856978690
  N   1.55697886160298      0.39324850689083      1.19588704890063
  O   1.16717563612318      1.20545511598164      2.05512908226957
  O   2.72830562192713      0.00623222659091      1.12711997128138
  C   1.22777996790580     -1.15955863883999     -0.68305283419656
  H   1.99326049757962     -0.72531510297414     -1.33178372715848
  H   1.71657069169427     -1.94316674128443     -0.10101946589446
  H   0.46447462692426     -1.62448750036351     -1.30465565774009
