16
Coordinates from ORCA-job run
  C   -0.62573560462411      0.22133741577958     -0.15392227401186
  C   0.63464877341319     -0.15722295236469      0.19666970982210
  N   -0.78935657621585      1.09160589063762     -1.21379858750027
  H   -1.70424330807788      1.10460247295339     -1.63248154735701
  H   -0.04006797033201      1.15350323154554     -1.88377466232460
  C   -1.90135019487134     -0.14296706511981      0.55104944090728
  H   -2.75920060180973      0.07778425728165     -0.08890002938240
  H   -1.92386558269344     -1.19576041492116      0.82565530529644
  H   -2.00127893288742      0.42349400315746      1.47767166263136
  N   0.84794111526141     -1.06482114577884      1.30132897982660
  O   1.89625117146176     -1.71775866171379      1.29492127570930
  O   -0.00589029560136     -1.14903361242645      2.19054899533438
  C   1.85223892739069      0.25700028482833     -0.57065525578082
  H   1.93415979870471     -0.26448342167465     -1.53125363705084
  H   1.83348501152857      1.33438453475453     -0.76029560360563
  H   2.75126426935281      0.02633518306129     -0.00376377251405
