16
Coordinates from ORCA-job run
  C   -0.70694426422604      0.01991276390079     -0.24868475041087
  C   0.62763635779037     -0.26057340124387     -0.09453393281571
  N   -1.53046252905630     -0.53084187325671     -1.17811120921998
  H   -1.17822338010048     -1.33331640331444     -1.67842226089434
  H   -2.52085858710648     -0.46184352472978     -1.02222048562367
  C   -1.34050132862964      1.10166431675539      0.59021067781169
  H   -2.42280511390747      1.11519568335325      0.45019443959037
  H   -0.95951733785863      2.08463850014127      0.30388365115206
  H   -1.13771134569624      0.95686035069493      1.65157184760110
  N   1.24677886245741     -1.33796945743207     -0.81451092636606
  O   2.41047917918307     -1.62443949910624     -0.51400301808679
  O   0.61347677881072     -1.94266357636310     -1.69958447107983
  C   1.53862061675344      0.42221016184533      0.87859831100470
  H   1.82317180435400     -0.24444790966107      1.69719247086680
  H   2.46327717679766      0.72329881599920      0.38268694659006
  H   1.07258311043461      1.31231505241710      1.29773270988047
