16
Coordinates from ORCA-job run
  C   -0.62857804840645      0.18567656144268     -0.14966595452777
  C   0.64272981321807     -0.20162559447310      0.14565299280792
  N   -0.82782951816904      1.05589266472794     -1.20459062724894
  H   -1.76382490270080      1.08352631663216     -1.57443176149500
  H   -0.11338838068978      1.08868525976137     -1.91410133951032
  C   -1.87915628732136     -0.15164714452994      0.61080211148165
  H   -1.70975630856778     -0.16432855789922      1.68500488943426
  H   -2.23960064929703     -1.14569847135026      0.33913384522330
  H   -2.65295779766705      0.58580602693369      0.38400027508557
  N   0.89949467613231     -1.05812250725953      1.28449915905199
  O   2.03235144240619     -1.03494714081147      1.77389734918247
  O   -0.01150193983048     -1.77898653420174      1.70574419593244
  C   1.83037464417234      0.28889752224341     -0.62320934432538
  H   2.74837101194702     -0.04795477290426     -0.14860493637489
  H   1.85164931804572      1.38281700880174     -0.66041084799334
  H   1.82162292672811     -0.08799063711348     -1.65272000672396
