16
Coordinates from ORCA-job run
  C   -0.62579119859741      0.21220556589395     -0.12460479596251
  C   0.63961411826852     -0.22828625875699      0.11669186713464
  N   -0.80264077762584      1.27800871713392     -0.98685176639956
  H   -1.72841884185361      1.37642412818023     -1.37046819167502
  H   -0.07023249071599      1.45150375539362     -1.65670898802131
  C   -1.89252352293622     -0.26778612665979      0.52415712391791
  H   -1.75007973241819     -0.48258081366033      1.58090569276873
  H   -2.66658430257847      0.49672003626480      0.42200050774171
  H   -2.23776778957154     -1.19395607292237      0.06090289603414
  N   0.87322688147358     -1.29395722341734      1.06885933350873
  O   -0.04717397600887     -2.07797297217149      1.32400773268613
  O   1.99689979096112     -1.37481169060272      1.57324709315066
  C   1.84276250084255      0.40382012615279     -0.51191556920348
  H   1.86409338593501      1.48264610608410     -0.32687556595413
  H   2.75076859362001     -0.02595067264811     -0.09695897290357
  H   1.85584736120534      0.24297339573572     -1.59638839682306
