16
Coordinates from ORCA-job run
  C   -0.63597555889608      0.23656750533528     -0.15116483810272
  C   0.62843026670103     -0.20820244415802      0.08931741675890
  N   -0.88245462058460      1.16904680220429     -1.14486048473704
  H   -1.84097034854526      1.21285318375258     -1.45057397795203
  H   -0.22970798826461      1.20182276164756     -1.91043701007870
  C   -1.86276980855975     -0.11564107158432      0.64527319982148
  H   -1.64739463327886     -0.22116782188243      1.70548349558956
  H   -2.61181996602678      0.66939093511163      0.51584974633317
  H   -2.27956726836763     -1.06806782606411      0.31185640150644
  N   0.87395052328645     -1.16934958529980      1.14500494156188
  O   2.02967427788192     -1.23101772983190      1.57806489429854
  O   -0.04465012140634     -1.89446189143432      1.54041481119094
  C   1.87545876507174      0.26300959398449     -0.59232917281164
  H   2.54152410574707      0.74131162098781      0.12733533929026
  H   1.66278678239257      0.98835004434746     -1.37739159435190
  H   2.42448559284915     -0.57344407711618     -1.03184316831714
