16

C	-0.529489	-0.024099	-1.424071
C	0.0	0.0	0.0
Cl	0.139569	1.450133	-2.329944
H	1.098818	0.0	0.0
H	-0.102646	-0.859744	-1.97795
N	-1.949439	-0.060332	-1.43477
H	-2.273205	0.676974	-0.817241
H	-2.31622	0.084153	-2.365645
C	-0.453103	-1.255835	0.733964
H	-1.53679	-1.268524	0.868078
H	0.040527	-1.29922	1.709659
H	-0.155061	-2.149428	0.180516
N	-0.559117	1.186302	0.675084
H	-0.001371	1.984421	0.38696
H	-0.388778	1.076639	1.669195
Cl	3.57105	0.0	0.0
