16

C	-0.475472	0.009964	-1.443243
C	0.0	0.0	0.0
Cl	0.040577	1.488469	-2.297329
H	1.096081	0.0	0.0
H	0.024144	-0.807549	-1.976351
N	-1.939363	-0.057495	-1.514671
H	-2.215676	-1.022445	-1.365042
H	-2.231376	0.193235	-2.452435
C	-0.4388	-1.318199	0.65465
H	-1.52555	-1.354955	0.793
H	0.031117	-1.396892	1.63796
H	-0.117436	-2.190034	0.073713
N	-0.479956	1.186095	0.689233
H	-0.043627	1.240071	1.599717
H	-1.483859	1.126078	0.801937
Cl	3.588726	0.0	0.0
