16

C	-0.378179	0.084344	-1.483459
C	0.0	0.0	0.0
Cl	-0.235841	-1.577757	-2.32287
H	1.098641	0.0	0.0
H	-1.440552	0.310984	-1.611217
N	0.423576	1.075983	-2.098359
H	1.407837	0.891373	-1.913244
H	0.262026	1.136819	-3.094355
C	-0.545477	-1.208982	0.731615
H	-0.107272	-2.133897	0.361099
H	-0.30221	-1.099851	1.789267
H	-1.636413	-1.276532	0.628795
N	-0.443402	1.217764	0.684307
H	-1.450895	1.312851	0.571129
H	-0.012042	2.011264	0.223132
Cl	3.530117	0.0	0.0
