16

C	-0.547954	0.004143	-1.426969
C	0.0	0.0	0.0
Cl	-0.136303	-1.55574	-2.273935
H	1.094842	0.0	0.0
H	-1.64768	-0.035742	-1.383302
N	-0.024838	1.103614	-2.168026
H	-0.647621	1.37908	-2.912016
H	0.110678	1.868623	-1.520327
C	-0.491635	-1.192293	0.809515
H	-0.146627	-1.090068	1.841564
H	-0.104487	-2.132642	0.417264
H	-1.589623	-1.239638	0.811253
N	-0.401482	1.290521	0.590569
H	0.306458	1.55704	1.26679
H	-1.283652	1.187344	1.085016
Cl	3.520829	0.0	0.0
