16

C	-0.413428	0.019732	-1.45941
C	0.0	0.0	0.0
Cl	-2.290399	0.206744	-1.588758
H	1.101898	0.0	0.0
H	-0.064708	0.938956	-1.932656
N	0.054773	-1.08986	-2.185726
H	-0.191236	-1.038248	-3.162763
H	-0.26058	-1.966012	-1.79717
C	-0.494375	-1.222997	0.752424
H	-0.078564	-2.143548	0.336419
H	-1.585647	-1.267914	0.752386
H	-0.143947	-1.171755	1.786552
N	-0.50502	1.209875	0.672838
H	-0.123208	1.186349	1.615087
H	-0.05193	2.00901	0.235171
Cl	3.571539	0.0	0.0
