16

C	-0.377419	0.084234	-1.483712
C	0.0	0.0	0.0
Cl	-0.236676	-1.578366	-2.322536
H	1.098649	0.0	0.0
H	-1.439443	0.312066	-1.612174
N	0.4259	1.074674	-2.098444
H	1.409829	0.889241	-1.912313
H	0.265315	1.135229	-3.094602
C	-0.546006	-1.208665	0.731679
H	-0.107895	-2.133776	0.361539
H	-0.303153	-1.099338	1.789408
H	-1.636913	-1.27598	0.628433
N	-0.443189	1.218106	0.683846
H	-1.450503	1.313961	0.569719
H	-0.010779	2.011259	0.223047
Cl	3.52981	0.0	0.0
