16

C	-0.444645	-0.049563	-1.464426
C	0.0	0.0	0.0
Cl	0.200957	1.442305	-2.341925
H	1.094358	0.0	0.0
H	0.060528	-0.875088	-1.966621
N	-1.857876	-0.177605	-1.623401
H	-2.097651	-0.223241	-2.605892
H	-2.314369	0.640825	-1.237747
C	-0.463063	-1.270279	0.703075
H	-1.551363	-1.296479	0.807426
H	-0.002007	-1.300722	1.690823
H	-0.152245	-2.159367	0.148179
N	-0.451891	1.161101	0.755419
H	0.000329	1.994114	0.399991
H	-1.457475	1.277708	0.69084
Cl	3.571521	0.0	0.0
