16

C	-0.428719	0.035227	-1.451411
C	0.0	0.0	0.0
Cl	-2.334902	0.293497	-1.491098
H	1.096161	0.0	0.0
H	-0.08314	0.959282	-1.90798
N	-0.051211	-1.083088	-2.198437
H	-0.400048	-1.94896	-1.815847
H	-0.295161	-1.004757	-3.174268
C	-0.46027	-1.253804	0.739707
H	-0.110735	-1.196158	1.773196
H	-0.021943	-2.160569	0.312628
H	-1.55155	-1.342681	0.741843
N	-0.402485	1.254779	0.631865
H	-1.34387	1.177563	1.000495
H	0.233484	1.437866	1.398788
Cl	3.514773	0.0	0.0
