11
Coordinates from ORCA-job run
  C   -0.86481494622223     -0.81546032952903      0.29058049068897
  C   0.11060928347477      0.10361863233771     -0.44633773068268
  F   -2.03077890742468     -0.86506631379499     -0.43577899631419
  H   0.31693058970256     -0.29149826443269     -1.44181259476066
  H   -0.43787929540196     -1.81864979187205      0.35266774203459
  H   -1.07593544097135     -0.42016968318206      1.28548758515768
  N   1.41439461953604      0.05449010058092      0.31210768194412
  O   2.24279206351057     -0.74939027552509     -0.10243009505444
  O   1.50396418516120      0.76197139609994      1.30856275727258
  C   -0.37961894158000      1.47314798886028     -0.52431701829649
  N   -0.80066320978494      2.56600654045706     -0.59972982198950
