11
Coordinates from ORCA-job run
  C   -0.84221490456862     -0.90231138755656      0.11120967507774
  C   0.05955359112570      0.19520502324321     -0.42839729847072
  F   -0.23258506019074     -2.11223189395942     -0.13866135959575
  H   0.29424909321794      0.02577558311224     -1.48035337784520
  H   -1.80541623262684     -0.87323104345429     -0.40189505675188
  H   -0.97325770398759     -0.78269093905006      1.18681700666225
  N   1.38603609100914      0.14494323648438      0.30443379477283
  O   2.38902409193126      0.03856315810383     -0.38941370836960
  O   1.33084728684053      0.21184430298931      1.52560444073206
  C   -0.54152150222631      1.50773519469662     -0.22643390583672
  N   -1.06371475052446      2.54639876539075     -0.06291021037502
