11
Coordinates from ORCA-job run
  C   -0.94916602906929     -0.68910797534379      0.41720246996050
  C   0.10231512181038     -0.03647705291693     -0.46390777256645
  F   -1.17901097976016      0.11931727881371      1.50602816701250
  H   0.31956874411680     -0.68894656232677     -1.31524441074694
  H   -0.58344335378440     -1.65613488464041      0.76273050421066
  H   -1.87875723499460     -0.80465059744221     -0.14383648836687
  N   1.40679561702012      0.04591852537040      0.31412947130287
  O   1.92419310313951      1.14268620926543      0.46623215839715
  O   1.82782794141853     -1.03233634718305      0.71442702751465
  C   -0.30195436851226      1.28527772683400     -0.92627643596403
  N   -0.68936856138461      2.31545367956962     -1.33348469075405
