11
Coordinates from ORCA-job run
  C   -0.85329704757642     -0.88297203469595      0.20560386901510
  C   0.09110119604989      0.10602373472649     -0.45641015607629
  F   -1.13417999275210     -0.44312975744344      1.47862945150878
  H   0.35397801461272     -0.25429567899039     -1.45578174339088
  H   -1.78280190689433     -0.94266384482753     -0.36420153473070
  H   -0.37205549408641     -1.85926357418738      0.26485768792505
  N   1.40082088621293      0.11830521109959      0.31736370193714
  O   1.79707865201628      1.18120408431625      0.77238225306544
  O   1.95003336667494     -0.97315011988772      0.40234963995509
  C   -0.47109484780822      1.44862970192407     -0.53111170888024
  N   -0.97958282644929      2.50131227796602     -0.63268146032849
