11
Coordinates from ORCA-job run
  C   -0.95888383891986     -0.71857503410550      0.31625649465825
  C   0.09510603922933      0.05109039986658     -0.46187010330937
  F   -0.51260721599064     -2.01328235678120      0.46686988645517
  H   0.32895547342409     -0.44882772616898     -1.40300287246639
  H   -1.09747127796843     -0.27094684433019      1.30054243088744
  H   -1.89708452562432     -0.72511852447570     -0.24200545196022
  N   1.38553819556151      0.05748501039186      0.33431980092442
  O   2.38046144276296     -0.37119008659197     -0.23583727304982
  O   1.31204827061421      0.48801759983993      1.47801642122485
  C   -0.32727882431221      1.42799987446829     -0.68694264909494
  N   -0.70778373877666      2.52434768788689     -0.86434668426939
