11
Coordinates from ORCA-job run
  C   -0.85814152751925     -0.82218029613084      0.30812761904100
  C   0.09728674332995      0.10101104060747     -0.44851747546086
  F   -2.03526561000852     -0.88303965273368     -0.40003298894989
  H   0.27916182017577     -0.28412423802772     -1.45244611267853
  H   -0.42369128523299     -1.82273766671836      0.36688690061997
  H   -1.05541636668307     -0.42614895027010      1.30458911897499
  N   1.42062246484508      0.05861183952686      0.27448801442055
  O   1.45438837500455      0.59596675396954      1.37605285907204
  O   2.32564999063286     -0.55803601031835     -0.27659955594096
  C   -0.39472607776456      1.47169988442859     -0.50178151545168
  N   -0.81086852677983      2.56797729566661     -0.55176686364663
