11
Coordinates from ORCA-job run
  C   -0.94561605927216     -0.73740098377131      0.31404729387759
  C   0.09371113372793      0.05385959698694     -0.46203846191021
  F   -0.47629469445987     -2.02454525562160      0.45892482270316
  H   0.33655288298393     -0.43966348282469     -1.40428904522985
  H   -1.88432724451408     -0.75852557390731     -0.24290197790689
  H   -1.09100449817157     -0.29619332552433      1.30022154973112
  N   1.38396817611072      0.08250788708182      0.33445486013937
  O   1.30262492038010      0.51178053040176      1.47808268408607
  O   2.38617327498422     -0.32878315316383     -0.23552569204767
  C   -0.35362506093865      1.42348303901462     -0.68301537262781
  N   -0.75316283083057      2.51348072132795     -0.85796066081488
