13

C	0.0	0.0	0.0
C	-0.467581	0.351662	-1.402911
Cl	1.759688	0.0	0.0
H	0.062573	1.263323	-1.6964
H	-0.350559	0.777211	0.696979
H	-1.536655	0.570178	-1.311266
N	-0.631544	-1.224615	0.505732
O	-1.778185	-1.412283	-0.101271
O	-0.444996	-1.469272	1.723596
N	-0.15002	-0.711431	-2.35932
H	-0.390689	-0.390185	-3.288968
H	-0.787214	-1.466111	-2.130441
H	-2.857016	0.0	0.0
