13

C	0.0	0.0	0.0
C	-0.484851	-0.019281	-1.474355
Cl	1.763808	0.0	0.0
H	-0.404455	1.025712	-1.797981
H	-0.382223	0.819294	0.601992
H	0.269876	-0.582129	-2.029748
N	-0.382888	-1.255586	0.739649
O	-0.293093	-2.313967	0.124584
O	-0.696784	-1.131978	1.918244
N	-1.785666	-0.533393	-1.783469
H	-1.777756	-1.535883	-1.637543
H	-2.533514	-0.178342	-1.131454
H	-3.629012	0.0	0.0
