13

C	0.0	0.0	0.0
C	-0.47411	0.432411	-1.377716
Cl	1.759827	0.0	0.0
H	0.055096	1.357673	-1.630088
H	-0.348497	0.731645	0.744958
H	-1.542748	0.648465	-1.265106
N	-0.632232	-1.254972	0.432016
O	-0.436275	-1.575083	1.630789
O	-1.783928	-1.404961	-0.179629
N	-0.173782	-0.579251	-2.393464
H	-0.795609	-1.351368	-2.175471
H	-0.465092	-0.211325	-3.292622
H	-2.856137	0.0	0.0
