13

C	0.0	0.0	0.0
C	-0.53662	-0.020039	-1.425061
Cl	1.757237	0.0	0.0
H	-1.63447	-0.00785	-1.297094
H	-0.300212	0.920599	0.493672
H	-0.255057	0.914993	-1.918582
N	-0.681631	-1.05753	0.771625
O	-1.788423	-0.568111	1.255012
O	-0.544223	-2.248078	0.369517
N	-0.160434	-1.154868	-2.254724
H	-0.50304	-1.973985	-1.758656
H	0.850604	-1.24178	-2.238601
H	-2.94339	0.0	0.0
