13

C	0.0	0.0	0.0
C	-0.370412	0.145866	-1.511241
Cl	1.763971	0.0	0.0
H	0.365077	-0.465805	-2.043027
H	-0.397601	0.760918	0.663769
H	-0.12031	1.193016	-1.72931
N	-0.401401	-1.3244	0.58277
O	-0.572562	-1.366568	1.795993
O	-0.440418	-2.279721	-0.185922
N	-1.681196	-0.175915	-2.001384
H	-1.745952	-1.187204	-2.037503
H	-2.400498	0.076088	-1.277148
H	-3.266434	0.0	0.0
