19

C	0.0	0.0	0.0
C	-0.213175	-0.051505	-1.562105
Br	1.99282	0.0	0.0
H	0.311683	0.805042	-1.988441
C	-0.488669	1.339828	0.50902
H	-1.587195	1.315405	0.446847
H	-0.194088	1.449556	1.554465
H	-0.081121	2.169321	-0.072632
N	-0.581408	-1.029475	0.778034
H	-0.456923	-1.922532	0.316908
H	-1.599031	-0.818328	0.790666
C	-1.63162	-0.116519	-2.093954
H	-1.579585	-0.092141	-3.189026
H	-2.145171	-1.012068	-1.754112
H	-2.239921	0.700659	-1.713297
N	0.492387	-1.22412	-2.183857
O	0.268133	-2.344733	-1.724593
O	1.202954	-1.007822	-3.164887
H	-3.393082	0.0	0.0
