19

C	0.0	0.0	0.0
C	-0.54787	0.138434	-1.4291
Br	1.9639	0.0	0.0
H	-1.638846	0.275066	-1.235649
C	-0.401941	1.176862	0.886178
H	0.036031	2.122816	0.571524
H	-0.083369	0.963412	1.91129
H	-1.497505	1.222072	0.844428
N	-0.537912	-1.246709	0.480199
H	-0.339404	-1.30506	1.475618
H	-1.570836	-1.088446	0.398198
C	-0.2951	-1.055008	-2.322469
H	-0.765362	-1.925874	-1.869342
H	-0.733342	-0.878973	-3.30778
H	0.772413	-1.242722	-2.443233
N	-0.066974	1.388459	-2.088101
O	0.781617	1.296267	-2.979425
O	-0.560054	2.457292	-1.720344
H	-3.075616	0.0	0.0
