17

C	-0.406354	-0.008276	-1.447701
C	0.0	0.0	0.0
F	-0.13275	1.222092	-1.992372
H	1.107849	0.0	0.0
C	0.270456	-1.022948	-2.266009
N	0.833116	-1.756327	-2.990439
N	-1.930934	-0.15877	-1.66612
O	-2.619335	0.625361	-1.020847
O	-2.339482	-0.983567	-2.473682
N	-0.4675	-1.214812	0.648241
O	-0.413461	-1.27444	1.876135
O	-0.869744	-2.141536	-0.072863
C	-0.34624	1.234907	0.809258
H	0.31215	1.242209	1.677519
H	-0.121015	2.118379	0.212855
H	-1.38822	1.266742	1.132276
F	2.457176	0.0	0.0
