17

C	-0.426201	-0.077229	-1.449706
C	0.0	0.0	0.0
F	0.138059	-1.121035	-2.094344
H	1.093757	0.0	0.0
C	-1.88096	-0.083308	-1.68466
N	-3.042426	-0.057035	-1.86141
N	0.107543	1.189282	-2.16055
O	-0.548579	2.213843	-2.001254
O	1.127724	1.061925	-2.815751
N	-0.491543	-1.198958	0.709222
O	-1.078674	-2.080097	0.070434
O	-0.255225	-1.269183	1.914534
C	-0.428124	1.253433	0.739875
H	-0.191538	1.098453	1.790368
H	-1.49081	1.489207	0.631453
H	0.167609	2.094209	0.392783
F	2.477796	0.0	0.0
