17

C	-0.392788	-0.018964	-1.4554
C	0.0	0.0	0.0
F	0.172429	1.052378	-2.071384
H	1.091856	0.0	0.0
C	-0.084077	-1.211883	-2.253212
N	0.120634	-2.06968	-3.029262
N	-1.921887	0.192433	-1.574926
O	-2.323365	1.273092	-1.983552
O	-2.605972	-0.742742	-1.175512
N	-0.409062	-1.223711	0.704636
O	-0.798663	-1.11144	1.870226
O	-0.254934	-2.303508	0.131592
C	-0.48701	1.248232	0.698968
H	0.039451	1.335264	1.648235
H	-1.564022	1.243095	0.894016
H	-0.227723	2.114124	0.088669
F	2.469737	0.0	0.0
