19

C	0.0	0.0	0.0
C	-0.331349	-0.185309	-1.509574
Br	1.976107	0.0	0.0
H	0.239426	0.582588	-2.046454
C	-0.500921	1.342392	0.502059
H	-0.180876	2.156605	-0.153014
H	-1.594952	1.315814	0.545048
H	-0.119275	1.533402	1.507667
C	-0.518926	-1.137294	0.857941
H	-0.212525	-0.995921	1.897016
H	-1.613986	-1.127727	0.815732
H	-0.148425	-2.104255	0.51248
C	-1.808469	-0.044561	-1.879415
H	-1.917003	-0.186327	-2.958445
H	-2.191496	0.94083	-1.62103
H	-2.450323	-0.758043	-1.367909
C	0.165603	-1.479733	-1.99232
N	0.517943	-2.519113	-2.411694
Br	-4.668228	0.0	0.0
