19

C	0.0	0.0	0.0
C	-0.328836	-0.274717	-1.498215
Br	1.976074	0.0	0.0
H	0.262087	0.443666	-2.079585
C	-0.500053	1.371594	0.416108
H	-0.176182	2.143892	-0.28657
H	-1.594242	1.350631	0.456509
H	-0.121003	1.624551	1.409013
C	-0.525633	-1.079342	0.924747
H	-1.62037	-1.073068	0.874311
H	-0.153046	-2.066754	0.646806
H	-0.227853	-0.870352	1.954887
C	-1.800671	-0.1183	-1.884244
H	-1.922074	-0.37384	-2.939808
H	-2.471222	-0.741459	-1.297113
H	-2.138529	0.90632	-1.737718
C	0.140886	-1.608532	-1.891104
N	0.476325	-2.682194	-2.230177
Br	-4.676418	0.0	0.0
