12

C	0.0	0.0	0.0
C	-0.493465	-0.090695	-1.434992
Cl	1.753105	0.0	0.0
H	-1.603196	-0.192394	-1.26664
H	-0.410182	0.847638	0.537242
H	-0.043923	-0.954463	-1.923174
N	-0.466254	-1.238124	0.758222
O	-0.462037	-1.1477	1.983129
O	-0.718972	-2.242225	0.100067
C	-0.165079	1.107989	-2.187093
N	0.126224	2.066038	-2.803385
H	-2.714448	0.0	0.0
