14

C	-0.492163	-0.074329	-1.403645
C	0.0	0.0	0.0
Br	0.248873	1.315223	-2.50512
H	1.090952	0.0	0.0
H	-0.312632	-0.898545	0.5369
N	-0.148738	-1.425651	-2.027415
O	-0.545048	-1.595403	-3.176038
O	0.486591	-2.2177	-1.343418
N	-2.029366	-0.04554	-1.465259
O	-2.602085	0.990417	-1.767625
O	-2.55623	-1.092949	-1.091089
C	-0.493808	1.186053	0.66875
N	-0.851967	2.145615	1.246746
H	2.54167	0.0	0.0
