14

C	-0.452745	-0.020833	-1.420871
C	0.0	0.0	0.0
Br	-0.097034	1.604761	-2.352301
H	1.095007	0.0	0.0
H	-0.314086	-0.931846	0.476583
N	0.228486	-1.219495	-2.104662
O	1.025032	-1.037534	-3.005447
O	-0.116379	-2.293821	-1.620282
N	-1.952406	-0.351082	-1.614712
O	-2.309835	-0.585707	-2.763125
O	-2.656661	-0.360014	-0.614549
C	-0.503196	1.134771	0.74289
N	-0.884311	2.040289	1.388831
H	2.594565	0.0	0.0
