14

C	-0.484391	-0.031225	-1.407926
C	0.0	0.0	0.0
Br	0.252211	1.40093	-2.457059
H	1.090979	0.0	0.0
H	-0.312745	-0.915702	0.50676
N	-0.126875	-1.359189	-2.073415
O	0.498111	-2.174071	-1.407565
O	-0.503671	-1.489269	-3.233258
N	-2.021021	-0.012809	-1.478504
O	-2.601612	1.026559	-1.755026
O	-2.540864	-1.075783	-1.140539
C	-0.497929	1.163509	0.70368
N	-0.860423	2.103382	1.310674
H	2.542689	0.0	0.0
