14

C	-0.479535	0.035873	-1.409497
C	0.0	0.0	0.0
Br	0.268665	-1.389108	-2.462935
H	1.090983	0.0	0.0
H	-0.313169	0.914035	0.509708
N	-2.015909	0.007738	-1.484353
O	-2.588657	-1.039003	-1.74971
O	-2.544224	1.069268	-1.156701
N	-0.126498	1.368945	-2.065933
O	0.485184	2.187585	-1.390919
O	-0.493093	1.500706	-3.228399
C	-0.49764	-1.166649	0.698732
N	-0.858704	-2.10916	1.302395
H	2.547529	0.0	0.0
