14

C	-0.454937	0.034459	-1.422729
C	0.0	0.0	0.0
Br	0.187925	1.623776	-2.288531
H	1.093579	0.0	0.0
H	-0.300885	0.936021	0.475995
N	-0.004091	-1.223821	-2.166107
O	0.845155	-1.143961	-3.036409
O	-0.561168	-2.239078	-1.76149
N	-1.983903	0.049305	-1.615776
O	-2.65176	0.455602	-0.674879
O	-2.400253	-0.302685	-2.7129
C	-0.510185	-1.112248	0.775847
N	-0.866547	-1.984183	1.479765
H	2.602018	0.0	0.0
