14

C	-0.46761	-0.018687	-1.415184
C	0.0	0.0	0.0
Br	0.232656	-1.576598	-2.319914
H	1.091544	0.0	0.0
H	-0.291342	-0.948487	0.461617
N	-1.99685	-0.022619	-1.503993
O	-2.571999	-1.091778	-1.342549
O	-2.524331	1.084108	-1.600934
N	-0.032206	1.219236	-2.189616
O	0.583871	2.072316	-1.563264
O	-0.323732	1.242088	-3.37951
C	-0.543022	1.097926	0.773579
N	-0.9988	1.952229	1.441077
H	2.541633	0.0	0.0
