17

C	-0.535234	-0.037302	-1.408637
C	0.0	0.0	0.0
F	-0.030014	-1.079289	-2.126977
H	1.096178	0.0	0.0
H	-1.626196	-0.092227	-1.438443
N	-0.208767	1.225688	-2.162433
O	0.860992	1.287529	-2.748612
O	-1.061825	2.111743	-2.098121
C	-0.456526	-1.272793	0.712336
H	-0.021385	-1.296978	1.712948
H	-1.548223	-1.314289	0.807975
H	-0.111797	-2.161876	0.182442
C	-0.474107	1.251348	0.732971
H	-1.56526	1.343132	0.723617
H	-0.049447	2.15853	0.301104
H	-0.137792	1.198372	1.769565
Br	3.648968	0.0	0.0
