17

C	-0.463647	0.081458	-1.434297
C	0.0	0.0	0.0
F	-1.805553	0.370613	-1.525453
H	1.094974	0.0	0.0
H	0.096319	0.820808	-2.009941
N	-0.259897	-1.229008	-2.154441
O	-1.187701	-2.034521	-2.14907
O	0.840453	-1.394066	-2.666079
C	-0.513163	-1.241193	0.71989
H	-1.6028	-1.32233	0.662865
H	-0.074842	-2.15216	0.307989
H	-0.219132	-1.18748	1.770781
C	-0.431865	1.283637	0.711015
H	-0.089458	2.168839	0.16731
H	0.031066	1.312315	1.699699
H	-1.517822	1.340556	0.82488
Br	3.600412	0.0	0.0
