17

C	-0.527199	-0.027874	-1.414338
C	0.0	0.0	0.0
F	-0.016966	-1.071435	-2.127501
H	1.096178	0.0	0.0
H	-1.619503	-0.086189	-1.451269
N	-0.202184	1.238479	-2.170786
O	0.835061	1.284168	-2.81429
O	-1.034426	2.141382	-2.058997
C	-0.457743	-1.2831	0.692486
H	-1.550793	-1.326705	0.780849
H	-0.110135	-2.163925	0.150841
H	-0.028403	-1.322633	1.695727
C	-0.478477	1.236193	0.754413
H	-0.146205	1.161042	1.792124
H	-1.570262	1.329325	0.743529
H	-0.052753	2.151791	0.342256
Br	3.616663	0.0	0.0
