17

C	-0.35782	-0.004691	-1.467884
C	0.0	0.0	0.0
F	-0.075974	1.184601	-2.06856
H	1.097531	0.0	0.0
H	0.13941	-0.807902	-2.012551
N	-1.839139	-0.245359	-1.664716
O	-2.184482	-1.417248	-1.813578
O	-2.594645	0.720841	-1.614771
C	-0.445216	-1.290578	0.681167
H	0.00221	-1.331722	1.676518
H	-0.104799	-2.171504	0.131587
H	-1.533255	-1.352035	0.786527
C	-0.505283	1.24008	0.724085
H	-0.175702	2.148366	0.219065
H	-0.087402	1.250199	1.73348
H	-1.597181	1.257915	0.797213
Br	3.581942	0.0	0.0
