16

C	0.0	0.0	0.0
C	-0.425132	-0.29355	-1.481748
Br	1.961431	0.0	0.0
H	0.461414	-0.568441	-2.061038
H	-0.247918	-0.901555	0.559443
N	-0.582406	1.109399	0.68139
H	-1.596411	0.851107	0.646863
H	-0.467879	1.94285	0.113568
C	-1.072441	0.930105	-2.131005
H	-0.415188	1.808302	-2.124561
H	-2.002825	1.125239	-1.595992
H	-1.302447	0.701654	-3.177977
N	-1.307216	-1.462934	-1.436876
H	-2.128826	-1.119836	-0.901568
H	-1.617704	-1.64984	-2.386957
F	-2.965125	0.0	0.0
