16

C	0.0	0.0	0.0
C	-0.246289	-0.075862	-1.569169
Br	1.962365	0.0	0.0
H	0.600754	0.442666	-2.027969
H	-0.257306	-0.969146	0.444446
N	-0.615826	1.129997	0.601175
H	-1.643152	0.868695	0.432485
H	-0.461634	1.080602	1.605409
C	-1.491265	0.582156	-2.148061
H	-1.534542	1.629766	-1.846336
H	-2.391166	0.112379	-1.756943
H	-1.402192	0.519577	-3.238187
N	-0.187043	-1.461685	-2.041148
H	0.6318	-1.912005	-1.644886
H	-1.005486	-1.93049	-1.662705
F	-2.909442	0.0	0.0
