16

C	0.0	0.0	0.0
C	-0.220867	-0.083134	-1.555281
Br	1.964323	0.0	0.0
H	0.521837	0.611769	-1.974812
H	-0.261478	-0.967226	0.438717
N	-0.631185	1.138887	0.563201
H	-1.657699	0.855265	0.397529
H	-0.489307	1.115608	1.569509
C	-1.550375	0.352439	-2.147393
H	-1.749986	1.391973	-1.887212
H	-2.377424	-0.227609	-1.747213
H	-1.449433	0.284935	-3.241468
N	0.050575	-1.471313	-1.967366
H	1.049182	-1.642891	-1.926652
H	-0.233971	-1.571566	-2.934904
F	-2.935925	0.0	0.0
