16

C	0.0	0.0	0.0
C	-0.187987	0.016805	-1.566719
Br	1.986869	0.0	0.0
H	0.455065	0.847431	-1.907878
H	-0.293652	-0.979471	0.374661
N	-0.630325	1.013254	0.744823
H	-1.659137	0.705058	0.620299
H	-0.510325	1.89912	0.259599
C	-1.568277	0.295021	-2.139307
H	-2.251716	-0.521666	-1.932753
H	-1.431797	0.455474	-3.220592
H	-2.031365	1.168005	-1.69278
N	0.25682	-1.275647	-2.114021
H	1.267948	-1.318809	-2.120834
H	-0.061825	-1.338717	-3.073869
F	-2.916472	0.0	0.0
