11

C	0.0	0.0	0.0
C	-0.509181	-0.050297	-1.438408
Cl	1.781703	0.0	0.0
H	-1.625427	-0.053663	-1.249485
H	-0.353615	-0.884972	0.529349
H	-0.193879	0.84032	-1.988769
C	-0.479053	1.178941	0.729434
N	-0.590237	2.160975	1.36865
C	-0.066251	-1.249274	-2.125526
N	0.258197	-2.228918	-2.689393
H	-2.710292	0.0	0.0
