11

C	0.0	0.0	0.0
C	-0.593852	-0.009788	-1.394141
Cl	1.781495	0.0	0.0
H	-0.354713	0.909352	-1.934888
H	-0.339216	-0.888583	0.534068
H	-1.719042	-0.041399	-1.089206
C	-0.434232	1.171962	0.771795
N	-0.585921	2.127825	1.438757
C	-0.179151	-1.174608	-2.145841
N	0.127957	-2.13793	-2.748528
H	-2.812353	0.0	0.0
