11

C	0.0	0.0	0.0
C	-0.58398	-0.048633	-1.402052
Cl	1.781782	0.0	0.0
H	-1.711725	-0.073058	-1.101573
H	-0.354041	-0.871165	0.554703
H	-0.347278	0.863595	-1.96113
C	-0.443862	1.197888	0.724374
N	-0.572229	2.186884	1.349946
C	-0.152891	-1.212996	-2.144249
N	0.163961	-2.164539	-2.760651
H	-2.771906	0.0	0.0
