11

C	0.0	0.0	0.0
C	-0.212113	0.053118	-1.527085
Cl	1.783149	0.0	0.0
H	0.133433	1.040561	-1.864751
H	-0.302907	-0.961327	0.409021
H	0.45309	-0.670242	-2.00154
C	-0.789383	1.06395	0.627718
N	-0.798365	2.125613	1.175724
C	-1.547977	-0.205127	-2.036146
N	-2.505683	-0.424167	-2.690322
H	-2.060218	0.0	0.0
