16
Coordinates from ORCA-job run
  C   -0.78074876657913      0.26642354552148     -0.08037351628247
  C   0.41500897104855      0.78234055667775      0.69601007311739
  F   -1.81964972596737      1.14665272717952      0.09635360288514
  H   0.14336110067258      0.73511714761376      1.75506605550667
  H   0.51902590299074      1.83902222229071      0.43392658921567
  N   -0.41640184991826      0.35602902781981     -1.55934417531702
  O   -0.43211954347174      1.47489563143466     -2.05823746256914
  O   -0.07094554244256     -0.68292204028615     -2.11754450957347
  C   -1.26198501633597     -1.11964203631440      0.25543835428991
  H   -1.57759675301221     -1.12357595822522      1.30035189373730
  H   -0.48547984372665     -1.86527851868740      0.10522818128818
  H   -2.11687048344329     -1.37495339487112     -0.37168039158675
  C   1.71517616030378      0.03056156234014      0.43251617255840
  H   1.62818688754483     -1.03180551424252      0.66642158608610
  H   2.02993844868922      0.12238361470102     -0.60833488627162
  H   2.51110005364746      0.44275142704795      1.05520243291569
