16

C	-0.364989	0.075019	-1.474904
C	0.0	0.0	0.0
Br	-0.186885	-1.908231	-2.186805
H	1.101573	0.0	0.0
H	-0.423278	-0.884985	0.474508
C	-1.801828	0.426023	-1.798641
H	-1.971754	0.420035	-2.878719
H	-2.479326	-0.29197	-1.335718
H	-2.011536	1.417567	-1.393655
N	0.563741	0.921838	-2.088257
H	0.492335	0.947281	-3.095283
H	1.517202	0.717809	-1.771711
N	-0.516584	1.21584	0.675778
H	0.002686	1.986906	0.260771
H	-0.169769	1.160377	1.62931
H	3.020353	0.0	0.0
