16

C	-0.437829	-0.265069	-1.44058
C	0.0	0.0	0.0
Br	-0.143967	-2.202511	-1.781257
H	1.091581	0.0	0.0
H	-0.39683	-0.750019	0.69383
C	-1.906182	0.010917	-1.703447
H	-2.539535	-0.595281	-1.051366
H	-2.095233	1.068445	-1.499557
H	-2.145323	-0.207556	-2.745515
N	0.380801	0.462797	-2.391621
H	1.353653	0.29208	-2.124448
H	0.215854	1.44303	-2.168358
N	-0.379897	1.383931	0.344367
H	-1.141171	1.395837	1.010489
H	0.427997	1.809898	0.786513
H	2.992445	0.0	0.0
