16

C	-0.469576	-0.034548	-1.458533
C	0.0	0.0	0.0
Br	-0.086019	1.723946	-2.293169
H	1.093627	0.0	0.0
H	-0.325041	-0.967643	0.416005
C	0.315009	-1.091763	-2.208302
H	0.072361	-2.073143	-1.781442
H	1.384877	-0.919103	-2.06463
H	0.046479	-1.092506	-3.266068
N	-1.904216	-0.24134	-1.667324
H	-2.138066	-1.11627	-1.200888
H	-2.420919	0.4948	-1.195143
N	-0.483125	1.076538	0.85232
H	-1.406183	1.383073	0.567358
H	0.148038	1.859274	0.73812
H	3.045171	0.0	0.0
