16

C	-0.336215	0.037462	-1.500908
C	0.0	0.0	0.0
Br	-0.08134	-1.834184	-2.1567
H	1.094722	0.0	0.0
H	-0.423084	-0.88074	0.489266
C	-1.770995	0.400322	-1.847114
H	-1.972585	1.438082	-1.559422
H	-1.928175	0.313174	-2.922696
H	-2.47324	-0.250749	-1.323793
N	0.581471	0.868113	-2.253723
H	1.523061	0.677912	-1.892386
H	0.372511	1.833776	-2.014713
N	-0.371009	1.220428	0.721353
H	0.384151	1.888892	0.634577
H	-1.2262	1.64088	0.386508
H	2.99045	0.0	0.0
