11

C	-0.359963	-0.00086	-1.357651
C	-0.032436	-0.100142	0.128865
Br	0.273566	-1.589078	-2.313271
H	1.060282	-0.109896	0.128462
H	-1.43798	-0.007971	-1.54089
H	-0.323281	0.844189	0.602578
C	0.187297	1.206965	-1.975396
N	0.255185	2.206041	-2.594585
C	-0.719682	-1.202903	0.780771
N	-1.264247	-2.086372	1.332994
F	2.164205	0.631386	-0.809932
