11

C	-0.345982	0.012239	-1.384873
C	-0.066412	-0.02576	0.119563
Br	0.09339	-1.722098	-2.178272
H	1.025543	0.008571	0.136441
H	-1.411268	0.130918	-1.600086
H	-0.473429	-0.94636	0.546249
C	0.370063	1.077833	-2.084912
N	0.621252	2.002412	-2.767653
C	-0.680401	1.117344	0.778231
N	-1.182088	2.031151	1.322002
F	2.265537	0.219213	-0.820724
