19

C	0.0	0.0	0.0
C	-0.576853	0.076915	-1.40916
Cl	1.749333	0.0	0.0
H	0.032731	0.864397	-1.867862
N	-0.45456	1.256852	0.767296
O	0.017239	2.308449	0.360932
O	-1.28214	1.102842	1.651005
N	-0.480986	-1.172941	0.85434
O	-1.451622	-1.792884	0.442991
O	0.128156	-1.368502	1.897494
C	-2.03628	0.533656	-1.435099
H	-2.140616	1.562499	-1.085438
H	-2.725624	-0.076362	-0.850304
H	-2.383366	0.512144	-2.470765
C	-0.353439	-1.214623	-2.19696
H	-0.527753	-1.005685	-3.254856
H	-1.057778	-1.983867	-1.884555
H	0.666869	-1.593633	-2.094814
Cl	-5.195254	0.0	0.0
