19

C	0.0	0.0	0.0
C	-0.609074	-0.097625	-1.383312
Cl	1.731299	0.0	0.0
H	-1.695803	-0.115608	-1.203102
N	-0.45169	1.298822	0.732226
O	0.211161	1.653675	1.698636
O	-1.44825	1.847027	0.284127
N	-0.459751	-1.136392	0.956422
O	-1.173686	-2.010985	0.492519
O	-0.036142	-1.067845	2.102852
C	-0.165823	-1.353053	-2.138833
H	-0.712488	-1.38514	-3.08481
H	0.902492	-1.316778	-2.369931
H	-0.387144	-2.270897	-1.600462
C	-0.243016	1.120236	-2.239685
H	-0.732933	1.011141	-3.210831
H	0.835675	1.173593	-2.413336
H	-0.58523	2.057872	-1.808026
Cl	-3.949084	0.0	0.0
