19

C	0.0	0.0	0.0
C	-0.622228	0.015528	-1.385117
Cl	1.754601	0.0	0.0
H	-0.186707	0.898593	-1.86498
N	-0.363888	1.237913	0.832312
O	-0.585041	2.262705	0.202528
O	-0.295886	1.118789	2.046643
N	-0.503394	-1.215706	0.781407
O	-1.619901	-1.092939	1.263287
O	0.206339	-2.21361	0.786072
C	-2.146346	0.155638	-1.352656
H	-2.496792	0.293097	-2.378468
H	-2.655126	-0.71978	-0.952604
H	-2.507742	0.998109	-0.769305
C	-0.21718	-1.232885	-2.171233
H	-0.593053	-1.131737	-3.191372
H	0.863268	-1.377839	-2.2139
H	-0.672547	-2.12796	-1.742
Cl	-5.306124	0.0	0.0
