19

C	0.0	0.0	0.0
C	-0.607236	-0.235731	-1.376093
Cl	1.749611	0.0	0.0
H	-0.015697	-1.057431	-1.795072
N	-0.515474	1.317932	0.579963
O	-1.682124	1.288723	0.944278
O	0.234764	2.284962	0.559685
N	-0.352823	-1.096769	1.013929
O	-0.404877	-2.230529	0.55796
O	-0.4339	-0.76836	2.188094
C	-0.400961	1.015919	-2.233724
H	0.626363	1.384321	-2.210135
H	-0.65784	0.777218	-3.267966
H	-1.068748	1.816003	-1.906474
C	-2.081989	-0.644186	-1.351141
H	-2.44047	-0.674126	-2.383349
H	-2.740276	0.03298	-0.805989
H	-2.225012	-1.634777	-0.92464
Cl	-5.268888	0.0	0.0
