19

C	0.0	0.0	0.0
C	-0.709194	-0.008093	-1.329027
Cl	1.768803	0.0	0.0
H	-1.749803	-0.264484	-1.062547
N	-0.442496	1.207711	0.847527
O	-1.385458	1.02501	1.600591
O	0.157639	2.256428	0.645324
N	-0.370852	-1.229929	0.869412
O	-1.056885	-2.099455	0.354052
O	0.089415	-1.234499	2.002729
C	-0.118892	-1.046578	-2.280303
H	0.844762	-0.712243	-2.675885
H	0.010676	-2.018569	-1.806698
H	-0.808977	-1.173981	-3.117585
C	-0.73033	1.372833	-1.980431
H	-1.162409	1.267733	-2.978579
H	-1.365723	2.06009	-1.422754
H	0.2713	1.801194	-2.074823
Cl	-3.948784	0.0	0.0
