17

C	-0.502026	-0.12526	-1.440529
C	0.0	0.0	0.0
F	-1.88969	-0.364412	-1.399504
H	1.093287	0.0	0.0
C	-0.32823	1.183326	-2.100084
N	-0.221191	2.174137	-2.720509
C	0.165758	-1.200412	-2.273236
H	-0.151211	-1.099281	-3.313218
H	-0.113828	-2.182094	-1.8971
H	1.249591	-1.087348	-2.192944
N	-0.427895	-1.268985	0.743939
O	-1.239222	-1.146257	1.661517
O	0.06765	-2.333251	0.387897
N	-0.493908	1.177083	0.618647
H	0.100219	1.425901	1.397437
H	-1.442291	1.046539	0.944525
Cl	3.264406	0.0	0.0
