17

C	-0.570128	0.008128	-1.425884
C	0.0	0.0	0.0
F	-0.258865	1.280548	-1.920853
H	1.109906	0.0	0.0
C	0.068161	-0.959141	-2.334268
N	0.480132	-1.689573	-3.156124
C	-2.080666	-0.136565	-1.472839
H	-2.375308	-1.160251	-1.245619
H	-2.427593	0.12031	-2.474886
H	-2.509219	0.549876	-0.74314
N	-0.411888	-1.244301	0.711025
O	-0.573052	-1.1794	1.927459
O	-0.507766	-2.274473	0.044313
N	-0.540609	1.143554	0.719145
H	-0.027372	1.946932	0.372229
H	-0.268514	1.024785	1.68911
Cl	3.247871	0.0	0.0
