17

C	-0.4918	0.012527	-1.451074
C	0.0	0.0	0.0
F	-0.241353	-1.223851	-2.033105
H	1.090931	0.0	0.0
C	-1.955521	0.222616	-1.505352
N	-3.112322	0.419067	-1.557203
C	0.245267	1.084532	-2.22705
H	1.316899	0.896428	-2.127772
H	-0.055172	1.044516	-3.276149
H	0.012072	2.062778	-1.808913
N	-0.471863	-1.30401	0.627779
O	0.261461	-2.282149	0.549305
O	-1.5892	-1.288043	1.157617
N	-0.48625	1.150204	0.686054
H	0.120622	1.354679	1.468986
H	-1.431428	0.992969	1.0147
Cl	3.344282	0.0	0.0
