17

C	-0.43453	-0.108606	-1.472012
C	0.0	0.0	0.0
F	-1.83154	-0.262218	-1.519644
H	1.091598	0.0	0.0
C	-0.152147	1.190896	-2.111537
N	0.020763	2.218765	-2.651383
C	0.223705	-1.231021	-2.245078
H	1.307423	-1.155111	-2.122848
H	-0.106686	-2.189679	-1.847275
H	-0.048978	-1.158534	-3.299887
N	-0.499008	-1.257946	0.674226
O	-1.547532	-1.18484	1.310338
O	0.155366	-2.28468	0.500197
N	-0.488243	1.134395	0.704915
H	-1.404687	1.430383	0.400687
H	0.183097	1.886977	0.652031
Cl	3.284611	0.0	0.0
