14

C	-0.020982	0.011186	-0.052302
C	-0.391893	-0.413489	-1.4872
F	1.361631	0.255685	-0.012927
H	0.552774	-0.648784	-1.991997
H	-0.268523	-0.803122	0.621019
C	-0.692664	1.223692	0.428254
N	-1.049565	2.277421	0.803239
N	-0.814438	0.860772	-2.276257
O	-1.925308	0.888009	-2.797712
O	0.034534	1.745799	-2.367607
N	-1.328066	-1.453539	-1.502236
H	-1.989049	-1.269389	-0.692591
H	-1.791679	-1.508696	-2.39818
F	-2.323469	-0.6952	0.674204
