14

C	-0.022594	0.014769	-0.049996
C	-0.390764	-0.291362	-1.515468
F	1.359772	0.25684	0.011316
H	0.555028	-0.481934	-2.036682
H	-0.269727	-0.852315	0.553956
C	-0.696303	1.183029	0.527566
N	-1.054212	2.202808	0.986166
N	-0.815956	1.04221	-2.197872
O	0.030684	1.934001	-2.214989
O	-1.926133	1.109065	-2.717185
N	-1.323957	-1.32925	-1.616976
H	-1.987921	-1.211408	-0.797572
H	-1.784687	-1.313608	-2.515984
F	-2.326004	-0.748869	0.610418
