15
Coordinates from ORCA-job run
  C   -0.85608366081359     -0.23856914368126      0.38033413467824
  C   0.64565742001227      0.03885967429581      0.49246077840177
  Br  -1.72898957919989      0.60204007733008      1.87890000361306
  H   1.02229301462489     -0.36733146937908      1.43089412917505
  C   -1.15219260681893     -1.66143114586965      0.39678112958304
  N   -1.45474994489294     -2.79850829818516      0.41236556114317
  N   -1.42086381669038      0.29915953029735     -0.97649145973526
  O   -2.40276418668805      1.00713839358885     -0.96263896547478
  O   -0.79159110532251     -0.12584068352345     -1.93309108556027
  N   0.94968696513919      1.50355991122217      0.48287121933834
  O   1.90152747815294      1.84125375793941      1.17666511218502
  O   0.25558422312532      2.21221749745810     -0.23580972173129
  N   1.47685493411423     -0.60912771037261     -0.60551789794380
  O   2.06664419982164      0.12716384884387     -1.37885762475454
  O   1.48798666543581     -1.82958423996446     -0.55986531291774
