14
Coordinates from ORCA-job run
  C   0.75226133098042     -0.66136481478709     -0.13457377132860
  C   -0.40487253242184      0.11347835305789      0.45840176515483
  H   0.90603799748934     -1.53173018026366      0.50677487987816
  H   -0.21010054678835      0.42867564242248      1.48098722413882
  H   0.46777441925604     -1.01193293770491     -1.13302571467340
  N   1.92373371655482      0.19966029638560     -0.09777532646658
  H   2.76471905512034     -0.34657392905480      0.02190936761525
  H   1.99918944631466      0.71874761735431     -0.96191230383730
  N   -1.64648704724868     -0.73168829729161      0.46860483078855
  O   -1.65043549079213     -1.61409529286850      1.32008120449678
  O   -2.50554986335498     -0.51751918479371     -0.37804405637429
  N   -0.71317380864576      1.34898902316993     -0.32704519156438
  O   -0.34027491085693      1.39101992499053     -1.49640401605276
  O   -1.34382176560692      2.21433377938355      0.27102110822491
