14
Coordinates from ORCA-job run
  C   0.81124934297858     -0.60100133847489      0.04807083027346
  C   -0.49299749156559      0.09805562503331      0.36662133437069
  H   0.75122476388896     -1.01694964578359     -0.96390733701807
  H   -0.52297473307048      0.47122508184859      1.38779356862215
  H   0.90337652536556     -1.42691954835354      0.75655496493193
  N   1.88602042359566      0.35646565818849      0.25473705188357
  H   2.08828149295669      0.84259655782801     -0.60812218800085
  H   2.72633899716769     -0.11025830910348      0.56437411252325
  N   -1.64674284324885     -0.84707755689927      0.19030762959443
  O   -1.75190063102066     -1.68779428638084      1.07679746723709
  O   -2.33714588580157     -0.74441600934527     -0.81644196974240
  N   -0.73499835659458      1.26938608463654     -0.53232569987660
  O   -1.53225415071255      2.10274802393197     -0.11499791347815
  O   -0.14747745393887      1.29393966287396     -1.61046185132049
