14
Coordinates from ORCA-job run
  C   0.85809657256662     -0.47968639727853      0.24970069612269
  C   -0.56587911278013     -0.19614092305517     -0.19156263811298
  H   1.00893511491475     -0.00252895221510      1.22026995440721
  H   -0.83328614785704     -0.69289855272676     -1.12367418870874
  H   0.96630981775603     -1.55554999385319      0.39094434781656
  N   1.74197840309637      0.05712324893659     -0.77573883612028
  H   2.33005581083028      0.78941684979775     -0.40818642279009
  H   2.32721015528346     -0.65825025143288     -1.17916665070092
  N   -0.73577303037260      1.27002540981434     -0.42281125481530
  O   -0.35788223941846      2.00322449831526      0.48623754202348
  O   -1.22951274778853      1.61478817495717     -1.48938573204889
  N   -1.58469852521581     -0.60264752969714      0.83987548255215
  O   -1.30324799108639     -1.59383635553608      1.50621384636267
  O   -2.62130607992855      0.04696077397373      0.89628385401247
