17
Coordinates from ORCA-job run
  C   -0.53887459517888     -0.21293447118106      0.13425244050152
  C   0.64893356884737      0.35458380379847     -0.14229073662144
  C   -0.67147069471313     -1.67209318924798      0.47278918816555
  H   -1.19600257612184     -2.19800007273577     -0.33185420277739
  H   0.27740031631589     -2.17571803232107      0.64690361728414
  H   -1.28419455998675     -1.78106557081391      1.37300500390259
  C   -1.84717456531036      0.53358328083877      0.13659501545370
  H   -1.84787621225587      1.41557376621416     -0.50176752422585
  H   -2.08904049002576      0.86564945926426      1.15060777340934
  H   -2.64573615507109     -0.13572602053490     -0.19366999395998
  C   2.00851143970372     -0.25983490289767     -0.25278310930152
  H   2.34730948049202     -0.23949589288100     -1.29008518530985
  H   2.01556137246188     -1.28878835308654      0.09917863466446
  H   2.72939035113799      0.31218296878072      0.33785647097753
  N   0.67906352303912      1.79118115605715     -0.46238362638150
  O   1.29975765375150      2.11454995464030     -1.47648926884261
  O   0.11444214291418      2.57535211610607      0.30013550306130
