17
Coordinates from ORCA-job run
  C   -0.54035721582973     -0.24605488485675     -0.03433330344709
  C   0.64824412348579      0.38401592147485     -0.01543047532914
  C   -1.85869852596341      0.44879763501803     -0.25355718217972
  H   -1.85187091712010      1.49880384711333      0.03391881278861
  H   -2.63694786899876     -0.06434173531831      0.31715481346093
  H   -2.13664728484621      0.40320171481453     -1.31078355209925
  C   -0.66375547302863     -1.73118151041504      0.16742894044475
  H   -1.16802911978418     -1.93927983658991      1.11690113757524
  H   -1.29206598702406     -2.15391475237858     -0.62272750478236
  H   0.28672910487435     -2.26092545359356      0.16406065162080
  C   2.01775533224564     -0.15314571255135      0.25908877739333
  H   2.37852369259880      0.20627292890033      1.22448413781285
  H   2.03043493961497     -1.24055601418968      0.26101420870173
  H   2.71928873892653      0.19824479987258     -0.50231926516225
  N   0.67132590198527      1.84168354674819     -0.21748535065822
  O   1.33262731506663      2.49656349336564      0.59004297620541
  O   0.06144324379711      2.31281601258570     -1.17745782234562
