17
Coordinates from ORCA-job run
  C   -0.54670679235226     -0.20153262516317      0.11759777911288
  C   0.64998449193508      0.32048693869820     -0.20698310283051
  C   -0.70383078316850     -1.62506986083676      0.57575222394537
  H   -1.50472958301899     -2.10372327663219      0.00358678577093
  H   0.19517971403388     -2.22889045363723      0.46985151248515
  H   -1.00986369082739     -1.64783650901478      1.62686119906799
  C   -1.84211758809944      0.56547864599413      0.06296668017108
  H   -2.34022226224687      0.39555739833516     -0.89621081218149
  H   -2.50816972789793      0.20656349441597      0.85173256960877
  H   -1.71767774993516      1.64114121781296      0.17592536788304
  C   2.01587921816986     -0.28638215545630     -0.13689418288433
  H   1.97183380717071     -1.35646011033084      0.05143606694465
  H   2.59933926319903      0.18814823849499      0.65406313316592
  H   2.54874216176006     -0.12348108296534     -1.07766624853635
  N   0.70573934788490      1.72522788702933     -0.64318489292255
  O   -0.06900261425993      2.09888079851124     -1.52381738710165
  O   1.55662278765296      2.43389145474462     -0.10301669169889
