11
Coordinates from ORCA-job run
  C   -0.34991179465761     -0.36935040020028     -0.15139069854224
  C   0.69349300531608      0.43062581729024      0.06650590229911
  H   -0.21953648022007     -1.19197829860390     -0.84992083267552
  H   0.72208102581188      1.28679660228537      0.72833820531487
  C   -1.67721420596755     -0.19003959293369      0.50967584594531
  H   -2.45971196891852     -0.04636979629129     -0.24034424593464
  H   -1.68409181661776      0.66613677726829      1.18580907888563
  H   -1.94267149235897     -1.08436638288556      1.07995341951552
  N   1.97227899212102      0.21132877929832     -0.60876204755264
  O   2.08223877957041     -0.73032384878315     -1.38783978926521
  O   2.86204595592109      1.01654034355564     -0.33102483799021
