11
Coordinates from ORCA-job run
  C   -0.27981050420726     -0.44977989954383      0.03008697112335
  C   0.61441323496170      0.52400283072856     -0.13847327037347
  H   0.01949449347266     -1.46229275013945     -0.22845372774068
  H   0.46944832465995      1.57584674056551      0.07235942933458
  C   -1.65973953457547     -0.21917709779248      0.55306262048471
  H   -2.40380125800262     -0.55434134825044     -0.17463819213340
  H   -1.84187719957409      0.83341060143050      0.77469651199111
  H   -1.82274872335368     -0.79918310330569      1.46551828745268
  N   1.95424070756805      0.24289673526217     -0.65321941790965
  O   2.25459007485299     -0.91248882524628     -0.93723662921055
  O   2.69479038419778      1.22110611629142     -0.76270258301867
