11
Coordinates from ORCA-job run
  C   -0.24482703108141     -0.64903797186490      0.57288796794915
  C   1.00999616053961     -0.20098928602823      0.44820730143082
  H   -0.35962135349613     -1.43490517538428      1.31656009579930
  H   1.84254514435443     -0.55338227780502      1.04232115624740
  C   -1.47465196693464     -0.21992331402136     -0.16770588116671
  H   -1.42094055754473     -0.52405146926529     -1.21519333147884
  H   -1.58165634804429      0.86493986168558     -0.17007683594441
  H   -2.36083571868723     -0.66721779698843      0.28205918726416
  N   1.41498775698010      0.85552306661605     -0.46962841953890
  O   2.55527250923523      1.29293466997298     -0.31001861407132
  O   0.62173140467905      1.23710969308290     -1.32941262649065
