11
Coordinates from ORCA-job run
  C   -0.24832806656056     -0.44294882677252      0.15348717334303
  C   0.58631754693227      0.51285233026342     -0.25412896121376
  H   0.14758831937214     -1.44982041015128      0.25879298541661
  H   0.34607506008110      1.55751744008349     -0.40518790172394
  C   -1.68809805115103     -0.19988100518061      0.46816900274914
  H   -2.32675732932791     -0.81912996335023     -0.16756964031791
  H   -1.90376530656682     -0.47792808836143      1.50341229511657
  H   -1.96638417913333      0.84529055646594      0.32524725594817
  N   1.98876645930140      0.22014780606195     -0.54878059117816
  O   2.66469412562161      1.18309473335901     -0.91376494632195
  O   2.39889142143113     -0.92919457241774     -0.41967667181780
