11
Coordinates from ORCA-job run
  C   -0.35804044930783     -0.32593990231685     -0.21686409198732
  C   0.70572374769049      0.38830445626247      0.15000506313965
  H   -0.23693152351063     -1.03057221898832     -1.03567721745625
  H   0.74532138029884      1.12661743862979      0.94069266290129
  C   -1.69542417526799     -0.20701382953134      0.43758569290837
  H   -2.45338924022441      0.08322658605436     -0.29507989096508
  H   -1.69197767747564      0.52948303302720      1.24245493164680
  H   -2.00443519360370     -1.17107134318389      0.85065378715823
  N   1.99352887183468      0.23277903569588     -0.52581242976284
  O   2.09198829196595     -0.57414480825632     -1.44507303777527
  O   2.90263596760024      0.94833155260702     -0.10288546980759
