11
Coordinates from ORCA-job run
  C   -0.43135668807681     -0.76953636518403     -0.17947906118850
  C   0.84319128099927     -0.53429656427762     -0.51255109037460
  H   -0.78822404385928     -1.75473071402822     -0.47231309249920
  H   1.48479318562556     -1.25288055577009     -1.00488446819514
  C   -1.40135076711036      0.13236049737582      0.52110730776811
  H   -0.96913937997563      0.55608206453661      1.42780167218751
  H   -2.30814020687022     -0.41508225307902      0.77746753180636
  H   -1.66976899374970      0.97915084163514     -0.11407575330660
  N   1.55318869711964      0.70334988821160     -0.21904746745302
  O   2.76913865900127      0.68015275775742     -0.41313650839687
  O   0.91766825689626      1.67443040282240      0.19011092965195
