11
Coordinates from ORCA-job run
  C   -0.26373003680954     -0.14775208017213      0.43624138166784
  C   0.61380626457863      0.17806339105948     -0.51227943277639
  H   0.12622872265394     -0.45669570978637      1.40270640103698
  H   0.38409931275921      0.50309711893667     -1.51896525764825
  C   -1.74349691743324     -0.10892148771359      0.23676284651034
  H   -2.01122719435589      0.21627016873744     -0.76962903788173
  H   -2.20701779857253      0.57180446230311      0.95599995672995
  H   -2.17734323514282     -1.09769532911740      0.40888711785931
  N   2.05426547838815      0.12309317395329     -0.26427446868765
  O   2.45717869764153     -0.23064460702451      0.83951038004339
  O   2.76723670629258      0.44738089882400     -1.21495988685379
