11
Coordinates from ORCA-job run
  C   -0.39512096819453     -0.28710996384071     -0.20753173929936
  C   0.73993525677377      0.33215999824427      0.11559657529857
  H   -0.38774853361491     -0.93499998368452     -1.08033668885008
  H   0.89156184593329      1.00549773133442      0.94954602353767
  C   -1.66483035301331     -0.13446716854791      0.56418834277391
  H   -2.00416376098400     -1.10535322629623      0.93531834198814
  H   -1.54726471545597      0.53920287388472      1.41425479679615
  H   -2.45760651844165      0.25518225186133     -0.08016002943486
  N   1.95636513252880      0.14812752979588     -0.67546742490580
  O   1.92644401181911     -0.59336154712139     -1.65274649420133
  O   2.94242860264941      0.77312150437013     -0.28266170370302
