11
Coordinates from ORCA-job run
  C   -0.26434109997927     -0.59436219215995      0.62208834720126
  C   0.98842736253732     -0.50651912510463      0.15970499885098
  H   -0.40293216736864     -1.36865915102810      1.37377002288312
  H   1.80776594065582     -1.12369170268547      0.50351985266694
  C   -1.46627407277735      0.21539617468930      0.24132449486965
  H   -1.25725512783092      1.28453987310044      0.28520426329699
  H   -1.76392262892887      0.00546083672118     -0.78811658965281
  H   -2.30141377914277     -0.01464694126139      0.90255152328834
  N   1.42820940461641      0.45564404793873     -0.84183621308048
  O   2.64475869617601      0.51900452965621     -1.02322814752803
  O   0.58597747204226      1.12883365013368     -1.43498255279596
