11
Coordinates from ORCA-job run
  C   -0.43499598735390     -0.03516516337975     -0.30229333602647
  C   0.78600808942292      0.04900233264239      0.22518181608444
  H   -0.51652008666566     -0.08806129587457     -1.38494293878457
  H   1.03015701969222      0.10832545235575      1.27813919149939
  C   -1.68464542777426     -0.06022543641077      0.51554980694001
  H   -2.33336806011993      0.77765264034532      0.24599183398625
  H   -1.47369584831720     -0.00467802933934      1.58451748780792
  H   -2.24938277576429     -0.97593204209840      0.32049804780502
  N   1.97839797889939      0.06997612698894     -0.62148591255946
  O   1.84660754497185      0.00654246718342     -1.83985590718911
  O   3.05143755300886      0.15256294758702     -0.02230008956341
