11
Coordinates from ORCA-job run
  C   -0.40448113801988     -0.21517915196540     -0.26796488455300
  C   0.75010217543494      0.27195282600151      0.18568852535832
  H   -0.41960086592848     -0.62929472558830     -1.27288008864365
  H   0.92481745199923      0.71479854210364      1.15790756080278
  C   -1.66654308103078     -0.21892552902168      0.53097515189846
  H   -2.03368779540250     -1.24090174360545      0.65869110207125
  H   -2.44951381287821      0.33796639248917      0.00913133222344
  H   -1.52579186359193      0.22416986431211      1.51795684393170
  N   1.95826617842490      0.25136242601027     -0.63831449856750
  O   1.90185170352398     -0.22275251932222     -1.76873543120686
  O   2.96558104746873      0.72680361858634     -0.11245561331494
