11
Coordinates from ORCA-job run
  C   -0.36192685201015     -0.33976488807675     -0.18736163183701
  C   0.70582919574789      0.40266792401466      0.10403340358325
  H   -0.26178169943245     -1.08420491254251     -0.97309836746916
  H   0.76504300866349      1.17972475213159      0.85537822491837
  C   -1.67657373424375     -0.19964157354919      0.50771680984731
  H   -1.96023382627719     -1.14406269306062      0.98005920174222
  H   -2.46318623435305      0.04616786892911     -0.21083617966693
  H   -1.65237011199096      0.57690526590913      1.27365308844628
  N   1.97118960186421      0.22409297430088     -0.60765610734555
  O   2.04570946877606     -0.62664807129271     -1.48880175746010
  O   2.88730118325588      0.96676335323640     -0.25208668475868
