17

C	0.0	0.0	0.0
C	-0.668732	-0.010042	-1.363975
Br	1.941748	0.0	0.0
H	-1.77593	0.055156	-1.027186
N	-0.371487	1.300154	0.739567
O	-0.390473	1.260903	1.962188
O	-0.570264	2.309684	0.070571
C	-0.513862	-1.15664	0.825594
H	-1.612847	-1.049897	0.831682
H	-0.225887	-2.096475	0.354877
H	-0.11283	-1.115932	1.83578
C	-0.465934	-1.312714	-1.982559
N	-0.344694	-2.340222	-2.53971
N	-0.219159	1.012627	-2.315761
H	-0.583345	1.896469	-1.984436
H	-0.674368	0.813768	-3.201077
H	-3.119494	0.0	0.0
