17

C	0.0	0.0	0.0
C	-0.691989	0.170524	-1.319688
Br	1.961914	0.0	0.0
H	-1.862713	0.199139	-0.884371
N	-0.366392	1.200856	0.903813
O	-0.011105	1.126439	2.077365
O	-0.999579	2.130478	0.417788
C	-0.491546	-1.238156	0.706126
H	-0.082407	-1.29823	1.71269
H	-0.20919	-2.126633	0.13838
H	-1.589974	-1.146203	0.733939
C	-0.585433	-1.032416	-2.116005
N	-0.51496	-1.972178	-2.824465
N	-0.284825	1.354413	-2.062621
H	-1.101194	1.909852	-2.288235
H	0.204671	1.100879	-2.911127
H	-2.993616	0.0	0.0
