17

C	0.0	0.0	0.0
C	-0.676393	0.0054	-1.358404
Br	1.93567	0.0	0.0
H	-1.790361	0.056317	-1.011847
N	-0.375258	1.288774	0.759918
O	-0.29323	1.255111	1.981064
O	-0.683018	2.280729	0.107768
C	-0.510344	-1.164952	0.817205
H	-1.609708	-1.063019	0.823767
H	-0.109834	-1.126495	1.82817
H	-0.216495	-2.10144	0.342452
C	-0.459882	-1.283907	-1.998998
N	-0.32224	-2.301402	-2.573266
N	-0.24168	1.056784	-2.285623
H	-0.705284	1.908768	-1.995553
H	-0.596062	0.815823	-3.204729
H	-3.097969	0.0	0.0
