15

C	0.0	0.0	0.0
C	-0.428059	0.458134	-1.421595
Br	1.941822	0.0	0.0
H	0.38838	1.006266	-1.896382
H	-0.248745	0.837764	0.657972
N	-0.603751	-1.250915	0.343474
H	-1.623098	-1.091158	0.236927
H	-0.44123	-1.432973	1.328556
N	-1.612966	1.204779	-1.379651
H	-1.946719	1.401156	-2.31618
H	-2.386274	0.711169	-0.831596
N	-0.477579	-0.819787	-2.316383
O	-1.574806	-1.252625	-2.649388
O	0.604684	-1.287675	-2.668517
H	-3.354916	0.0	0.0
