15

C	0.0	0.0	0.0
C	-0.252496	-0.039736	-1.539299
Br	2.013467	0.0	0.0
H	0.693365	-0.128514	-2.08553
H	-0.107102	0.995763	0.403363
N	-0.12506	-1.132281	0.930509
H	0.622702	-1.797995	0.746416
H	-1.026163	-1.578153	0.797436
N	-0.943248	1.095051	-2.075992
H	-1.674745	1.31521	-1.40635
H	-0.273462	1.854805	-2.134486
N	-0.943899	-1.32423	-1.931053
O	-0.237548	-2.340371	-1.86855
O	-2.132784	-1.308997	-2.260618
H	-1.654592	0.0	0.0
