11

C	-0.471213	-0.079564	-1.459211
C	0.0	0.0	0.0
Br	-0.042039	1.530171	-2.446617
H	1.096101	0.0	0.0
H	0.055587	-0.901934	-1.94244
H	-1.549911	-0.220286	-1.52877
C	-0.451971	-1.217967	0.678289
N	-0.818707	-2.218635	1.172478
C	-0.522029	1.173449	0.697049
N	-0.965387	2.108161	1.253004
Cl	3.186962	0.0	0.0
