11

C	-0.470914	-0.070574	-1.459725
C	0.0	0.0	0.0
Br	-0.04166	1.545145	-2.437134
H	1.096045	0.0	0.0
H	-1.549563	-0.21089	-1.530041
H	0.055882	-0.889903	-1.947943
C	-0.45194	-1.22194	0.671031
N	-0.816909	-2.22576	1.160086
C	-0.522321	1.169219	0.703966
N	-0.966888	2.099334	1.266485
Cl	3.186808	0.0	0.0
