11

C	-0.478395	0.053007	-1.457713
C	0.0	0.0	0.0
Br	-0.004415	-1.554376	-2.43188
H	1.096069	0.0	0.0
H	0.017249	0.888964	-1.950112
H	-1.562473	0.158068	-1.52123
C	-0.515645	-1.16652	0.714447
N	-0.944844	-2.096232	1.289518
C	-0.456848	1.224927	0.662651
N	-0.824499	2.229046	1.149107
Cl	3.196318	0.0	0.0
