11

C	-0.475034	0.060155	-1.458904
C	0.0	0.0	0.0
Br	-0.017955	-1.54854	-2.437382
H	1.09612	0.0	0.0
H	-1.557502	0.179296	-1.52628
H	0.034208	0.889523	-1.950549
C	-0.518273	-1.167204	0.710936
N	-0.954748	-2.096054	1.281719
C	-0.454356	1.224025	0.665816
N	-0.822093	2.227899	1.152693
Cl	3.197671	0.0	0.0
