14

C	-0.408714	-0.004067	-1.479601
C	0.0	0.0	0.0
Br	-2.352721	-0.242903	-1.695236
H	1.093644	0.0	0.0
H	0.055603	-0.847173	-1.990048
C	-0.049877	1.256365	-2.110795
N	0.23161	2.274564	-2.625966
N	-0.437368	-1.349362	0.534917
O	-1.15627	-1.391148	1.524891
O	-0.042924	-2.324644	-0.100703
N	-0.475185	1.054546	0.809715
H	0.17263	1.831953	0.790986
H	-1.42338	1.342714	0.601931
Cl	3.244269	0.0	0.0
