17

C	-0.454793	-0.009937	-1.442257
C	0.0	0.0	0.0
Br	-2.3987	-0.403541	-1.695737
H	1.096067	0.0	0.0
N	-0.105556	1.238563	-2.030525
H	-0.21445	1.186016	-3.038258
H	-0.73275	1.955473	-1.682796
N	0.296566	-1.06618	-2.267245
O	1.126701	-1.751322	-1.689213
O	0.08088	-1.057067	-3.478544
N	-0.37278	-1.229776	0.761539
O	-0.778154	-2.228588	0.166679
O	-0.065619	-1.199089	1.95659
N	-0.5858	1.134713	0.686076
H	-0.036266	1.951355	0.438334
H	-0.436031	0.987782	1.678858
Cl	2.685836	0.0	0.0
