17

C	-0.465818	-0.030551	-1.458761
C	0.0	0.0	0.0
Br	0.158542	1.69526	-2.238763
H	1.097794	0.0	0.0
N	-0.046216	-1.147276	-2.186977
H	-0.01033	-0.960763	-3.17917
H	0.848278	-1.481634	-1.847743
N	-2.012918	0.008319	-1.484105
O	-2.525119	-0.816831	-0.736535
O	-2.612258	0.765806	-2.232464
N	-0.335737	-1.279653	0.732272
O	-0.965553	-1.205784	1.784977
O	0.118842	-2.313683	0.26013
N	-0.591193	1.13378	0.670324
H	0.129308	1.840634	0.752993
H	-0.854704	0.837774	1.603171
Cl	3.203881	0.0	0.0
