17

C	-0.48783	-6.1e-05	-1.457431
C	0.0	0.0	0.0
Br	0.556305	-1.177693	-2.605939
H	1.087365	0.0	0.0
N	-1.840509	-0.319695	-1.626939
H	-2.422999	0.225753	-1.004223
H	-2.14902	-0.202036	-2.583025
N	-0.141439	1.439987	-1.984474
O	-1.033593	2.029641	-2.589931
O	0.968949	1.882326	-1.733854
N	-0.450062	-1.299859	0.594484
O	0.333736	-2.242803	0.55354
O	-1.555426	-1.312487	1.145523
N	-0.50139	1.047777	0.827639
H	-0.072187	1.937616	0.623281
H	-1.508118	1.098395	0.897627
Cl	2.698656	0.0	0.0
