12

C	-0.504041	-0.001591	-1.413554
C	0.0	0.0	0.0
F	-0.105429	-1.1058	-2.087187
H	1.090419	0.0	0.0
H	-0.370654	0.881207	0.523974
H	-0.363186	-0.907653	0.488162
N	-2.047571	-0.042603	-1.377533
O	-2.593571	0.987215	-1.000519
O	-2.591381	-1.098171	-1.667121
C	-0.160683	1.198169	-2.191354
N	0.080168	2.158887	-2.820949
Br	3.565087	0.0	0.0
