12

C	-0.537947	0.045932	-1.39513
C	0.0	0.0	0.0
F	-1.916632	0.157588	-1.39465
H	1.090537	0.0	0.0
H	-0.371434	0.876263	0.531535
H	-0.366383	-0.910257	0.479059
N	-0.069183	1.313149	-2.117536
O	-0.273218	2.356271	-1.514462
O	0.403343	1.198498	-3.240743
C	-0.186381	-1.121011	-2.216782
N	0.051299	-2.10452	-2.814218
Br	3.537058	0.0	0.0
