12

C	-0.515142	0.01899	-1.410522
C	0.0	0.0	0.0
F	-0.110216	1.124238	-2.082397
H	1.091482	0.0	0.0
H	-0.364118	0.895696	0.507225
H	-0.370054	-0.887757	0.512163
N	0.012716	-1.207612	-2.173595
O	-0.340912	-2.284198	-1.707315
O	0.704678	-1.01011	-3.156374
C	-1.986583	-0.06632	-1.502082
N	-3.159603	-0.10191	-1.549448
Br	3.573623	0.0	0.0
