12

C	-0.535372	0.057826	-1.394336
C	0.0	0.0	0.0
F	-1.909685	0.19174	-1.394044
H	1.090366	0.0	0.0
H	-0.366216	-0.910551	0.47749
H	-0.36902	0.875442	0.53556
N	-0.028357	1.319998	-2.100267
O	0.624337	1.184653	-3.127916
O	-0.351431	2.371439	-1.562919
C	-0.210044	-1.108897	-2.224197
N	-0.066947	-2.099309	-2.838098
Br	3.554589	0.0	0.0
