16

C	-0.454695	-0.048477	-1.461867
C	0.0	0.0	0.0
F	-0.183819	1.197497	-2.039164
H	1.096741	0.0	0.0
H	-1.545336	-0.172004	-1.516767
C	0.272683	-1.111401	-2.252988
H	1.349363	-0.96704	-2.136955
H	0.0002	-1.042521	-3.308894
H	0.008934	-2.106492	-1.88583
C	-0.477975	-1.213379	0.657822
N	-0.921821	-2.173329	1.170021
C	-0.505546	1.243296	0.731631
H	-0.161223	1.232757	1.767177
H	-1.599121	1.297681	0.721906
H	-0.098903	2.128427	0.244225
Cl	3.414124	0.0	0.0
