16

C	-0.37877	0.024944	-1.476768
C	0.0	0.0	0.0
F	-1.77682	0.112811	-1.614663
H	1.097102	0.0	0.0
H	-0.088656	-0.92893	-1.927674
C	0.26413	1.170114	-2.224505
H	1.343202	1.14919	-2.052916
H	0.061043	1.078701	-3.293861
H	-0.136975	2.125711	-1.881898
C	-0.505765	-1.223475	0.618204
N	-0.950578	-2.189255	1.117327
C	-0.487461	1.226311	0.77589
H	-0.238781	1.117068	1.832701
H	0.019015	2.121029	0.41196
H	-1.567596	1.353127	0.675654
Cl	3.377088	0.0	0.0
