16

C	-0.453682	-0.058185	-1.462361
C	0.0	0.0	0.0
F	-0.20546	1.19083	-2.042342
H	1.097009	0.0	0.0
H	-1.541566	-0.201796	-1.51751
C	0.294184	-1.108359	-2.250804
H	0.056153	-2.106967	-1.876301
H	0.016088	-1.05283	-3.306117
H	1.367404	-0.939051	-2.139132
C	-0.476501	-1.211359	0.663411
N	-0.920811	-2.167022	1.183231
C	-0.508694	1.245519	0.725425
H	-0.167977	1.238448	1.762103
H	-0.100868	2.129096	0.236231
H	-1.602172	1.299571	0.711533
Cl	3.40658	0.0	0.0
