16

C	-0.378757	0.020565	-1.476861
C	0.0	0.0	0.0
F	-1.776941	0.10908	-1.615032
H	1.097162	0.0	0.0
H	-0.089452	-0.934807	-1.924977
C	0.265059	1.162767	-2.228207
H	1.344225	1.14127	-2.056239
H	-0.135367	2.119747	-1.888583
H	0.062051	1.06829	-3.297614
C	-0.504888	-1.222141	0.621829
N	-0.947222	-2.188289	1.1228
C	-0.487482	1.228313	0.772834
H	-1.567814	1.354144	0.673437
H	0.017927	2.122292	0.405608
H	-0.237581	1.122382	1.829661
Cl	3.378775	0.0	0.0
