16

C	-0.461641	0.017295	-1.454294
C	0.0	0.0	0.0
F	0.020075	-1.126404	-2.088952
H	1.095924	0.0	0.0
H	0.017853	0.874174	-1.941382
C	-1.963152	0.038755	-1.656166
H	-2.414293	-0.83077	-1.17153
H	-2.410976	0.946913	-1.246813
H	-2.186404	-0.006919	-2.724514
C	-0.503256	-1.196735	0.670385
N	-0.973051	-2.127564	1.211892
C	-0.43952	1.258463	0.756698
H	-1.52207	1.307948	0.898538
H	0.042867	1.276766	1.73498
H	-0.106795	2.145134	0.210176
Cl	3.392212	0.0	0.0
