12
Coordinates from ORCA-job run
  C   0.71218007837479     -0.58391169044641      0.14896576691472
  C   -0.72010758831602     -0.49491824336642     -0.32561251253085
  Cl  1.66808715224133     -1.70509104412613     -0.82917903639457
  H   -0.72734392626174     -0.27188496792666     -1.39671734268592
  H   0.78131174278303     -0.87740120593129      1.19349553571746
  H   -1.16440211251104     -1.48276250328453     -0.18282250246902
  N   1.36663063597461      0.77289399000266      0.07433924993362
  O   1.00411789186311      1.52161219928465     -0.82923533848678
  O   2.22519552168560      1.01207985327633      0.91501981960389
  N   -1.40141311255768      0.48490933843239      0.50834104738065
  H   -2.36729461807785      0.22912173080147      0.65348049780913
  H   -1.37496166519814      1.39535254328394      0.06992481520768
