12
Coordinates from ORCA-job run
  C   0.73443393171389     -0.57848478219354     -0.21282586083775
  C   -0.73272148487033     -0.52862775555228      0.17588001787837
  Cl  0.95362823388877     -0.56966945709553     -1.95846536677958
  H   -1.22576417524095     -1.39699951176916     -0.28221625152345
  H   1.23410098367216     -1.45726954707937      0.19296922597060
  H   -0.77719574753105     -0.64318824564168      1.26048150757967
  N   1.41998574862514      0.60851896968853      0.43760985279399
  O   1.84792391145623      1.52297978272507     -0.24355911724470
  O   1.45112354940222      0.52374576640566      1.66174418166290
  N   -1.28343881287589      0.76565060108722     -0.18025908419043
  H   -2.14375937236888      0.93594781163550      0.32108992055099
  H   -1.47731676587130      0.81739636778957     -1.17144902586062
