15

C	-0.673881	-0.004187	-1.469648
C	0.088748	0.151776	-0.131791
Br	0.230877	-1.322077	-2.594195
H	1.168845	0.188405	-0.314064
H	-0.253568	1.124023	0.260282
N	-2.035925	-0.391263	-1.318224
H	-1.977317	-1.034967	-0.522326
H	-2.55919	0.430272	-1.033646
N	-0.598384	1.340706	-2.170623
O	-1.604896	2.051865	-2.124391
O	0.481719	1.691283	-2.629125
N	-0.2485	-0.965281	0.72048
H	0.735978	-1.446999	0.849191
H	-0.522173	-0.601855	1.625449
F	2.139616	-1.63706	0.862427
