12

C	-0.498121	-0.007201	-1.45738
C	0.0	0.0	0.0
Br	0.257052	-1.579012	-2.357617
H	1.093066	0.0	0.0
H	-0.336049	-0.923073	0.480894
C	-1.957155	-0.125678	-1.524211
N	-3.128368	-0.22592	-1.547372
C	-0.080112	1.190169	-2.187311
N	0.239579	2.142194	-2.798529
C	-0.538042	1.153521	0.710022
N	-0.995034	2.077743	1.272811
Br	3.394739	0.0	0.0
