12

C	-0.458083	-0.003674	-1.462676
C	0.0	0.0	0.0
Br	-2.43915	0.129201	-1.565322
H	1.095147	0.0	0.0
H	-0.335187	0.929778	0.467737
C	0.068654	1.16227	-2.171414
N	0.478262	2.094437	-2.758687
C	-0.082251	-1.233975	-2.157242
N	0.198381	-2.217695	-2.736126
C	-0.526788	-1.143822	0.728058
N	-0.953587	-2.063479	1.32069
Br	3.368023	0.0	0.0
