12

C	-0.456473	-0.001262	-1.464041
C	0.0	0.0	0.0
Br	-2.437972	-0.125725	-1.567613
H	1.095205	0.0	0.0
H	-0.335767	-0.928099	0.470617
C	-0.07968	1.226168	-2.162433
N	0.203319	2.207781	-2.743181
C	0.066424	-1.170578	-2.169816
N	0.474501	-2.105954	-2.753393
C	-0.525715	1.146414	0.725063
N	-0.945919	2.070108	1.316204
Br	3.368482	0.0	0.0
