12

C	-0.491233	0.000285	-1.459484
C	0.0	0.0	0.0
Br	0.201613	1.575945	-2.39914
H	1.093179	0.0	0.0
H	-0.333437	-0.931915	0.470015
C	-0.018848	-1.197965	-2.155673
N	0.34218	-2.159563	-2.727647
C	-1.954019	0.04579	-1.536934
N	-3.128768	0.073375	-1.578024
C	-0.535625	1.135004	0.73767
N	-0.988265	2.033885	1.342741
Br	3.388882	0.0	0.0
