12

C	-0.494962	-0.008102	-1.458985
C	0.0	0.0	0.0
Br	0.245299	1.563805	-2.372757
H	1.093131	0.0	0.0
H	-0.340243	0.925658	0.47248
C	-0.057439	-1.204622	-2.179149
N	0.267441	-2.156242	-2.788095
C	-1.955433	0.088191	-1.529038
N	-3.127897	0.174476	-1.54689
C	-0.533275	-1.150405	0.719145
N	-0.979612	-2.071995	1.294844
Br	3.396059	0.0	0.0
