12

C	-0.496324	-0.201679	-1.444273
C	0.0	0.0	0.0
Br	0.258891	-1.879616	-2.126682
H	1.09308	0.0	0.0
H	-0.336783	-0.850311	0.599805
C	-1.955202	-0.327192	-1.498266
N	-3.126365	-0.430417	-1.510302
C	-0.076783	0.888829	-2.32497
N	0.227127	1.757316	-3.056789
C	-0.537416	1.238743	0.548351
N	-0.988596	2.230318	0.987515
Br	3.398068	0.0	0.0
