19

C	0.0	0.0	0.0
C	-0.565704	0.293909	-1.399248
Br	1.977357	0.0	0.0
H	-1.648459	0.34465	-1.204473
C	-0.330565	1.105361	0.909092
N	-0.52955	2.004321	1.640185
C	-0.503117	-1.312198	0.582882
H	-0.172494	-1.424107	1.616876
H	-0.127229	-2.155104	0.001514
H	-1.598178	-1.275848	0.54292
C	-0.314425	-0.840838	-2.386813
H	-0.827484	-1.756179	-2.088402
H	-0.711671	-0.553515	-3.363917
H	0.754517	-1.046554	-2.501661
C	-0.10503	1.632108	-1.9662
H	-0.690438	1.860033	-2.861395
H	0.9528	1.60856	-2.244297
H	-0.260343	2.446786	-1.254767
Cl	-3.791271	0.0	0.0
