15

C	0.0	0.0	0.0
C	-0.338394	0.030683	-1.545877
F	1.379589	0.0	0.0
H	0.587511	0.394257	-2.004849
N	-0.328673	1.385229	0.5765
O	0.014676	2.316662	-0.148999
O	-0.775116	1.466143	1.70724
N	-0.488573	-0.992626	0.835962
H	-1.509724	-0.867933	0.89928
H	-0.290419	-1.905101	0.441354
C	-1.37805	0.920906	-2.073656
N	-1.967468	1.681255	-2.749311
C	-0.533795	-1.346676	-2.000384
N	-0.600247	-2.467569	-2.343329
Br	-3.479884	0.0	0.0
