13
Coordinates from ORCA-job run
  C   -0.68392149338801     -0.83997195658412     -0.32418490264142
  C   0.38486706663698     -0.08303672554561      0.00737029953331
  H   -0.51494999954777     -1.88909696883559     -0.54041328983683
  N   -1.96970957017849     -0.39767231246177     -0.49743048419214
  H   -2.68443881632431     -1.10351136453923     -0.45590600662850
  H   -2.22935176942455      0.46882325962591     -0.05614325747706
  N   1.66740128232890     -0.76655262249816      0.09041212939372
  O   1.74404637543072     -1.96133787872347     -0.19842865626715
  O   2.62506549339578     -0.08117571013654      0.46144280578667
  C   0.40727192225121      1.37597922110222      0.32024323679819
  H   -0.56944923918122      1.82730005590901      0.13385787388673
  H   0.68304185385607      1.55718759172609      1.36139619410641
  H   1.13912689414470      1.89306541096126     -0.30221594246190
