13
Coordinates from ORCA-job run
  C   -0.71529168891703     -0.86952261534272      0.09758597559112
  C   0.37894397846046     -0.07730182700612      0.07897492980629
  H   -0.60125063107842     -1.88537840760754      0.45952302979132
  N   -1.95931526269567     -0.54473787585524     -0.37698186170656
  H   -2.71807983539704     -1.11556615164637     -0.04687731086188
  H   -2.19037993556099      0.43151853271411     -0.45694456201524
  N   1.60882004793299     -0.65191283467834      0.60478040362102
  O   2.58441322943348      0.10337440207526      0.65251791503173
  O   1.62651243198255     -1.82674900866379      0.97391614432209
  C   0.47384176865463      1.33318485493109     -0.39884691119536
  H   1.28951430136690      1.44196511166060     -1.11512263604495
  H   -0.44995485267006      1.63611275830027     -0.89624766912087
  H   0.67222644848820      2.02401306111879      0.42372255278130
