13
Coordinates from ORCA-job run
  C   -1.05192299625805     -0.15294383462226      0.23370732097385
  C   0.23607928067801      0.19900343246729     -0.04029367176625
  H   -1.69080183638632      0.63880855450676      0.61628319521275
  N   -1.68065231602048     -1.33636610884500      0.03946670266790
  H   -1.10445061234427     -2.13456952839108     -0.17471407475137
  H   -2.55807635516923     -1.48564737154451      0.50393323072643
  N   1.17409520304641     -0.77176324619399     -0.52946182441037
  O   2.33129900322956     -0.39363126647262     -0.73281118550414
  O   0.79176409224069     -1.93858660567844     -0.72456557022098
  C   0.78151893020874      1.57624765712217      0.16362601101635
  H   1.16645419352421      1.98952366924891     -0.77113598067086
  H   1.60772495111048      1.57367800569079      0.87769491810381
  H   -0.00403153785976      2.23524664271199      0.53827092862287
