13
Coordinates from ORCA-job run
  C   -0.67044655801804     -0.83039387827016     -0.37144180452397
  C   0.38730023397804     -0.07684625131687      0.00108484076389
  H   -0.48584814236070     -1.86120169315685     -0.65323355307289
  N   -1.96421221578164     -0.39996873534386     -0.51014683043463
  H   -2.66732034472083     -1.11842071528417     -0.51598655041617
  H   -2.23727326870099      0.43109186776189     -0.01248338840437
  N   1.68078658682120     -0.74279066622226      0.04108203757168
  O   1.77736295459686     -1.91475224698885     -0.32509379188099
  O   2.62689714154442     -0.06772481196436      0.45781228605024
  C   0.38476226706346      1.36159530356533      0.39859385370759
  H   1.12678312103213      1.91959835061856     -0.17438872174039
  H   0.63152636507715      1.48730814261925      1.45523131523808
  H   -0.59131814053106      1.81350533398235      0.20997030714193
