13
Coordinates from ORCA-job run
  C   -0.74494574515556     -0.83240682702637      0.17145963545125
  C   0.37462271061897     -0.08012988070648      0.09264596862748
  H   -0.63921834012083     -1.87125419056401      0.46405110335762
  N   -2.03106804770841     -0.39426863461415     -0.00507771828840
  H   -2.17180829548550      0.45276552209584     -0.52988996691774
  H   -2.71759553094879     -1.10536624374939     -0.18778302600106
  N   1.63497972110897     -0.75714163152114      0.36122663796039
  O   2.65689955300050     -0.07847619541713      0.22068994490696
  O   1.63361913476002     -1.94047886865665      0.70273184100375
  C   0.47812788954779      1.36657801542390     -0.25831136697492
  H   -0.51265860746110      1.82080640918261     -0.32606196149629
  H   1.04195885349143      1.90764523585023      0.50309956806691
  H   0.99608670435254      1.51272728970273     -1.20878065969595
