13
Coordinates from ORCA-job run
  C   -1.07041371501250     -0.13156606416346     -0.14452988685154
  C   0.24625180262148      0.19125043877143     -0.00329393950305
  H   -1.75574478247870      0.70424824875630     -0.25946966980756
  N   -1.65372446159102     -1.35066439016575     -0.23105020444179
  H   -1.08951214805041     -2.14883605366509      0.01323512064388
  H   -2.64794981589886     -1.40676800523868     -0.10312167450033
  N   1.23725215852327     -0.83193077276936      0.17864933212717
  O   2.40780533368114     -0.47081955365831      0.32941995257929
  O   0.88390247360206     -2.02386633566659      0.17942445715511
  C   0.76017922165159      1.59538161871214      0.00847748532093
  H   1.48897918511016      1.75457693081783     -0.78918214598437
  H   -0.06637359842320      2.29476326411914     -0.13090992388687
  H   1.26034834626497      1.82623067415040      0.95135109714912
