13
Coordinates from ORCA-job run
  C   -1.08000400266595     -0.13207471500153     -0.01646521447033
  C   0.24302672950328      0.19268641806273      0.03193904327334
  H   -1.77506999711353      0.70308434467850     -0.04513967116701
  N   -1.66955337120689     -1.35008516328861      0.03278036867498
  H   -1.07464988675036     -2.15481535149112     -0.08340331136692
  H   -2.63346840545043     -1.41865377300384     -0.23923029246162
  N   1.24954204184765     -0.83109258779766      0.05025982909497
  O   0.89995766701185     -2.02422646302947      0.04826277640097
  O   2.42960853896438     -0.46965128301787      0.06545310751072
  C   0.75311361618439      1.59827152727794      0.03692902781314
  H   1.35146620421885      1.79672233318050      0.92877144685837
  H   -0.08481294781713      2.29771502812997      0.01741213447055
  H   1.39184381327389      1.79111968530046     -0.82756924463116
