13
Coordinates from ORCA-job run
  C   -1.05672422820233     -0.16173664049335     -0.20325840070874
  C   0.22516053574882      0.19414907181175      0.09358792050848
  H   -1.78088042518442      0.64827610381860     -0.23340671715788
  N   -1.58367102592234     -1.39265582833019     -0.40424510550263
  H   -0.93821060609678     -2.15626482971911     -0.52770189840466
  H   -2.49076360879503     -1.45403670699082     -0.82997871052188
  N   1.26838251913447     -0.79139042840302      0.13997262337365
  O   0.98522685518191     -1.98337405410860     -0.07137671664861
  O   2.41184656490961     -0.39924945635193      0.38915651836391
  C   0.65570707811375      1.60119255486595      0.35947896545764
  H   1.40910349484161      1.92765075621043     -0.36046948764721
  H   -0.20390493558354      2.27110338447885      0.29605569088386
  H   1.09872778185427      1.69633607321145      1.35318531800407
