13
Coordinates from ORCA-job run
  C   -0.72979285532584     -0.84226279275596     -0.18585667874466
  C   0.37967284047033     -0.10396207525206      0.03660868413474
  H   -0.62859209649292     -1.92194713737629     -0.19310196088622
  N   -1.97623157207113     -0.36169313491228     -0.48902820666389
  H   -2.73982291899766     -1.00240092079935     -0.36019289823982
  H   -2.19147277461772      0.58742482836798     -0.23336361875011
  N   1.60703840172819     -0.83707339352673      0.30775954959625
  O   1.61136374808671     -2.06727306343569      0.24705948230172
  O   2.59605267021033     -0.15475856466531      0.59232998073039
  C   0.49168890089238      1.38383182544552      0.06705602378457
  H   0.72111633933810      1.74916129469227      1.07059991686562
  H   1.29379218141379      1.72260592817658     -0.59035801425624
  H   -0.43681286463455      1.84834720604132     -0.27151225987236
