13
Coordinates from ORCA-job run
  C   -1.04632665979525     -0.12825410858071     -0.26957984352653
  C   0.23932135963838      0.19318120239315      0.04904070733824
  H   -1.73721247675967      0.70613861372999     -0.35843961454104
  N   -1.58578970440380     -1.33655318721392     -0.55730301236629
  H   -1.02957755578274     -2.15040900221608     -0.34938527385053
  H   -2.58611568553916     -1.42084201733836     -0.54573810690332
  N   1.23305061464836     -0.83068361213890      0.21242755384168
  O   0.91189641796864     -2.01927996362501      0.04049203542210
  O   2.37275391237472     -0.47370517266737      0.52378913551865
  C   0.71431375804109      1.59341044606946      0.27142236525414
  H   1.11033919150582      1.72192544160422      1.28097111224674
  H   -0.11096667102927      2.29315022322022      0.12663515093035
  H   1.51631349913288      1.85192113676333     -0.42333220936419
