13
Coordinates from ORCA-job run
  C   -0.71533695568035     -0.87431775794172      0.03424039631858
  C   0.36359313774364     -0.06772157963411      0.13774615181270
  H   -0.59351958962335     -1.92157547001584      0.28785725295210
  N   -1.98912349366981     -0.48671161238399     -0.28871774006910
  H   -2.60855353673270     -1.21767903792217     -0.59249672194367
  H   -2.10580939328379      0.38007490488796     -0.78635754466824
  N   1.61382009870956     -0.69897906637073      0.53360598044974
  O   1.63191996216782     -1.89778004504180      0.81554382334307
  O   2.60826421083152      0.03256910317776      0.55706312188187
  C   0.43325041388990      1.39906686839190     -0.12771137062787
  H   -0.56448973008659      1.81028426749990     -0.29488738418261
  H   0.87171690308034      1.92334409983563      0.72271239475485
  H   1.05426797265381      1.62042532551721     -0.99859836002141
