13
Coordinates from ORCA-job run
  C   -0.79548433396413     -0.72335287703134     -0.34736844446528
  C   0.36636088539783     -0.06982625894169     -0.12692911155569
  H   -0.75744747566352     -1.65099622498665     -0.90772931517950
  N   -2.04867983288488     -0.29104000581153     -0.00154207356366
  H   -2.76626201559481     -0.99456059472426      0.02124054614711
  H   -2.12530036236025      0.39380249760473      0.73180840251740
  N   1.57654428753052     -0.70567358159505     -0.62685596977276
  O   2.63835166809113     -0.12975257101217     -0.37071555941314
  O   1.49809070022506     -1.75895362894982     -1.26043445197461
  C   0.56287209869689      1.22644684927107      0.58588242053736
  H   1.13347300493225      1.09366444986291      1.50763259587665
  H   -0.39820035757176      1.68304086723019      0.83158636893153
  H   1.11668173316567      1.92920107908362     -0.03857540808541
