13
Coordinates from ORCA-job run
  C   -1.04841505198606     -0.17659180721731     -0.23204988506635
  C   0.24348201076482      0.19469008703359     -0.00587691560209
  H   -1.72528646966715      0.61733093812097     -0.53704496031089
  N   -1.60803779501706     -1.40893434081244     -0.19960861668075
  H   -2.60955166350558     -1.47261111418352     -0.17371224820047
  H   -1.06435848594379     -2.15152413366842      0.21023491975336
  N   1.21926162848189     -0.76782499765528      0.42193138794869
  O   2.36446121429529     -0.36096706604837      0.63741792809818
  O   0.87860277699573     -1.95570710389458      0.55877271446646
  C   0.74034030119219      1.59832534034489     -0.14313726761073
  H   -0.07396138113248      2.25118730953058     -0.46325475377830
  H   1.54619570387271      1.66125506112054     -0.87759103994208
  H   1.13826721164949      1.97137182732937      0.80291873692495
