13
Coordinates from ORCA-job run
  C   -0.73941942971037     -0.72742733330516     -0.44891656878752
  C   0.37356986403999     -0.12556495990523      0.02499957016477
  H   -0.63042869186093     -1.69585691177176     -0.92450817545613
  N   -2.02472984669252     -0.27133703822881     -0.31964210413707
  H   -2.70076488871530     -0.67151598703242     -0.94659743049573
  H   -2.16127062545518      0.71001276299032     -0.14398737742061
  N   1.63430260719491     -0.81810666347518     -0.19745677207288
  O   2.65206233697282     -0.22798755935659      0.17726748580793
  O   1.63715294464920     -1.92573112623646     -0.73610142579466
  C   0.46867592716016      1.18372166231540      0.73476482032559
  H   1.00072306110622      1.92712187523383      0.13695247408878
  H   1.01461753249742      1.07332652580322      1.67289053532320
  H   -0.52549079118644      1.56934475296886      0.97033496845432
