13
Coordinates from ORCA-job run
  C   -1.04390235141652     -0.13274252520623     -0.27707660002384
  C   0.23726430460458      0.19496997207239      0.05397020575442
  H   -1.74781853132090      0.69365564569936     -0.33198385237415
  N   -1.56446759180147     -1.33592689505502     -0.61421904035326
  H   -2.56327495747627     -1.43606718351114     -0.61626278782582
  H   -0.99517908933114     -2.14984641393429     -0.44597037129541
  N   1.24548370405000     -0.81962620390902      0.17771106707764
  O   2.37902109946179     -0.45919765893643      0.50735641432897
  O   0.94317173136380     -2.00448662724098     -0.04707153959179
  C   0.68859181636409      1.59088524599902      0.34314885416918
  H   1.48852528586651      1.89481867610900     -0.33544924789478
  H   1.07912495083842      1.67835305299990      1.35920090906135
  H   -0.14754037120287      2.28321091491344      0.22764598896750
