13
Coordinates from ORCA-job run
  C   -1.04976253978825     -0.17279182616457     -0.22944495082967
  C   0.24307877656204      0.19496732469566     -0.00316549862267
  H   -1.73034549630984      0.62709638072771     -0.50949699654670
  N   -1.60725813678730     -1.40691127369710     -0.22341870067723
  H   -2.60847305609334     -1.47106255921849     -0.18554865276920
  H   -1.05975058479596     -2.15701070190408      0.16735348154899
  N   1.22329491924771     -0.77575693706684      0.39516376633624
  O   0.88570861711680     -1.96720204026071      0.50563318792057
  O   2.36893692293043     -0.37180639247892      0.61360230857386
  C   0.73684074623908      1.60222045740946     -0.11129153456981
  H   -0.07978044745408      2.26019381865516     -0.41449603588084
  H   1.53997275470842      1.68236383679891     -0.84699055570705
  H   1.13753752442428      1.95569991250381      0.84110018122351
