13
Coordinates from ORCA-job run
  C   -0.76698091371557     -0.80424568253656     -0.20596757394217
  C   0.37468816358259     -0.12030200978437      0.02705942892943
  H   -0.68785588446340     -1.86001995886645     -0.44061926101961
  N   -2.04222267425363     -0.31512059833018     -0.09694452608594
  H   -2.75873272253264     -0.84611606516891     -0.56066879550762
  H   -2.17043705133239      0.68125314871031     -0.15621095963782
  N   1.61906022563274     -0.86235148221363     -0.11208847649154
  O   1.58821589685492     -2.06688163690945     -0.36728864696420
  O   2.65860344811134     -0.21258163287397      0.03560291889070
  C   0.51576413925585      1.31952739675527      0.39298374878447
  H   1.00426146211327      1.88925461402104     -0.40065477764090
  H   -0.46042680962813      1.76559477571494      0.59451758171580
  H   1.12506272037505      1.42998913148197      1.29127933896938
