13
Coordinates from ORCA-job run
  C   -1.00888733989970     -0.15818301564210     -0.37584130398022
  C   0.20595865267132      0.19255390897064      0.13314557119071
  H   -1.71555443472553      0.65430172920708     -0.52381879470875
  N   -1.49795506441658     -1.38706568519861     -0.66680822428772
  H   -2.31796856693635     -1.44184798342282     -1.24351392705838
  H   -0.84084177997405     -2.15053930490540     -0.68730509179731
  N   1.22534899402249     -0.79576649754072      0.34673694379881
  O   2.31335717515000     -0.40724629602665      0.78112694232041
  O   0.97841803147236     -1.98634771007132      0.08748986037812
  C   0.58959809244330      1.59779168659183      0.47099592950547
  H   -0.24755059022130      2.26948218189425      0.27174103979130
  H   1.45035395070196      1.92560497506431     -0.11570246112705
  H   0.86572287971208      1.68826201107953      1.52375351597461
