13
Coordinates from ORCA-job run
  C   -1.05132315755109     -0.13307617524187     -0.24676150435741
  C   0.22914577945240      0.19097319143844      0.09039337991507
  H   -1.73748035570796      0.70125425769803     -0.36741601309565
  N   -1.62009965230026     -1.35244871450540     -0.39565278872740
  H   -1.00356387170239     -2.14821702030868     -0.43490338234382
  H   -2.50884335176320     -1.40625255415955     -0.85932370625003
  N   1.22507420310153     -0.82973281358823      0.25640731834409
  O   0.90199929259785     -2.02100074395270      0.10696770493247
  O   2.37017867446014     -0.46766238496341      0.54116284985005
  C   0.70540964830521      1.59451695238768      0.28801090567881
  H   1.10187812986906      1.73792655353869      1.29549975344582
  H   -0.12055583058356      2.29202455253053      0.13628565541348
  H   1.50718049182228      1.84269489912647     -0.41067017280548
