13
Coordinates from ORCA-job run
  C   -1.06397114983623     -0.16459922017428     -0.15867036616570
  C   0.24266947953994      0.19506984344857     -0.01357520560501
  H   -1.76065108968364      0.64373343696906     -0.36527104766467
  N   -1.62330607797450     -1.39796356467763     -0.15017403751168
  H   -2.61961126956332     -1.46247809192635     -0.04444452746820
  H   -1.05224515842246     -2.16008456781795      0.17862352744349
  N   1.24547475884507     -0.78850892665704      0.28437709583996
  O   0.91269094404832     -1.98236042069879      0.38207196642138
  O   2.40523069527172     -0.39285735019904      0.43230172333890
  C   0.73226424460710      1.60422618025473     -0.11561797167210
  H   1.19947494126246      1.93018380875704      0.81606026047772
  H   1.48234982562353      1.70413206817906     -0.90305111123285
  H   -0.10137014371799      2.27150680454261     -0.34263030620124
