14
Coordinates from ORCA-job run
  C   0.77524865370587      0.09483573342450     -0.40185589325058
  C   -0.52787741113828     -0.70291516824445     -0.39626639836133
  Cl  1.83186513914345     -0.61844255016085     -1.74405304564904
  H   -0.92665635614935     -0.70693168514458     -1.41289702170095
  H   -0.26685207844117     -1.73913214397142     -0.15452269213317
  N   1.40347859328429      0.06466897851493      0.86920103458944
  H   2.26663003207713      0.59328741534804      0.88140736089875
  H   1.58730251822320     -0.88966752660281      1.15482103927717
  C   0.53792213950288      1.48895401475661     -0.79290819935323
  N   0.31908525900930      2.60310441546545     -1.09252914130049
  C   -1.55168104294756     -0.15000410292209      0.58874183378632
  H   -1.16254567008676     -0.15241812125476      1.60652320375024
  H   -1.83056912816342      0.87444006742212      0.33290393508028
  H   -2.45735064801959     -0.75977932663069      0.56043398436658
