14
Coordinates from ORCA-job run
  C   0.73833422632571      0.14400185705556     -0.23365972224316
  C   -0.39332862608237     -0.47080634346024      0.58815245334899
  Cl  0.84351165960335     -0.77811788949781     -1.83427164595186
  H   -0.36507616557822      0.03810276347065      1.55650776087913
  H   -0.12983769616625     -1.52044947845504      0.75750798990978
  N   1.95668188084102      0.11238755549397      0.49472196521423
  H   2.17852534487226     -0.83507324304956      0.77590473651509
  H   2.72724173477631      0.49203394452058     -0.04150291947474
  C   0.43301401748684      1.53085126731895     -0.60242078839593
  N   0.18916541171209      2.64777641937992     -0.87093599031288
  C   -1.77689929298632     -0.36014721508570     -0.03569533005627
  H   -2.51841635973150     -0.80030262561925      0.63389244561954
  H   -1.82899848648319     -0.88401755647801     -0.99015320462585
  H   -2.05291764858972      0.68376054440598     -0.19904775042606
