14
Coordinates from ORCA-job run
  C   0.71040189395870      0.12613019163874     -0.37254308153918
  C   -0.81667753466476      0.17085664391030     -0.28679168958543
  Cl  1.23775664483518     -1.33474548653186     -1.27927491612736
  H   -1.07808515418639      1.13179072311263      0.17388224558705
  H   -1.20720008402512      0.19396713927231     -1.30738849655008
  N   1.29042755348726      0.05120513189560      0.94688773556332
  H   2.30258845086183      0.04755660272131      0.89106821022584
  H   0.99923137131101      0.85851981203301      1.48875268844632
  C   1.18581663971445      1.28649099190294     -1.15263167479774
  N   1.55412219421948      2.25491088521385     -1.70806170264537
  C   -1.42460620982073     -0.97968148739652      0.50470998472181
  H   -2.51022817053360     -0.86568352140660      0.53871134672228
  H   -1.04436984690455     -1.00272836730921      1.52516563613899
  H   -1.19917774825276     -1.93858925905651      0.03751371383957
