14
Coordinates from ORCA-job run
  C   0.73538213504165      0.20050608132248     -0.20548351156909
  C   -0.40631808116776     -0.68912581374338      0.28443697450554
  Cl  0.62415026922513      0.30054558800668     -2.05059981215688
  H   -0.25995908194554     -1.67418560881691     -0.17168277905451
  H   -0.25411114722340     -0.79731304306341      1.36274495813513
  N   1.98577053583541     -0.30411503902233      0.23795074678069
  H   2.75989645596839      0.25657225248107     -0.09650502462856
  H   2.11059988701873     -1.26283482176647     -0.06483888441201
  C   0.57324237922601      1.57888479304600      0.26971644375236
  N   0.42790439847276      2.67072439516345      0.67700439305187
  C   -1.80436265220283     -0.16554980859438     -0.01013175074811
  H   -2.54741021878809     -0.85208528428416      0.40031955529833
  H   -1.98091304361655     -0.07624883040114     -1.08206145259941
  H   -1.96387183584392      0.81222513967250      0.44913014364466
