15

C	0.0	0.0	0.0
C	-0.360457	0.218986	-1.486256
F	1.374685	0.0	0.0
H	0.531356	0.692114	-1.911815
H	-0.4551	-0.775107	-1.940376
N	-0.323397	1.244785	0.813583
O	-0.548232	1.10009	2.009956
O	-0.197933	2.315967	0.228402
C	-0.5275	-1.239527	0.644178
H	-0.149507	-1.318	1.663431
H	-0.190002	-2.09682	0.057516
H	-1.619819	-1.182428	0.644897
C	-1.481171	1.04969	-1.931611
N	-2.149281	1.799901	-2.538825
Cl	-3.583658	0.0	0.0
