15

C	0.0	0.0	0.0
C	-0.562184	0.240677	-1.387425
F	1.358542	0.0	0.0
H	-1.631765	0.46879	-1.27135
H	-0.491343	-0.699799	-1.941279
N	-0.331089	1.203728	0.896616
O	-0.099752	1.058073	2.093173
O	-0.715615	2.236524	0.360661
C	-0.525127	-1.256127	0.63288
H	-0.188871	-2.10827	0.037216
H	-0.132369	-1.342323	1.644608
H	-1.617254	-1.212777	0.64531
C	0.15025	1.270076	-2.136805
N	0.738756	2.052877	-2.783414
Cl	-3.704826	0.0	0.0
