15

C	0.0	0.0	0.0
C	-0.55278	0.044961	-1.411503
F	1.358763	0.0	0.0
H	-1.651745	0.05573	-1.320929
H	-0.227445	0.959826	-1.90694
N	-0.337475	1.334805	0.686199
O	-0.432906	2.329269	-0.027418
O	-0.367284	1.332777	1.911877
C	-0.508259	-1.149649	0.819492
H	-0.219186	-2.077474	0.321037
H	-1.59617	-1.085207	0.883754
H	-0.06115	-1.11592	1.811477
C	-0.101827	-1.112799	-2.173194
N	0.270781	-2.036405	-2.794458
Cl	-3.680277	0.0	0.0
