15

C	0.0	0.0	0.0
C	-0.564515	0.311098	-1.371638
F	1.35847	0.0	0.0
H	-1.639069	0.514382	-1.244612
H	-0.475118	-0.595681	-1.97789
N	-0.334692	1.151103	0.95995
O	-0.727677	2.210439	0.480735
O	-0.090136	0.943825	2.145746
C	-0.518577	-1.291302	0.566813
H	-0.115839	-1.431147	1.568758
H	-1.61096	-1.254528	0.591782
H	-0.184486	-2.10881	-0.076912
C	0.131246	1.392262	-2.061886
N	0.704627	2.217236	-2.668245
Cl	-3.700011	0.0	0.0
