15

C	0.0	0.0	0.0
C	-0.540016	0.167363	-1.40685
F	1.374472	0.0	0.0
H	-1.612366	0.407892	-1.320592
H	-0.463386	-0.799858	-1.909697
N	-0.333748	1.242082	0.829483
O	-0.301447	1.115796	2.051589
O	-0.50614	2.293995	0.217211
C	-0.508712	-1.235323	0.680472
H	-0.115812	-1.284199	1.695692
H	-1.600805	-1.199699	0.691713
H	-0.162699	-2.103332	0.113277
C	0.177219	1.145962	-2.219294
N	0.759341	1.785246	-3.016424
Cl	-3.640084	0.0	0.0
