15

C	0.0	0.0	0.0
C	-0.564857	0.354284	-1.361079
F	1.358572	0.0	0.0
H	-0.490832	-0.536031	-1.992377
H	-1.635635	0.567467	-1.224405
N	-0.331885	1.124074	0.994322
O	-0.100229	0.878494	2.174562
O	-0.711744	2.199472	0.545845
C	-0.521413	-1.305613	0.527867
H	-1.613355	-1.264601	0.552374
H	-0.120399	-1.477047	1.525393
H	-0.1902	-2.103829	-0.140447
C	0.143614	1.444549	-2.023222
N	0.729119	2.277672	-2.606457
Cl	-3.705747	0.0	0.0
