16

C	-0.591598	0.026968	-1.398544
C	0.0	0.0	0.0
Cl	0.159796	-1.256531	-2.380358
H	1.093068	0.0	0.0
H	-0.318088	-0.954184	0.433266
C	-2.095663	-0.12478	-1.420294
H	-2.471949	-0.096088	-2.44073
H	-2.35377	-1.082827	-0.965337
H	-2.532223	0.682506	-0.831014
N	-0.243764	1.341473	-2.095706
O	0.626303	2.04167	-1.592952
O	-0.859925	1.602319	-3.127588
N	-0.569415	1.108551	0.780066
H	-0.675173	0.809012	1.741877
H	0.117172	1.853343	0.779613
Br	3.694356	0.0	0.0
