16

C	-0.572261	-0.091909	-1.416755
C	0.0	0.0	0.0
Cl	0.147579	-1.461682	-2.292445
H	1.094236	0.0	0.0
H	-0.367654	0.941948	0.418845
C	-2.083158	-0.209751	-1.454856
H	-2.534585	0.609261	-0.893534
H	-2.356289	-1.151418	-0.984351
H	-2.446395	-0.185194	-2.485331
N	-0.161962	1.202344	-2.118746
O	-0.85199	2.177314	-1.818417
O	0.813772	1.220757	-2.851723
N	-0.527428	-1.117494	0.80266
H	-0.418835	-0.858703	1.778326
H	0.104607	-1.898935	0.658069
Br	3.654747	0.0	0.0
