16

C	-0.436632	0.057178	-1.452176
C	0.0	0.0	0.0
Cl	-2.18287	0.432673	-1.574177
H	1.094928	0.0	0.0
H	-0.317834	0.95374	0.43196
C	0.377115	1.063045	-2.238234
H	1.434836	0.797515	-2.148868
H	0.062209	1.077339	-3.281765
H	0.236633	2.053936	-1.804178
N	-0.224347	-1.291333	-2.133983
O	-0.744504	-1.458331	-3.233097
O	0.526409	-2.083508	-1.575609
N	-0.616029	-1.102761	0.729575
H	-0.801199	-0.806381	1.67838
H	0.058597	-1.855721	0.775135
Br	3.642995	0.0	0.0
