16

C	-0.58183	0.144215	-1.395389
C	0.0	0.0	0.0
Cl	0.136431	-1.097094	-2.451836
H	1.092995	0.0	0.0
H	-0.319384	-0.989993	0.342193
C	-2.09086	0.044918	-1.438498
H	-2.506614	0.826048	-0.80125
H	-2.452061	0.150392	-2.459798
H	-2.388072	-0.929707	-1.046909
N	-0.197101	1.494259	-2.000342
O	0.583084	2.203481	-1.375554
O	-0.715861	1.783551	-3.07627
N	-0.575513	1.024595	0.88285
H	0.084733	1.792493	0.910335
H	-0.619818	0.646386	1.820653
Br	3.676192	0.0	0.0
