16

C	-0.404843	-0.000928	-1.460457
C	0.0	0.0	0.0
Cl	-0.027363	1.557316	-2.220033
H	1.093624	0.0	0.0
H	-0.309707	-0.968024	0.410932
C	0.278563	-1.115634	-2.224697
H	1.35688	-1.001357	-2.09053
H	0.017625	-1.073114	-3.281884
H	-0.027533	-2.082074	-1.812318
N	-1.916886	-0.202684	-1.604024
O	-2.556519	-0.466697	-0.586443
O	-2.391797	-0.1522	-2.73417
N	-0.534684	1.129906	0.739896
H	0.210128	1.546673	1.281087
H	-1.268419	0.828494	1.363096
Br	3.611542	0.0	0.0
