16

C	-0.594276	0.024938	-1.39665
C	0.0	0.0	0.0
Cl	0.157094	-1.261945	-2.373668
H	1.092829	0.0	0.0
H	-0.317561	-0.955697	0.430331
C	-2.098413	-0.129313	-1.414691
H	-2.534242	0.676387	-0.82312
H	-2.476247	-0.100828	-2.434488
H	-2.355314	-1.087567	-0.959488
N	-0.252119	1.340153	-2.094947
O	-0.847792	1.580349	-3.143321
O	0.586313	2.065991	-1.572774
N	-0.57347	1.101164	0.788353
H	0.095132	1.862215	0.758487
H	-0.63204	0.804455	1.754034
Br	3.678272	0.0	0.0
