18

C	0.0	0.0	0.0
C	-0.26579	-0.194252	-1.538052
Br	1.949528	0.0	0.0
H	0.278245	-1.126001	-1.73884
N	-0.443375	1.363907	0.493146
O	-0.749954	2.202358	-0.344054
O	-0.418722	1.53468	1.706751
C	-0.624504	-1.067311	0.843435
H	-1.72307	-0.867449	0.717969
H	-0.309977	-0.965997	1.881063
H	-0.336205	-2.049552	0.462144
C	0.419666	0.819462	-2.357854
N	0.910697	1.566786	-3.12008
C	-1.674886	-0.375603	-2.105273
H	-2.196829	-1.182572	-1.603423
H	-1.547392	-0.577546	-3.176218
H	-2.290869	0.495983	-1.922494
F	-2.996456	0.0	0.0
