18

C	0.0	0.0	0.0
C	-0.662128	0.006247	-1.373758
Br	1.931866	0.0	0.0
H	-1.782512	-0.021679	-0.989787
N	-0.382833	1.266639	0.774281
O	-0.263043	2.339823	0.191036
O	-0.711647	1.142703	1.945639
C	-0.451582	-1.208983	0.805069
H	-1.543242	-1.143684	0.832143
H	-0.120758	-2.113344	0.292874
H	-0.023678	-1.186547	1.8058
C	-0.338798	-1.239794	-2.045314
N	-0.098342	-2.22993	-2.636142
C	-0.406837	1.17636	-2.326306
H	-0.957607	2.05541	-2.001923
H	-0.758396	0.896003	-3.322731
H	0.655306	1.430469	-2.393718
F	-2.863371	0.0	0.0
