18

C	0.0	0.0	0.0
C	-0.63054	0.215863	-1.373849
Br	1.963804	0.0	0.0
H	-1.747811	0.180599	-1.018426
N	-0.379483	1.147316	0.947752
O	-0.370769	2.285961	0.492471
O	-0.600099	0.865964	2.117608
C	-0.465513	-1.305843	0.608513
H	-0.124716	-2.134426	-0.014525
H	-0.069112	-1.423963	1.615007
H	-1.559249	-1.226309	0.609076
C	-0.365262	-0.953838	-2.19547
N	-0.193331	-1.857676	-2.929636
C	-0.295219	1.474381	-2.180265
H	0.780731	1.6723	-2.194804
H	-0.629845	1.326488	-3.209973
H	-0.806446	2.340419	-1.769855
F	-2.847984	0.0	0.0
