18

C	0.0	0.0	0.0
C	-0.462196	0.089678	-1.481023
Br	1.95608	0.0	0.0
H	0.373066	0.517687	-2.046222
N	-0.345051	1.288275	0.734809
O	-0.574472	1.222519	1.93436
O	-0.267474	2.322864	0.08021
C	-0.412323	-1.202591	0.824606
H	-1.503781	-1.149009	0.864934
H	0.038554	-1.132738	1.813086
H	-0.056186	-2.112858	0.34126
C	-1.596301	0.978857	-1.77856
N	-2.275746	1.715943	-2.397043
C	-0.783948	-1.297353	-2.038734
H	0.059714	-1.983309	-1.924461
H	-1.66194	-1.657761	-1.505941
H	-1.016695	-1.209135	-3.102636
F	-2.564896	0.0	0.0
