18

C	0.0	0.0	0.0
C	-0.25472	0.21651	-1.537082
Br	1.965304	0.0	0.0
H	0.351385	-0.584233	-1.978751
N	-0.44753	1.179257	0.840098
O	-0.806396	2.19468	0.260458
O	-0.384846	1.028712	2.055386
C	-0.631417	-1.25145	0.526195
H	-0.345137	-2.097588	-0.10416
H	-1.728312	-1.022616	0.45315
H	-0.319755	-1.432686	1.554057
C	0.364287	1.454419	-2.034878
N	0.844693	2.390105	-2.557605
C	-1.658962	0.086417	-2.135263
H	-2.392297	0.655419	-1.567199
H	-1.581157	0.359823	-3.193145
H	-1.996944	-0.945393	-2.052042
F	-3.037678	0.0	0.0
