15

C	0.0	0.0	0.0
C	-0.499685	-0.3881	-1.382254
F	1.399723	0.0	0.0
H	-1.593162	-0.364386	-1.327206
H	-0.185715	-1.42299	-1.581747
C	-0.489806	1.355851	0.451761
H	-0.1899	2.09146	-0.294927
H	-1.579428	1.325436	0.52905
H	-0.048064	1.602253	1.419986
C	-0.365311	-1.05238	0.973615
N	-0.55119	-1.890982	1.773892
N	-0.016963	0.571342	-2.370539
H	0.901135	0.30024	-2.697709
H	-0.647891	0.584657	-3.159762
Br	-3.972563	0.0	0.0
