15

C	0.0	0.0	0.0
C	-0.37676	0.118984	-1.496492
F	1.394046	0.0	0.0
H	0.227866	-0.63881	-2.008263
H	0.007274	1.097074	-1.814131
C	-0.542526	1.11327	0.863354
H	-0.155588	1.028753	1.881366
H	-0.237446	2.074219	0.442311
H	-1.635153	1.057309	0.889709
C	-0.397501	-1.323623	0.518609
N	-0.647458	-2.398407	0.920014
N	-1.752023	-0.017025	-1.893366
H	-2.12709	-0.920593	-1.62835
H	-2.367007	0.637186	-1.421367
Br	-4.510125	0.0	0.0
