15

C	0.0	0.0	0.0
C	-0.507095	0.101254	-1.444863
Cl	1.787758	0.0	0.0
H	-1.604684	0.081486	-1.339488
C	-0.365128	1.23109	0.737189
N	-0.582672	2.167682	1.41234
N	-0.489121	-1.216859	0.573625
H	-1.514967	-1.153087	0.542818
H	-0.206061	-1.273548	1.546332
C	-0.084206	-1.084369	-2.208735
N	0.232419	-1.957629	-2.928826
N	-0.108834	1.357884	-2.048489
H	0.817189	1.287099	-2.45141
H	-0.767253	1.610103	-2.773548
Br	-3.659034	0.0	0.0
