15

C	0.0	0.0	0.0
C	-0.536879	-0.201624	-1.438472
Cl	1.839406	0.0	0.0
H	-1.635549	-0.214606	-1.280723
C	-0.359211	1.348142	0.458128
N	-0.53912	2.457595	0.79827
N	-0.512874	-0.98082	0.852256
H	-0.380695	-0.805112	1.834014
H	-0.274044	-1.923101	0.581271
C	-0.113042	-1.526804	-1.903958
N	0.250735	-2.591631	-2.241656
N	-0.195272	0.817785	-2.40204
H	0.783369	1.07162	-2.329653
H	-0.770025	1.633366	-2.228936
Br	-3.763631	0.0	0.0
