15

C	0.0	0.0	0.0
C	-0.504397	-0.005189	-1.468711
Cl	1.785521	0.0	0.0
H	-1.593938	-0.139412	-1.381341
C	-0.365822	1.295056	0.618259
N	-0.58188	2.337629	1.11717
N	-0.491484	-1.163976	0.664668
H	-0.210226	-1.153885	1.639221
H	-1.51731	-1.11386	0.622005
C	0.05582	-1.168787	-2.165788
N	0.481021	-2.087163	-2.760866
N	-0.261177	1.202222	-2.227223
H	-0.897121	1.920917	-1.903395
H	0.692628	1.520919	-2.102565
Br	-3.636221	0.0	0.0
