12
Coordinates from ORCA-job run
  C   0.80621146400371     -0.48741347073202      0.10571129696429
  C   -0.69505643559928     -0.58219595161812     -0.00899744991998
  F   1.39905305178940     -1.54816062122875     -0.51650822783431
  H   -0.92394131162069     -0.63170981691765     -1.07455965581570
  H   1.17753948617196     -0.41012823144526      1.12733206704783
  H   -1.01061454923015     -1.52835537254920      0.44840959453126
  N   1.26861088023735      0.76434937644292     -0.59163844435295
  O   1.89257987628761      1.57901114633062      0.08042710140957
  O   0.98419352559759      0.85886647799848     -1.78068032409596
  N   -1.27741514153978      0.61680205816017      0.57327042037079
  H   -1.50047764421476      0.48424179585778      1.54963093239471
  H   -2.12168320188296      0.88369260970103      0.08960268930045
