12
Coordinates from ORCA-job run
  C   0.34561606870203      0.17551900442844     -0.58071768273259
  C   -0.45797175312656     -0.23825784009951      0.64231416851419
  F   0.03207478358503      1.44929355447002     -0.93792155077573
  H   -0.15303067170658     -1.24433291244516      0.93611398489662
  H   0.20626972678758     -0.48364137312771     -1.43903168498790
  H   -0.18863089990632      0.44622528077927      1.45251999490737
  N   1.81201823772508      0.11177854561773     -0.24233437457271
  O   2.26741859088180     -1.02749101994521     -0.18648773225631
  O   2.40216587742842      1.15602271777197     -0.00399851555820
  N   -1.89315361545885     -0.19700573151171      0.45154180708160
  H   -2.18320197699631      0.72349660201841      0.14923782135427
  H   -2.19057436791533     -0.87060682795655     -0.24223623587060
