12
Coordinates from ORCA-job run
  C   0.50436020659131     -0.48583492801308     -0.61433370505795
  C   -0.61168342825335     -0.70829368849561      0.39383716970920
  F   -0.01504039669217     -0.17180402695546     -1.83081104479213
  H   -0.16501554810235     -1.00734395573836      1.34368017175202
  H   1.18828083149361     -1.33026757908751     -0.71565160778089
  H   -1.20559161994834     -1.54893087185981      0.02342745520341
  N   1.34222879294760      0.67429313352407     -0.14216555337247
  O   2.02184184368831      0.43444157413493      0.85179116179660
  O   1.24307432546635      1.74518204541721     -0.72489573365180
  N   -1.47953637760736      0.43081815703064      0.60285308692578
  H   -1.00372717904468      1.17785490458093      1.09088566938457
  H   -1.81919145053892      0.78988523546206     -0.27961707011634
