12
Coordinates from ORCA-job run
  C   0.59063727371941     -0.48681129485693     -0.52907155911737
  C   -0.85416051045367     -0.22691819300498     -0.14992006436277
  F   0.69031471019907     -0.87649748824019     -1.82366431220681
  H   -1.17138278977506      0.71658519911175     -0.61856398360869
  H   1.05103255106980     -1.22728851363765      0.12708692407031
  H   -1.42437407940955     -1.03326235229986     -0.61735790970132
  N   1.40271423591411      0.78087822785817     -0.36475674336780
  O   2.02224410499490      1.21269336423586     -1.32423174078158
  O   1.35483516089597      1.27524702085954      0.75952537294894
  N   -1.02934540327877     -0.30759659692891      1.29125607324590
  H   -0.61760111693795      0.50225736854226      1.73459266827899
  H   -2.01491413693825     -0.32928674163908      1.51610527460222
