12
Coordinates from ORCA-job run
  C   0.46498715887907     -0.25504771218360     -0.56509261635527
  C   -0.49008018298252      0.09311149626102      0.55113102135982
  F   -0.02891881634290      0.17478283999585     -1.75553863741117
  H   -0.58175162112365      1.18918219940379      0.58159037424053
  H   0.67436591185468     -1.32300280449864     -0.61955278283998
  H   -0.04727358193423     -0.24164030244893      1.49011159746931
  N   1.78435677032051      0.43279343357988     -0.31458393737310
  O   2.41913553095677     -0.02342940768428      0.63229461925703
  O   2.09748676988197      1.37804349379879     -1.02409617672195
  N   -1.73190640923212     -0.62648161037647      0.31330977811308
  H   -2.30811439080229     -0.61507514694755      1.14369287845633
  H   -2.25128713947531     -0.18223647889987     -0.43226611819461
