12
Coordinates from ORCA-job run
  C   0.52537216521587     -0.46720764321980     -0.63455339869455
  C   -0.55587593060437     -0.61686240839147      0.40630341570863
  F   -0.02020585084972     -0.15235127265781     -1.84067212547526
  H   -1.19870290922445     -1.45102253137113      0.08881631534013
  H   1.15833453870331     -1.34944618524891     -0.74361439762382
  H   -0.07832072326922     -0.89115660470887      1.34766352060853
  N   1.44597044615293      0.65466219694903     -0.21541323329950
  O   1.48869101428918      1.66461943398024     -0.89757975746756
  O   2.07789056879268      0.42159799782522      0.80934849989422
  N   -1.22414689496808      0.66392476480906      0.56201027889691
  H   -1.82874281312765      0.65543793939892      1.37139179937781
  H   -1.78726361111048      0.86880431263555     -0.25270091726551
