12
Coordinates from ORCA-job run
  C   0.50091489651608     -0.47634554915413     -0.62322934440103
  C   -0.60346602380165     -0.71407822651652      0.39446127580041
  F   -0.03242003199658     -0.15127689725847     -1.83061893045272
  H   -1.19536396473870     -1.55621746678390      0.02439058521585
  H   1.18627012560743     -1.31749258740727     -0.74075681072969
  H   -0.14505792391496     -1.01684607897966      1.33753888758496
  N   1.33980557691856      0.68146639473191     -0.14725832796269
  O   1.22859289436720      1.75929305403067     -0.71477720046498
  O   2.03289347087072      0.43173573437172      0.83489226292859
  N   -1.47757520398303      0.41714552678178      0.62037451765191
  H   -0.99990075079749      1.16777320259974      1.10117104159648
  H   -1.83369306504760      0.77484289358410     -0.25618795676710
