12
Coordinates from ORCA-job run
  C   -0.49233998499640     -0.41365794268290      0.37912430200373
  C   0.45614113309502      0.45561312860721     -0.42107482330948
  Cl  0.11438531549170     -0.55882487935662      2.06537626110004
  H   0.00783963990332      0.59717686547042     -1.41117911737544
  H   -0.45399100659874     -1.43519815044501     -0.01426146728438
  H   0.50173545875293      1.43608569299582      0.07109136393973
  N   -1.80224161552269      0.19446246115826      0.43109070340210
  H   -2.17831078015237      0.24574177248134     -0.50927349874354
  H   -2.42930081960898     -0.37241740037965      0.98877965783557
  N   1.73644698507426     -0.21680850167332     -0.60054665821510
  H   2.30478507335129      0.29877529766835     -1.25989088257400
  H   2.23485060121066     -0.23094834384391      0.28076415922076
