12
Coordinates from ORCA-job run
  C   -0.66566516441912     -0.49332228351446     -0.16285998017831
  C   0.83979945178039     -0.27983847883403     -0.11890025367638
  Cl  -0.93314582741685     -2.27797722341040      0.27529659279293
  H   1.20804968029308     -0.63561622271429      0.84828692444442
  H   -1.04545506996174     -0.44522226047469     -1.18473353965116
  H   1.28272838730244     -0.92759563671592     -0.88710358263023
  N   -1.36639599963458      0.42001884455818      0.64545249533208
  H   -0.96356155295272      0.50691194455995      1.56814402751599
  H   -2.35274985314096      0.21047764866602      0.70614901794170
  N   1.16562567451436      1.13841499781150     -0.24333410215884
  H   0.67356294508116      1.54363028260260     -1.03001326234890
  H   2.15820732855455      1.24111838746554     -0.41538433738331
