12
Coordinates from ORCA-job run
  C   -0.52293884004986     -0.45499981950249      0.27744124862085
  C   0.48966377180494      0.50707799069371     -0.30938748546063
  Cl  0.04562860923824     -1.00269081009684      1.89309362834442
  H   0.06791393950597      0.88973624353297     -1.24589682128043
  H   -0.53949329427339     -1.36641525985570     -0.32982995233293
  H   0.58592067506866      1.35140960300642      0.38598961168706
  N   -1.79438349210438      0.20714495286539      0.45722732551668
  H   -2.14876629802425      0.49238751916352     -0.44896215390647
  H   -2.46541651718953     -0.42858041650530      0.87071270888054
  N   1.72990814159161     -0.18834759738543     -0.62737940988720
  H   2.21145324598299     -0.42680611369313      0.23078615647049
  H   2.33951005844900      0.42208370777687     -1.15579485665240
