12
Coordinates from ORCA-job run
  C   -0.56950744274406     -0.49030980892736      0.07986381887283
  C   0.49627768955211      0.50223795763310     -0.33622253498507
  Cl  -0.08762321398364     -1.15670973578147      1.74226642957255
  H   0.17727819041451      0.89852796039376     -1.30363988439688
  H   -0.53045281796177     -1.36388619598103     -0.56866852500314
  H   0.49708549381972      1.33298469642749      0.38751012915008
  N   -1.85960179324871      0.08945067505756      0.06417893936701
  H   -1.92359674211511      0.86482630799794      0.71153865936984
  H   -2.57732565225645     -0.58486860942638      0.29290408519947
  N   1.78116923192894     -0.15878783999397     -0.50538813328338
  H   2.43134114591245      0.46708646422709     -0.96204989968332
  H   2.16695591068203     -0.39955187162673      0.39870691582000
