12
Coordinates from ORCA-job run
  C   -0.50914352610493     -0.58023962666135      0.29929121802000
  C   0.41205833484320      0.45240683390136     -0.33264256817860
  Cl  0.13665590754952     -0.96987000648193      1.93835220174644
  H   -0.03239904480851      0.71710932353623     -1.29807495816465
  H   -0.44799543968887     -1.50724332688605     -0.27221901917860
  H   0.39660453391260      1.35384890024492      0.30121773958697
  N   -1.88666963802739     -0.19237132659898      0.43140702487410
  H   -2.34258516615269     -0.21810350582147     -0.47192734000035
  H   -1.96265818850051      0.74042027116207      0.81847081837100
  N   1.73516431439527     -0.10264603075276     -0.57826577152306
  H   2.28286248104105      0.53836105071585     -1.13751410998895
  H   2.21810543154127     -0.23167255635791      0.30190476443571
