12

C	-0.594209	0.045188	-1.403161
C	0.0	0.0	0.0
Br	-0.173219	-1.580388	-2.41754
H	1.097668	0.0	0.0
H	-1.683846	0.07138	-1.342223
H	-0.364991	-0.910607	0.48467
C	-0.168217	1.21187	-2.169816
N	0.11551	2.166195	-2.793276
N	-0.495528	1.206518	0.689657
H	0.305719	1.824859	0.779996
H	-0.766922	0.962777	1.634157
H	2.931806	0.0	0.0
