12

C	-0.425504	0.060691	-1.451358
C	0.0	0.0	0.0
Br	-2.385695	0.307095	-1.64846
H	1.094657	0.0	0.0
H	0.011633	0.945777	-1.916455
H	-0.36553	-0.927411	0.459898
C	-0.07536	-1.134886	-2.208144
N	0.17917	-2.096334	-2.833336
N	-0.402365	1.223348	0.683592
H	-1.235924	1.078633	1.239149
H	0.361476	1.488336	1.297302
H	2.863441	0.0	0.0
