12

C	-0.487427	-0.018146	-1.439506
C	0.0	0.0	0.0
Br	-0.067395	1.659967	-2.37145
H	1.099294	0.0	0.0
H	0.057827	-0.786901	-1.993088
H	-0.329572	-0.950753	0.438955
C	-1.924278	-0.241879	-1.560403
N	-3.072274	-0.47234	-1.661934
N	-0.610501	1.105194	0.747443
H	-0.53205	0.880061	1.732673
H	-0.011396	1.914007	0.608342
H	2.959681	0.0	0.0
