12

C	-0.43556	0.011789	-1.447678
C	0.0	0.0	0.0
Br	-2.371661	0.438792	-1.652449
H	1.09506	0.0	0.0
H	0.079326	0.809695	-1.989016
H	-0.313653	0.949158	0.452449
C	-0.211911	-1.259473	-2.126293
N	-0.023531	-2.275053	-2.686779
N	-0.485465	-1.180076	0.69882
H	0.292889	-1.575969	1.209272
H	-1.217682	-0.951323	1.352248
H	2.875523	0.0	0.0
