12

C	-0.526221	0.035279	-1.435571
C	0.0	0.0	0.0
Br	-0.060284	-1.600263	-2.421686
H	1.092273	0.0	0.0
H	-1.621127	0.047387	-1.450472
H	-0.376747	-0.912338	0.473294
C	-0.06998	1.200527	-2.189219
N	0.210069	2.163893	-2.800353
N	-0.413518	1.185962	0.741762
H	-1.304052	1.557178	0.434005
H	0.297209	1.898011	0.621952
H	2.910962	0.0	0.0
