12

C	-0.326913	0.035286	-1.487964
C	0.0	0.0	0.0
Br	-2.24985	0.396149	-1.879161
H	1.095116	0.0	0.0
H	0.203128	0.867571	-1.95573
H	-0.391528	-0.917493	0.447417
C	0.00861	-1.203833	-2.178762
N	0.242744	-2.200209	-2.754792
N	-0.409024	1.171474	0.749764
H	0.275589	1.904217	0.601121
H	-1.322691	1.502567	0.468669
H	2.849915	0.0	0.0
