12

C	-0.591288	0.033817	-1.404859
C	0.0	0.0	0.0
Br	-0.141613	-1.585878	-2.418244
H	1.097673	0.0	0.0
H	-1.681871	0.040582	-1.346083
H	-0.36735	-0.906157	0.490368
C	-0.182831	1.204624	-2.174478
N	0.116724	2.136014	-2.823437
N	-0.501671	1.208419	0.682191
H	0.285848	1.850153	0.730513
H	-0.727098	0.974594	1.640952
H	2.941313	0.0	0.0
