12

C	-0.378355	-0.022493	-1.489486
C	0.0	0.0	0.0
Br	-0.073742	1.723541	-2.329083
H	1.09268	0.0	0.0
H	0.290977	-0.714485	-2.00973
H	-0.414274	0.893776	0.473351
C	-1.769649	-0.39234	-1.721411
N	-2.895965	-0.70837	-1.844311
N	-0.400518	-1.207103	0.701249
H	-1.31394	-1.549216	0.434645
H	0.297785	-1.921587	0.545789
H	2.887643	0.0	0.0
