16

C	-0.557554	-0.011927	-1.42652
C	0.0	0.0	0.0
Br	-0.058201	-1.556327	-2.53534
H	1.090044	0.0	0.0
N	-2.002844	0.047792	-1.376332
H	-2.37032	0.209563	-2.308266
H	-2.220009	0.855604	-0.797502
C	0.031257	1.143848	-2.133777
N	0.385027	2.092179	-2.732861
N	-0.469142	-1.156571	0.78232
O	-0.126643	-2.273239	0.393716
O	-1.106735	-0.953863	1.829586
N	-0.419626	1.253239	0.593515
H	-0.977886	1.042816	1.412809
H	0.434213	1.714898	0.901919
H	2.563451	0.0	0.0
