16

C	-0.550044	-0.181396	-1.416024
C	0.0	0.0	0.0
Br	0.342987	-1.673503	-2.354499
H	1.096974	0.0	0.0
N	-1.986775	-0.373015	-1.527894
H	-2.403083	0.421768	-1.045312
H	-2.19459	-1.210403	-0.989417
C	-0.184839	1.012053	-2.193487
N	0.070401	1.959478	-2.839829
N	-0.443356	-0.992406	0.912171
O	-0.814148	-2.111575	0.480003
O	-0.314159	-0.744129	2.136191
N	-0.33609	1.337071	0.464204
H	-0.670676	1.240529	1.416936
H	0.551976	1.838704	0.528341
H	2.354928	0.0	0.0
