16

C	-0.40221	0.14327	-1.454722
C	0.0	0.0	0.0
Br	-2.42712	0.202435	-1.567107
H	1.109613	0.0	0.0
N	0.101344	1.37794	-1.997861
H	-0.057121	2.066747	-1.264233
H	1.114241	1.253781	-2.058026
C	0.006016	-0.946178	-2.342405
N	0.347704	-1.716698	-3.161487
N	-0.434564	-1.254405	0.619182
O	-0.381921	-2.279933	-0.068232
O	-0.734244	-1.236933	1.821828
N	-0.347601	1.164557	0.74837
H	-1.211487	1.022439	1.256368
H	0.399453	1.328777	1.416938
H	2.496791	0.0	0.0
