16

C	-0.288935	-0.13439	-1.496187
C	0.0	0.0	0.0
Br	0.226575	1.687478	-2.322932
H	1.108647	0.0	0.0
N	0.527599	-1.185412	-1.940099
H	1.483821	-1.035544	-1.581968
H	0.521608	-1.295247	-2.94602
C	-1.683276	-0.264137	-1.92336
N	-2.795885	-0.346634	-2.295236
N	-0.431033	-1.29633	0.659309
O	-1.582968	-1.687701	0.441444
O	0.347327	-1.824588	1.447468
N	-0.565055	1.110602	0.672112
H	-1.517581	0.942091	0.967044
H	0.021159	1.365371	1.456887
H	2.725428	0.0	0.0
