16

C	-0.566796	-0.056548	-1.420112
C	0.0	0.0	0.0
Br	-0.042698	-1.61257	-2.500698
H	1.090131	0.0	0.0
N	-2.013848	-0.023356	-1.360307
H	-2.389539	0.103923	-2.294451
H	-2.243456	0.800135	-0.807535
C	-0.01263	1.096146	-2.159923
N	0.295774	2.022959	-2.814988
N	-0.457191	-1.130247	0.824195
O	-1.031685	-0.89123	1.899975
O	-0.157274	-2.262916	0.444189
N	-0.414775	1.271863	0.556426
H	0.441701	1.741477	0.84637
H	-0.96597	1.086111	1.387673
H	2.554422	0.0	0.0
