16

C	-0.205161	-0.163276	-1.518607
C	0.0	0.0	0.0
Br	0.155065	1.799986	-2.29523
H	1.108973	0.0	0.0
N	0.729936	-1.092852	-1.925254
H	1.655984	-0.898011	-1.490109
H	0.772441	-1.25587	-2.921772
C	-1.541891	-0.390011	-2.058632
N	-2.602653	-0.581786	-2.529638
N	-0.468088	-1.277529	0.644835
O	0.295945	-1.84869	1.413009
O	-1.625949	-1.630207	0.404655
N	-0.58121	1.075089	0.719346
H	0.067239	1.851155	0.715204
H	-1.466987	1.368324	0.327635
H	2.736499	0.0	0.0
