15

C	0.0	0.0	0.0
C	-0.244978	0.1187	-1.567134
Cl	1.762103	0.0	0.0
H	0.520573	0.820485	-1.9007
N	-0.364741	1.294073	0.70824
O	-0.566437	1.233387	1.916038
O	-0.250796	2.32349	0.048783
C	-0.690247	-1.114812	0.619612
N	-0.714969	-2.177428	1.15541
N	-1.507071	0.611706	-2.09902
H	-1.523008	0.407234	-3.095913
H	-2.255741	0.120217	-1.612291
C	0.110355	-1.208007	-2.122242
N	0.332243	-2.222438	-2.673922
H	-2.082009	0.0	0.0
