15

C	0.0	0.0	0.0
C	-0.247002	0.059974	-1.571867
Cl	1.762155	0.0	0.0
H	0.556858	0.697567	-1.944138
N	-0.365802	1.293091	0.694756
O	-0.218622	2.315648	0.032216
O	-0.599501	1.238191	1.897457
C	-0.630519	-1.122241	0.661406
N	-0.687691	-2.160288	1.233778
N	-1.478039	0.600436	-2.121313
H	-1.54283	0.310241	-3.095096
H	-2.245032	0.216167	-1.566951
C	0.043433	-1.3081	-2.063936
N	0.244738	-2.348234	-2.573919
H	-2.081474	0.0	0.0
