15

C	0.0	0.0	0.0
C	-0.236691	0.091189	-1.571161
Cl	1.762359	0.0	0.0
H	0.515923	0.807256	-1.906403
N	-0.369823	1.298707	0.693019
O	-0.548066	1.249727	1.905048
O	-0.280375	2.320062	0.01796
C	-0.6697	-1.115455	0.636747
N	-0.693142	-2.172273	1.181692
N	-1.50737	0.537923	-2.120661
H	-1.531971	0.275237	-3.102995
H	-2.24589	0.076535	-1.590127
C	0.16026	-1.234854	-2.103163
N	0.419685	-2.249558	-2.637865
H	-2.092809	0.0	0.0
