15
Coordinates from ORCA-job run
  C   -0.99936616665770     -0.55869694565032     -0.20499780834632
  C   0.43716061646395     -0.15036955181825     -0.53116685321009
  Br  -1.04833121969031     -2.51674834498052     -0.15722409274803
  H   0.79338338174238     -0.73110687916034     -1.38330758818350
  H   -1.64494698635616     -0.30380132710667     -1.05329108926315
  N   -1.43552767367538     -0.06309540138441      1.07534865521605
  H   -1.49922424414583      0.94713517248588      1.00701125010848
  H   -2.35486437399152     -0.42849882591297      1.29193660389609
  C   1.40702223603936     -0.24732873750546      0.63380735522062
  H   1.40847579822612     -1.26677126292905      1.01934378197835
  H   1.10631061255846      0.41944183579963      1.44073861092587
  H   2.41232472583686      0.00817620687986      0.29588066756339
  N   0.45769906490158      1.27238187651832     -1.02897028562635
  O   -0.43537367545965      2.03531436808830     -0.65576123616578
  O   1.39825790420784      1.58396781667598     -1.75134797136562
