15
Coordinates from ORCA-job run
  C   -0.87317876048365     -0.47390249772623      0.39230760555033
  C   0.35272361014031     -0.06362268789583     -0.42485539430906
  Br  -0.68282919582702      0.32177022904961      2.25133344041282
  H   0.11043083135014     -0.30221732484814     -1.46548539278314
  H   -0.79991589176078     -1.54042088964048      0.60344460477537
  N   -2.09237399735612     -0.19252157376982     -0.24688794506205
  H   -2.18418615146787      0.79000231921703     -0.46899367776993
  H   -2.88672290391362     -0.51299939407895      0.28970528220240
  C   1.63561624661336     -0.73616375194006      0.00829997606484
  H   1.88068935983387     -0.49010163672153      1.04019128714477
  H   2.46511812786576     -0.42551272485157     -0.62612809087034
  H   1.51574914126276     -1.81815080194780     -0.08474877365387
  N   0.49358569899063      1.43824892487489     -0.41857647228837
  O   -0.47452596364457      2.07452000599081     -0.83594149217177
  O   1.54081984839681      1.92907180428807     -0.01566495724201
