15
Coordinates from ORCA-job run
  C   -1.07140179884840     -0.40790841670580     -0.07225137071742
  C   0.35425699726372     -0.17047066737940     -0.57169626438826
  Br  -1.27573380199754     -2.44163641435652     -0.02126006158622
  H   0.59778407709417     -0.90244147324569     -1.33880145473841
  H   -1.79446251700776     -0.12294843435699     -0.83564140138887
  N   -1.37690204843504      0.21502146611732      1.14312161401144
  H   -0.83967402740264     -0.14239724508352      1.92094412035123
  H   -2.36258184925183      0.17449134955801      1.36076233694808
  C   1.40497527872588     -0.15333867149953      0.52209685791227
  H   1.38802245650232     -1.09907910070528      1.06771144629990
  H   2.39577477215288     -0.03304025879997      0.08090713901435
  H   1.22380973908982      0.67421402871752      1.20925000041301
  N   0.42122955666746      1.14559615481669     -1.30568614941621
  O   1.03988851873890      1.13673052604106     -2.36928648442452
  O   -0.10398535329194      2.12720715688209     -0.79017032829037
