15
Coordinates from ORCA-job run
  C   -1.03782187478960     -0.52713445864706     -0.03485180651288
  C   0.34814542615097     -0.18459359867944     -0.58452313951410
  Br  -1.15772555571038     -2.48263186464337      0.06156031508882
  H   0.55261099365542     -0.80570246267382     -1.45659622880690
  H   -1.79291152044824     -0.26333965321298     -0.78561287109491
  N   -1.25786710320120      0.00486340242081      1.28280679483960
  H   -2.17491829583321     -0.26527244270098      1.61690080564390
  H   -1.21769048199150      1.01669832636467      1.22175080403012
  C   1.47323536667798     -0.27761199230311      0.43118325897111
  H   2.42605491987285     -0.06002099840517     -0.05527877041281
  H   1.50642352606533     -1.28713711603745      0.84103191088921
  H   1.31117601423365      0.41884740097083      1.25222521563367
  N   0.33259537724483      1.21744348511773     -1.13289920958679
  O   -0.28014880100338      2.07611069550420     -0.49586360611149
  O   0.96984200907647      1.41848127692515     -2.16183347305654
