15

C	0.0	0.0	0.0
C	-0.452892	0.037234	-1.460697
Cl	1.77719	0.0	0.0
H	0.409484	-0.178702	-2.096617
H	-0.348252	-0.912742	0.455641
N	-0.427934	1.118959	0.897304
O	-0.524119	2.243615	0.427283
O	-0.507051	0.82414	2.082297
N	-0.877338	1.387621	-2.002776
O	-2.041725	1.729418	-2.053592
O	0.088454	2.039493	-2.406687
N	-1.39186	-1.078867	-1.791055
O	-2.164151	-0.910093	-2.722293
O	-1.128355	-2.154804	-1.267191
F	-2.257023	0.0	0.0
