15

C	0.0	0.0	0.0
C	-0.465509	0.018726	-1.455761
Cl	1.769113	0.0	0.0
H	0.385238	-0.231207	-2.095424
H	-0.352148	-0.907118	0.465522
N	-0.431217	1.126022	0.888432
O	-0.509328	0.8412	2.07625
O	-0.527522	2.246891	0.409138
N	-0.86144	1.370521	-2.012169
O	-2.01459	1.750351	-2.036789
O	0.117012	1.989412	-2.43939
N	-1.43767	-1.078956	-1.757475
O	-2.226268	-0.900407	-2.673652
O	-1.176729	-2.158488	-1.237352
F	-2.275913	0.0	0.0
