19

C	-0.274459	0.008392	-1.511855
C	0.0	0.0	0.0
Cl	-2.050195	-0.223465	-1.861044
H	1.093182	0.0	0.0
C	0.14531	1.307337	-2.184537
H	1.192565	1.495659	-1.934637
H	-0.456351	2.159323	-1.869586
H	0.040081	1.189074	-3.266394
N	0.42558	-1.153348	-2.021159
H	0.416115	-1.124157	-3.034871
H	1.397977	-1.083494	-1.712173
C	-0.529039	-1.205135	0.741724
H	-0.170357	-1.179233	1.773097
H	-1.617568	-1.229689	0.742638
H	-0.14228	-2.100308	0.256275
N	-0.473156	1.262602	0.635063
O	0.231847	2.263955	0.513031
O	-1.55008	1.239984	1.237371
Br	3.484979	0.0	0.0
