19

C	-0.481854	-0.05901	-1.468483
C	0.0	0.0	0.0
Cl	-0.141526	1.562643	-2.196086
H	1.090668	0.0	0.0
C	0.370539	-1.070571	-2.216177
H	0.120635	-1.026056	-3.277156
H	1.429885	-0.855534	-2.062384
H	0.163121	-2.081617	-1.851281
N	-1.883169	-0.331491	-1.689923
H	-2.060252	-1.307905	-1.483977
H	-2.434441	0.235989	-1.055133
C	-0.464726	-1.191838	0.82438
H	-0.073955	-1.091634	1.83966
H	-0.045839	-2.110115	0.41038
H	-1.552486	-1.261917	0.868529
N	-0.511666	1.228483	0.670109
O	-1.742944	1.339362	0.750136
O	0.286694	2.043892	1.112147
Br	3.564607	0.0	0.0
