19

C	-0.276495	-0.021125	-1.519446
C	0.0	0.0	0.0
Cl	-2.049253	-0.266521	-1.830745
H	1.093285	0.0	0.0
C	0.16	1.259093	-2.205771
H	1.204811	1.452085	-1.947001
H	-0.441149	2.113143	-1.898974
H	0.063305	1.109475	-3.28171
N	0.428293	-1.121803	-2.146294
H	1.421761	-0.988547	-1.945932
H	0.149171	-1.997301	-1.71915
C	-0.504407	-1.189744	0.78757
H	-0.029858	-2.099018	0.415133
H	-0.204828	-1.077784	1.831301
H	-1.587801	-1.286963	0.73898
N	-0.488072	1.26161	0.625626
O	-1.566667	1.229414	1.225904
O	0.201259	2.272226	0.492448
Br	3.480622	0.0	0.0
