19

C	-0.334495	-0.017976	-1.495113
C	0.0	0.0	0.0
Cl	-2.115774	-0.298816	-1.776663
H	1.093232	0.0	0.0
C	0.02168	1.28991	-2.186972
H	-0.13004	1.173691	-3.263483
H	1.072901	1.510514	-1.983281
H	-0.593863	2.121529	-1.841441
N	0.365728	-1.171128	-2.016145
H	0.309847	-1.165344	-3.028802
H	1.346411	-1.083531	-1.74546
C	-0.531386	-1.170037	0.79453
H	-0.092049	-1.154801	1.794787
H	-1.616616	-1.136517	0.874746
H	-0.228386	-2.087889	0.291649
N	-0.426723	1.292934	0.614102
O	-1.560033	1.358099	1.100444
O	0.373527	2.228123	0.57983
Br	3.511432	0.0	0.0
