15

C	0.0	0.0	0.0
C	-0.230546	0.285238	-1.514276
F	1.443211	0.0	0.0
H	-0.352751	1.354182	-1.676263
H	0.665069	-0.06605	-2.027829
N	-0.437639	1.116468	0.764986
H	-1.442721	1.203618	0.596618
H	-0.329371	0.860366	1.741562
N	-0.420325	-1.24608	0.53274
H	-0.244044	-1.989358	-0.131838
H	-1.432326	-1.177324	0.643742
N	-1.333515	-0.397965	-2.248911
O	-1.370809	-1.625874	-2.186718
O	-2.029453	0.294672	-2.982708
Cl	-3.479757	0.0	0.0
