15

C	0.0	0.0	0.0
C	-0.364168	-0.467563	-1.419713
F	1.443212	0.0	0.0
H	0.472686	-1.066684	-1.779957
H	-1.29398	-1.025173	-1.427372
N	-0.388951	1.284241	0.473547
H	-0.084123	2.00478	-0.165251
H	-1.405735	1.285279	0.542464
N	-0.456702	-1.053101	0.852364
H	-0.320081	-0.739448	1.807746
H	-1.464334	-1.110241	0.697726
N	-0.522064	0.598001	-2.449858
O	0.168304	1.614631	-2.354574
O	-1.278334	0.350808	-3.385076
Cl	-3.465665	0.0	0.0
