15

C	0.0	0.0	0.0
C	-0.49504	0.183934	-1.424138
F	1.42933	0.0	0.0
H	-0.293714	-0.71794	-1.992899
H	-1.570767	0.397772	-1.371132
N	-0.413442	1.062622	0.852431
H	0.044964	0.966965	1.750705
H	-0.184523	1.958545	0.442479
N	-0.440346	-1.291277	0.43009
H	-0.163049	-1.41576	1.400532
H	-1.46328	-1.230816	0.421424
N	0.187612	1.285399	-2.148795
O	0.645422	1.029391	-3.261197
O	0.237223	2.397838	-1.623162
Cl	-3.664038	0.0	0.0
