15
Coordinates from ORCA-job run
  C   1.06384749321591      0.13795309412971     -0.28612302959388
  C   -0.49386584538481      0.22478358011995     -0.29905639718969
  Br  1.73740507883404     -0.47101939647777     -2.03082836584564
  H   -0.74214896729312      0.83156815287398     -1.18142277245648
  C   1.61320241367315      1.47185530324391     -0.05190741903003
  N   1.99116418318152      2.57198962019060      0.11787788507741
  C   1.51953499551613     -0.79338671706170      0.74141355460355
  N   1.85684323919182     -1.57416928354773      1.55254855752102
  N   -0.85464875321990      0.84659473665388      0.96029045396958
  H   -0.89155948065946      1.85513218745838      0.89471602381048
  H   -1.73890833153606      0.50237891405087      1.30792724815879
  C   -1.13589486434554     -1.14664514962501     -0.41346591130904
  H   -0.77246091628625     -1.69602327184358     -1.28123634715915
  H   -0.93520796130442     -1.73221163667436      0.48717567285300
  H   -2.21730228358301     -1.02780013349112     -0.51690915340991
