15
Coordinates from ORCA-job run
  C   1.04686080557660      0.11531422553990      0.23609785249904
  C   -0.40137302644285      0.12493977534951     -0.33465212111081
  Br  1.01992762963660      0.31373845364650      2.19480249392989
  H   -0.25284566996083      0.06304319777902     -1.42030916336714
  C   1.72694288775463     -1.14023294270884     -0.07491589921884
  N   2.23345384609922     -2.16233578898066     -0.35986394057527
  C   1.80175529116211      1.23912532417080     -0.31367783833449
  N   2.41855105564934      2.11609885228061     -0.79497837449012
  N   -0.97647756565670      1.42288266923403     -0.04384061024578
  H   -1.63163004795279      1.69507620557809     -0.76390444204430
  H   -1.45972802272201      1.41347580776126      0.84580937639685
  C   -1.21702844895606     -1.07859987326790      0.12338088579618
  H   -1.38676843498298     -1.04273468812089      1.20166039837616
  H   -0.73395042325523     -2.02704427615157     -0.12174122768798
  H   -2.18868987594905     -1.05274694210987     -0.37486738992338
