15
Coordinates from ORCA-job run
  C   1.05267242775404      0.09660886925286      0.21819366017273
  C   -0.42613249868471      0.07798863673935     -0.28262738522866
  Br  1.16150464339889      0.15991431502734      2.17333995466432
  H   -0.32383873738225     -0.04995286686533     -1.37316419404725
  C   1.75656617730211     -1.10001910904473     -0.23875696172540
  N   2.27169086821360     -2.07981150057327     -0.63480244484402
  C   1.70958911498200      1.29269199038477     -0.30593030631787
  N   2.17703020745307      2.26524026037690     -0.77242467431545
  N   -1.04269916039824      1.33172850458834      0.09028045222602
  H   -2.04112637106269      1.22498837072399      0.20609155602823
  H   -0.86875807379582      2.05668345872290     -0.59392795185297
  C   -1.20279919988620     -1.10090365071198      0.27729860133559
  H   -2.16091292310178     -1.17731430903971     -0.24255149556315
  H   -0.66923377053493     -2.04214895340310      0.13769786920470
  H   -1.39455270425710     -0.95569401617831      1.34128332026317
