15
Coordinates from ORCA-job run
  C   1.05406713198331      0.12629450220981     -0.32654213725250
  C   -0.50230502529539      0.22767191091293     -0.28282256023152
  Br  1.65664507546652     -0.49912387491532     -2.09106016962838
  H   -0.77755879791745      0.83018604296029     -1.16004634246768
  C   1.62457127770099      1.45591821675475     -0.12007600043537
  N   2.01983122003502      2.55277396348189      0.02996694616651
  C   1.53782771454200     -0.80374331308636      0.68946588091922
  N   1.89619363241090     -1.58302475234861      1.49293004641596
  N   -0.81116616403945      0.86192594772972      0.98412132664266
  H   -1.68484501767707      0.52805557283408      1.36681175990315
  H   -0.84260902314866      1.87022241740093      0.91192999542846
  C   -1.16034717394492     -1.13858487344869     -0.36291700883483
  H   -2.24367590639666     -1.01047966376676     -0.42644464215498
  H   -0.93105463243235     -1.71923143191535      0.53394184153331
  H   -0.83457431128677     -1.69786066480330     -1.23925893600401
