15
Coordinates from ORCA-job run
  C   1.09237216009644     -0.12330224258272     -0.15815251061301
  C   -0.44117844035165     -0.03754453866502     -0.43266328215097
  Br  1.83376575703697     -1.79196613561901     -0.88941269743681
  H   -0.55182062435346     -0.21366683067632     -1.51217019266944
  C   1.75989987981402      0.98243044710371     -0.84178839474121
  N   2.23633372379102      1.87948425911757     -1.43362160339374
  C   1.36188253096631     -0.08121305671510      1.27588717688952
  N   1.54769610937899     -0.08119756744701      2.43639746245296
  N   -0.83320356074897      1.29402160586172     -0.01328071281133
  H   -1.77450895136383      1.30893407781874      0.35387720500032
  H   -0.75458882573706      1.97189135435268     -0.75979841759745
  C   -1.21519350076205     -1.08523564315713      0.34797061595402
  H   -0.84296812355802     -2.09150595053103      0.16008841765229
  H   -1.15283540787931     -0.87765820132961      1.41894170180911
  H   -2.26565272632942     -1.05147157753147      0.04872523165573
