15
Coordinates from ORCA-job run
  C   1.10919795302046      0.22207968327689     -0.18653034211903
  C   -0.42212958686694      0.17409756956048     -0.49357969176886
  Br  1.95817537197468      1.61411678478815     -1.27255074251860
  H   -0.49212969238438      0.04219813422913     -1.57821181363359
  C   1.30797989500667      0.54835062800067      1.22344745333417
  N   1.40767758952435      0.78535578410590      2.37053155735649
  C   1.75864312944649     -1.04562306088378     -0.51239199071113
  N   2.23871886182210     -2.08262682425365     -0.78913885377493
  N   -0.98590957506773      1.45442282118625     -0.12354125777125
  H   -1.46125738237621      1.40676184436977      0.76795764314213
  H   -1.62421042788708      1.80320627089448     -0.82283156166605
  C   -1.06640194613636     -1.01301198001210      0.21792162838253
  H   -0.62024766894653     -1.96702253070752     -0.06855945450391
  H   -0.98004012446249     -0.90170604593237      1.30312028418300
  H   -2.12806639666709     -1.04059907862230     -0.03664285793095
