15
Coordinates from ORCA-job run
  C   1.05038135802811      0.10249223433695      0.22668103975724
  C   -0.40037647630025      0.11457902856811     -0.33845986439536
  Br  1.03841046518898      0.41654419892241      2.16982064638064
  H   -0.25932456742436     -0.01325500155020     -1.41929326507065
  C   1.69749554930132     -1.18579163327462     -0.01338540212207
  N   2.20222645196267     -2.22082422205475     -0.25039434887321
  C   1.82961596064377      1.17213990927702     -0.39238286120192
  N   2.44840697172693      2.01342669982026     -0.93122978597541
  N   -0.94470676285591      1.43958441166968     -0.12000530729980
  H   -1.59177711012676      1.68798775292042     -0.85575582230777
  H   -1.42964796609302      1.48999327950544      0.76729823765699
  C   -1.24080344606502     -1.04158353770524      0.19167895074572
  H   -0.78098333221943     -2.01363863815799     -0.00036312234487
  H   -2.21444439618722     -1.02187308148666     -0.30306006270527
  H   -1.40347269957977     -0.93978140079083      1.26685096775572
