15
Coordinates from ORCA-job run
  C   1.09411073424316      0.03755484498834     -0.18667863451846
  C   -0.44192483278669      0.25596462728654     -0.35061750156165
  Br  1.87094387829351     -0.68316897065301     -1.84359365417147
  H   -0.55335774839582      0.85116367783684     -1.26806386346940
  C   1.73383778888997      1.32703565473790      0.06631111212536
  N   2.18914744609029      2.39631649219017      0.24264379355683
  C   1.36820111799759     -0.89546774404216      0.90206761581165
  N   1.55840481411861     -1.67584379695437      1.76005713065609
  N   -0.86268319612358      0.94823672667706      0.85209798786400
  H   -1.80169134728343      0.69125124604327      1.12302880492625
  H   -0.80506346970742      1.95351268981509      0.75792537533343
  C   -1.18855674270444     -1.05908329513171     -0.49063335943481
  H   -2.24069931388911     -0.85233717932164     -0.70153375809271
  H   -1.12604137327867     -1.62801733907565      0.44032274384773
  H   -0.79462775546398     -1.66711763439665     -1.30433379287285
