15
Coordinates from ORCA-job run
  C   1.02103368105086      0.02734315412614      0.35140119909750
  C   -0.38466929832200      0.12403536015033     -0.32231575460056
  Br  0.89010642588889     -0.09144097917397      2.30246631980304
  H   -0.15274838825481      0.09136779703967     -1.39975367966682
  C   1.73188805669788     -1.15513171842065     -0.13085989696077
  N   2.25365783805470     -2.11925772237303     -0.55565997116379
  C   1.77955374786502      1.23367343048827      0.02560311983185
  N   2.33683337464901      2.21993537209704     -0.28875164365186
  N   -0.99728881275904      1.36622902506457      0.09283698173828
  H   -0.72088845638801      2.13982098280023     -0.49761831744955
  H   -2.00529541760435      1.29462767037007      0.08682095696521
  C   -1.26562600573661     -1.06375078015428      0.02361966316888
  H   -0.75410098302044     -2.01229212596566     -0.14762014492673
  H   -1.57779829168131     -1.01170233068884      1.06769596449777
  H   -2.15665747043987     -1.04345713535986     -0.60886479668248
