15
Coordinates from ORCA-job run
  C   1.07562878742827      0.22751354026981     -0.15992489138112
  C   -0.44704797716474      0.15021757469858     -0.45639372807919
  Br  1.87176057479679      1.70569390601563     -1.19122619352442
  H   -0.52226291720626     -0.02810172770285     -1.53997699050411
  C   1.31517968585512      0.47862028241824      1.25874827397933
  N   1.50428225102953      0.63584983003726      2.40805506118926
  C   1.74692257688254     -0.99971077128644     -0.58281202248386
  N   2.23353377814537     -2.00887747848270     -0.93906915182854
  N   -1.04923067344727      1.39034617213606     -0.01243576467319
  H   -0.93209511011646      2.12649518332182     -0.69625720758483
  H   -2.03822950016646      1.26159967598063      0.15584865441101
  C   -1.06341892855666     -1.01947705115505      0.29914974997133
  H   -1.00445551861581     -0.84691487324123      1.37634121873332
  H   -2.11690233826566     -1.10980208747338      0.02180223395391
  H   -0.57466469059831     -1.96445217553641      0.05815075782107
