15
Coordinates from ORCA-job run
  C   1.05703918199325      0.15797657351517     -0.30043298707243
  C   -0.50216973200487      0.21438610211890     -0.29305044772529
  Br  1.71844792957438     -0.44105739208802     -2.05378624846913
  H   -0.77354291199841      0.81335278886247     -1.17392934738395
  C   1.58369500570962      1.50273565236029     -0.07682409731414
  N   1.94107492469190      2.61088651119844      0.08494691627383
  C   1.54417221149786     -0.76317639134358      0.72168214985186
  N   1.90624519550479     -1.53659100673788      1.52911179570032
  N   -0.85834521110490      0.83261940627375      0.96948372043906
  H   -0.91388935440237      1.84019278839071      0.90213285300612
  H   -1.73226289799562      0.47374563694405      1.32835494654235
  C   -1.11831868376790     -1.16985812860761     -0.39427058206830
  H   -0.75297167582048     -1.71629651986494     -1.26312233203005
  H   -0.89618180915557     -1.74646393463057      0.50710697550927
  H   -2.20299217272167     -1.07345208639116     -0.48640331525952
