15
Coordinates from ORCA-job run
  C   1.05787584909832      0.07513761521339      0.19524758427420
  C   -0.43893205957865      0.12044592017975     -0.24666147551102
  Br  1.24320379800312     -0.21834928449736      2.12342098960749
  H   -0.37744592816023      0.19719455211956     -1.34497413751682
  C   1.75768824188674     -1.00377257984285     -0.49934082771873
  N   2.28102050061466     -1.87654209945220     -1.08802338677344
  C   1.67949297099475      1.35894888835912     -0.12438157641070
  N   2.11985402202713      2.40706588778990     -0.42372589131107
  N   -1.05645930418354      1.27151664691686      0.37372133189267
  H   -0.91620341983848      2.11348501990739     -0.16955017949490
  H   -2.04870974945626      1.12686335776165      0.49996785004312
  C   -1.17812433955156     -1.15671358997849      0.11250110462766
  H   -1.32386112780355     -1.21855546253373      1.19189838254032
  H   -2.15754549143296     -1.15083502784924     -0.37241398347379
  H   -0.64185396261945     -2.04488984409363     -0.22568578477491
