15
Coordinates from ORCA-job run
  C   1.02590050730870      0.23294225538356     -0.23063745189597
  C   -0.52328866989302      0.10765739443102     -0.49491049532767
  Br  1.76320762838434      1.69375456067583     -1.32372475655467
  H   -0.61038222654144     -0.06455025308721     -1.57328826665665
  C   1.25620711933796      0.55821057283770      1.17300684478824
  N   1.35580931811283      0.82412352342410      2.31406950506539
  C   1.72908293716947     -0.98873844619190     -0.60554004471721
  N   2.24460035554249     -1.99514553631302     -0.92859932712833
  N   -1.27459619880072      1.28552939707984     -0.15844041290514
  H   -1.25135962253836      1.47120776414269      0.83748880824274
  H   -0.95344241748804      2.10324723091523     -0.65981502775766
  C   -1.07464147325011     -1.08889227338611      0.26938486505508
  H   -0.97667750439663     -0.94030584477356      1.34883577086597
  H   -2.13578786516484     -1.18036025119527      0.03536778440832
  H   -0.57263188778269     -2.01868009394288     -0.00119779548247
