15
Coordinates from ORCA-job run
  C   1.07144818660760      0.19465263955939     -0.21731321952894
  C   -0.48590215585406      0.24543051015730     -0.29585333888098
  Br  1.84083753353611     -0.19798069877375     -1.98420824483847
  H   -0.71156334626730      0.94098352927248     -1.11669803386923
  C   1.57072321619080      1.50624828347346      0.19072851175435
  N   1.90766950784089      2.58914547703729      0.50009216841840
  C   1.50636358099014     -0.83570112323321      0.72098198148148
  N   1.82912771914403     -1.69591232405235      1.45387272150420
  N   -0.92150967298654      0.71301973700889      1.00550648498407
  H   -1.80940501514647      0.30995475097861      1.27073630308373
  H   -0.98522393674806      1.72137322356626      1.05067777026154
  C   -1.08209913558741     -1.11942404876390     -0.59261630501911
  H   -0.90379854544652     -1.79833272193458      0.24493364875818
  H   -2.16101978079943     -1.01566476564035     -0.73194398347664
  H   -0.66564815547380     -1.55779246865551     -1.49889646463259
