15
Coordinates from ORCA-job run
  C   1.03041336859041      0.21031675618964     -0.23101905548933
  C   -0.51829454905874      0.09631831506948     -0.50203830713751
  Br  1.79515818233258      1.62120716608026     -1.37028741702677
  H   -0.60006596018607     -0.11359036171658     -1.57414499711482
  C   1.25574671507239      0.58271931391837      1.16167998719751
  N   1.34931645277406      0.88814211972938      2.29338205215962
  C   1.71988514398082     -1.03304625246820     -0.55716584912496
  N   2.22324614866565     -2.05712520939632     -0.84176493940106
  N   -1.25584910811290      1.29582553784246     -0.21457244010232
  H   -0.92188513823874      2.08899463243986     -0.74625612376094
  H   -1.23306292309378      1.51996231236464      0.77355484929311
  C   -1.09154110426703     -1.06403098106341      0.30098505842616
  H   -1.00055956858219     -0.87685604429581      1.37501670182154
  H   -2.15188401858141     -1.15031689481726      0.06142018385352
  H   -0.59962364129503     -2.00952040987653      0.06921029640625
