15
Coordinates from ORCA-job run
  C   1.07103633548258      0.22603910988521     -0.19118572571509
  C   -0.45793942670987      0.13752042101218     -0.45055721885852
  Br  1.83957392912661      1.67998549514361     -1.27585661794895
  H   -0.55754624580323     -0.06854808476235     -1.52718735524601
  C   1.34047079683415      0.51217563630056      1.21540586939430
  N   1.54950470906196      0.69640334642575      2.35717802899592
  C   1.73657507825079     -1.00977235161965     -0.59780636997065
  N   2.22156706084832     -2.02512451205668     -0.93867667642566
  N   -1.05320742662915      1.38705607472453     -0.02359457308671
  H   -2.03828045993978      1.26042227829308      0.16814037803711
  H   -0.95210894146581      2.10675118895446     -0.72729853666694
  C   -1.05290496039994     -1.01377278984701      0.34915397638883
  H   -2.11277466965951     -1.11277081580439      0.10049715021082
  H   -0.56807317258180     -1.96362937856446      0.12004135825206
  H   -0.96789260641533     -0.81373561808485      1.41974631263951
