17

C	-0.389524	0.003774	-1.449957
C	0.0	0.0	0.0
F	0.296114	-0.885194	-2.171888
H	1.094493	0.0	0.0
N	-1.875021	-0.293565	-1.699292
O	-2.654687	-0.037623	-0.785823
O	-2.179546	-0.765624	-2.787976
N	-0.178966	1.367792	-2.095682
O	-1.167632	2.078578	-2.257251
O	0.974654	1.641676	-2.382721
N	-0.418519	-1.284985	0.54524
H	0.305557	-1.596198	1.18042
H	-1.294837	-1.197671	1.044321
N	-0.421801	1.230743	0.631289
H	0.206868	1.4194	1.400595
H	-1.378422	1.184325	0.957197
F	2.587087	0.0	0.0
