17

C	-0.528246	0.000841	-1.399865
C	0.0	0.0	0.0
F	0.044365	-0.921382	-2.178103
H	1.102545	0.0	0.0
N	-2.038226	-0.257704	-1.48646
O	-2.467263	-0.676067	-2.554848
O	-2.709476	-0.022465	-0.487036
N	-0.353243	1.347008	-2.085616
O	0.739399	1.539538	-2.597273
O	-1.304237	2.119314	-2.062751
N	-0.38133	-1.283401	0.585813
H	0.416437	-1.602189	1.123899
H	-1.182042	-1.179439	1.19846
N	-0.361289	1.229126	0.675326
H	0.373726	1.437919	1.338199
H	-1.256919	1.16849	1.141954
F	2.573694	0.0	0.0
