17

C	-0.462112	0.09266	-1.423676
C	0.0	0.0	0.0
F	-0.253438	-1.060744	-2.089406
H	1.106754	0.0	0.0
N	-1.942358	0.405327	-1.670138
O	-2.704736	0.434927	-0.711955
O	-2.256938	0.54134	-2.850883
N	0.260427	1.191275	-2.18723
O	1.106551	0.83875	-2.993662
O	-0.090324	2.335784	-1.93026
N	-0.497075	-1.282998	0.560856
H	-0.062746	-2.020377	0.010879
H	-0.019555	-1.33892	1.457707
N	-0.420601	1.142931	0.764106
H	-1.292399	0.95553	1.242421
H	0.315729	1.366852	1.419693
F	2.595472	0.0	0.0
