17

C	-0.48003	-0.006013	-1.415149
C	0.0	0.0	0.0
F	0.141002	0.907974	-2.180329
H	1.103511	0.0	0.0
N	-0.299745	-1.332674	-2.134646
O	-1.161808	-1.63666	-2.958692
O	0.736168	-1.935502	-1.90759
N	-1.9789	0.304827	-1.50484
O	-2.308776	1.354101	-2.053039
O	-2.731556	-0.479095	-0.939576
N	-0.482173	-1.180151	0.687914
H	0.267331	-1.470172	1.304487
H	-1.28772	-0.938263	1.252443
N	-0.34139	1.279067	0.638751
H	0.525326	1.800181	0.707061
H	-1.003652	1.842256	0.117201
F	2.570376	0.0	0.0
