17

C	-0.663948	0.006437	-1.339259
C	0.0	0.0	0.0
F	-2.014248	0.006139	-1.251356
H	1.093385	0.0	0.0
N	-0.296592	1.193189	-2.213861
O	0.681114	1.858109	-1.913433
O	-1.029534	1.362065	-3.187983
N	-0.269942	-1.19901	-2.173287
O	0.869181	-1.172839	-2.621381
O	-1.103139	-2.082211	-2.319669
N	-0.364197	-1.261081	0.62208
H	-1.267562	-1.229206	1.081612
H	0.361029	-1.492307	1.288914
N	-0.412728	1.23753	0.674562
H	-1.061327	1.030881	1.426477
H	0.434387	1.628191	1.076405
F	2.576105	0.0	0.0
