17

C	-0.689926	0.085912	-1.32183
C	0.0	0.0	0.0
F	-2.03703	0.034006	-1.203552
H	1.1028	0.0	0.0
N	-0.360731	1.374745	-2.056039
O	-1.247465	2.211467	-2.153173
O	0.78266	1.454411	-2.484522
N	-0.304289	-1.010929	-2.300589
O	0.759788	-1.583098	-2.13252
O	-1.105905	-1.197978	-3.216061
N	-0.396211	-1.286251	0.57732
H	-1.149117	-1.173941	1.245617
H	0.420177	-1.648769	1.054822
N	-0.355731	1.213387	0.721785
H	-1.23108	1.127954	1.226424
H	0.398235	1.409529	1.368039
F	2.569019	0.0	0.0
