17

C	-0.694046	-0.082001	-1.319623
C	0.0	0.0	0.0
F	-2.039844	-0.027318	-1.196686
H	1.102804	0.0	0.0
N	-0.308668	1.016123	-2.297735
O	-1.121122	1.220525	-3.199826
O	0.766072	1.571542	-2.141961
N	-0.3693	-1.370344	-2.057332
O	0.781245	-1.46336	-2.463519
O	-1.266671	-2.192021	-2.180618
N	-0.352729	-1.217959	0.718311
H	-1.212715	-1.127175	1.246498
H	0.415022	-1.426757	1.342958
N	-0.393937	1.283095	0.582536
H	-1.161396	1.174415	1.234647
H	0.416325	1.636562	1.076435
F	2.568494	0.0	0.0
