17

C	-0.53421	-0.091514	-1.39686
C	0.0	0.0	0.0
F	-1.886167	-0.108123	-1.463565
H	1.104875	0.0	0.0
N	-0.076003	1.087234	-2.239582
O	-0.860938	2.025603	-2.346538
O	1.054823	1.019355	-2.700833
N	-0.058074	-1.306208	-2.176338
O	-0.61043	-1.460711	-3.265483
O	0.816133	-2.006742	-1.693784
N	-0.503234	-1.184059	0.703682
H	0.312815	-1.626374	1.111963
H	-1.082728	-0.847715	1.462825
N	-0.421347	1.251149	0.619399
H	-1.194861	1.69997	0.145014
H	0.375233	1.875562	0.627925
F	2.585028	0.0	0.0
