15

C	-0.497607	-0.025327	-1.441127
C	0.0	0.0	0.0
Cl	0.153129	1.406012	-2.254319
H	1.092933	0.0	0.0
N	0.048721	-1.252504	-2.215628
O	1.16333	-1.630748	-1.896694
O	-0.652834	-1.654645	-3.137087
C	-1.947243	-0.032933	-1.572145
N	-3.119399	0.019592	-1.65161
N	-0.430999	-1.259432	0.71183
O	-0.938581	-2.149012	0.020743
O	-0.089143	-1.346348	1.880843
C	-0.526168	1.134612	0.728933
N	-0.953071	2.060947	1.314612
F	2.470259	0.0	0.0
