15

C	-0.527878	-0.011397	-1.424325
C	0.0	0.0	0.0
Cl	0.126324	1.406955	-2.270894
H	1.09284	0.0	0.0
N	-0.025063	-1.237784	-2.220159
O	1.02946	-1.732775	-1.87525
O	-0.721456	-1.550934	-3.177198
C	-1.986087	0.011658	-1.514252
N	-3.158166	0.098901	-1.555895
N	-0.471466	-1.194643	0.737461
O	-0.985402	-2.105154	0.081072
O	-0.27938	-1.214738	1.947805
C	-0.444	1.186627	0.699828
N	-0.787389	2.164725	1.25692
F	2.404289	0.0	0.0
