15

C	-0.382355	-0.059347	-1.466849
C	0.0	0.0	0.0
Cl	0.603339	-1.199653	-2.370021
H	1.090747	0.0	0.0
N	-1.899426	-0.408501	-1.658104
O	-2.6407	0.215054	-0.911862
O	-2.220817	-1.201466	-2.522762
C	-0.225027	1.262603	-2.07007
N	-0.097287	2.307704	-2.593839
N	-0.443626	-1.19822	0.741425
O	-0.308801	-1.170197	1.96002
O	-0.866661	-2.156119	0.092422
C	-0.45092	1.191133	0.683905
N	-0.764011	2.173491	1.249029
F	2.403126	0.0	0.0
