15

C	-0.47829	-0.004535	-1.430717
C	0.0	0.0	0.0
Cl	-2.229501	0.024129	-1.672309
H	1.092716	0.0	0.0
N	0.149556	1.158977	-2.238253
O	-0.455439	1.533624	-3.244881
O	1.282182	1.499303	-1.887263
C	0.045934	-1.235552	-2.06445
N	-0.012216	-2.426693	-2.168627
N	-0.488511	-1.102341	0.877447
O	0.376542	-1.640535	1.581632
O	-1.707347	-1.316913	0.966028
C	-0.35643	1.183608	0.778058
N	-0.179589	1.849361	1.765987
F	2.466672	0.0	0.0
