15

C	-0.520786	0.038491	-1.422593
C	0.0	0.0	0.0
Cl	0.223228	1.424447	-2.243077
H	1.09118	0.0	0.0
N	-0.078437	-1.209234	-2.216091
O	-0.704724	-1.413709	-3.248202
O	0.870883	-1.837341	-1.787291
C	-1.97316	0.150359	-1.539838
N	-3.133609	0.328617	-1.599764
N	-0.496482	-1.201244	0.71301
O	-1.20261	-1.99754	0.084615
O	-0.150084	-1.326512	1.881911
C	-0.425588	1.175085	0.731266
N	-0.754559	2.144693	1.309513
F	2.407306	0.0	0.0
