15

C	-0.545681	0.073328	-1.417405
C	0.0	0.0	0.0
Cl	0.079045	1.55179	-2.180239
H	1.1024	0.0	0.0
N	-0.044568	-1.089231	-2.304308
O	1.070881	-1.513111	-2.077899
O	-0.805891	-1.424199	-3.203544
C	-2.005424	0.088009	-1.477163
N	-3.179431	0.156925	-1.470165
N	-0.456009	-1.239477	0.665913
O	-0.878734	-2.149536	-0.054962
O	-0.325939	-1.302505	1.883664
C	-0.448974	1.142187	0.766871
N	-0.807259	2.089107	1.365236
F	2.399915	0.0	0.0
