15

C	-0.412689	0.097532	-1.452676
C	0.0	0.0	0.0
Cl	0.614744	-0.853725	-2.517347
H	1.115866	0.0	0.0
N	-1.913015	-0.328652	-1.656094
O	-2.661132	0.068723	-0.774663
O	-2.217999	-0.942032	-2.662145
C	-0.376409	1.489706	-1.898381
N	-0.374252	2.596916	-2.294321
N	-0.401575	-1.285039	0.601981
O	-0.310726	-1.378202	1.822058
O	-0.739643	-2.194365	-0.158405
C	-0.444689	1.100523	0.820447
N	-0.739245	2.025005	1.485303
F	2.397145	0.0	0.0
