15

C	-0.570528	-0.148957	-1.394012
C	0.0	0.0	0.0
Cl	-2.337702	-0.354419	-1.396631
H	1.115112	0.0	0.0
N	-0.226189	1.171974	-2.172549
O	0.941061	1.510846	-2.076434
O	-1.108105	1.703341	-2.82574
C	0.034439	-1.210079	-2.192221
N	0.460297	-2.006093	-2.945171
N	-0.344392	-1.167793	0.833663
O	-0.434767	-2.25463	0.262424
O	-0.433955	-0.994203	2.046214
C	-0.45965	1.222062	0.618745
N	-0.787243	2.255843	1.07432
F	2.390181	0.0	0.0
