15

C	-0.422725	-0.042637	-1.453326
C	0.0	0.0	0.0
Cl	-2.142692	-0.42926	-1.68285
H	1.114349	0.0	0.0
N	-0.163461	1.382143	-2.061508
O	-0.927291	1.770324	-2.930081
O	0.836666	1.94281	-1.644331
C	0.395979	-0.932717	-2.273768
N	1.009983	-1.58619	-3.034023
N	-0.317778	-1.271731	0.678316
O	-0.481669	-1.238789	1.895951
O	-0.304471	-2.291353	-0.010235
C	-0.573052	1.116689	0.706694
N	-1.021876	2.057247	1.251937
F	2.392958	0.0	0.0
