15

C	-0.562886	0.077407	-1.407084
C	0.0	0.0	0.0
Cl	0.051702	1.554	-2.177005
H	1.113414	0.0	0.0
N	-0.072294	-1.087957	-2.299826
O	1.045366	-1.512024	-2.086489
O	-0.844854	-1.42338	-3.1888
C	-2.023505	0.087059	-1.446973
N	-3.197013	0.149343	-1.408
N	-0.451414	-1.237175	0.669337
O	-0.902581	-2.138107	-0.047116
O	-0.292449	-1.310806	1.882976
C	-0.416018	1.145159	0.779193
N	-0.716426	2.098017	1.399353
F	2.396121	0.0	0.0
