18

C	-0.434764	0.00983	-1.475556
C	0.0	0.0	0.0
F	-1.829341	0.226878	-1.470353
H	1.091518	0.0	0.0
N	0.156807	1.029397	-2.291861
H	0.189143	1.896984	-1.772972
H	1.122626	0.764682	-2.45567
C	-0.160095	-1.344544	-2.090315
H	-0.761979	-2.108516	-1.605418
H	0.894162	-1.597832	-1.956528
H	-0.397759	-1.286433	-3.153955
N	-0.489285	-1.130382	0.709808
H	0.037104	-1.241447	1.567256
H	-1.466435	-1.003222	0.941737
N	-0.451348	1.310221	0.654922
O	-1.251541	1.240295	1.58715
O	-0.004495	2.366921	0.216565
Br	3.463322	0.0	0.0
