18

C	-0.422818	-0.009453	-1.477439
C	0.0	0.0	0.0
F	-1.84466	-0.092808	-1.484294
H	1.090654	0.0	0.0
N	-0.017909	1.15452	-2.184546
H	0.578295	0.925777	-2.966802
H	0.449939	1.823966	-1.589618
C	0.081409	-1.27241	-2.145303
H	-0.199402	-1.243329	-3.202467
H	-0.373197	-2.156084	-1.697871
H	1.168351	-1.328579	-2.045996
N	-0.479708	-1.086578	0.790082
H	-1.383064	-1.413479	0.476631
H	0.20471	-1.828952	0.803828
N	-0.499355	1.289618	0.610098
O	0.17047	2.306343	0.410053
O	-1.558127	1.260533	1.230304
Br	3.503907	0.0	0.0
