18

C	-0.463693	-0.053002	-1.469041
C	0.0	0.0	0.0
F	-0.236741	1.206054	-2.01625
H	1.093964	0.0	0.0
N	0.346169	-0.984344	-2.209449
H	0.220619	-1.897186	-1.783672
H	1.323657	-0.733428	-2.054278
C	-1.935511	-0.361715	-1.636395
H	-2.541949	0.375283	-1.106489
H	-2.163426	-0.326144	-2.702342
H	-2.166325	-1.357152	-1.254243
N	-0.44329	-1.173625	0.695942
H	0.195171	-1.360244	1.459075
H	-1.37213	-1.021789	1.07008
N	-0.498024	1.275538	0.642096
O	0.191701	2.281864	0.548304
O	-1.605636	1.227156	1.195179
Br	3.502752	0.0	0.0
