18

C	-0.442005	-0.056204	-1.470202
C	0.0	0.0	0.0
F	-1.736171	-0.678812	-1.526028
H	1.089745	0.0	0.0
N	-0.487284	1.229197	-2.056564
H	-1.235311	1.773627	-1.648186
H	-0.616308	1.157505	-3.056663
C	0.496907	-0.968074	-2.227456
H	1.514358	-0.578572	-2.174629
H	0.164363	-1.052445	-3.266246
H	0.486237	-1.962477	-1.780084
N	-0.462531	-1.095847	0.800395
H	-1.239246	-1.568056	0.364627
H	0.298842	-1.726906	0.997477
N	-0.499568	1.260906	0.660301
O	-1.688172	1.551492	0.477349
O	0.266711	1.879946	1.387407
Br	3.565968	0.0	0.0
