18

C	-0.357566	0.039997	-1.491003
C	0.0	0.0	0.0
F	-1.726247	-0.221286	-1.646199
H	1.094864	0.0	0.0
N	-0.083106	1.298633	-2.132502
H	-0.54132	2.043446	-1.621358
H	0.920344	1.456672	-2.105872
C	0.402228	-1.063722	-2.199269
H	0.163852	-1.009761	-3.262663
H	0.099698	-2.037762	-1.812119
H	1.477424	-0.945626	-2.041922
N	-0.521849	-1.112179	0.738327
H	0.199586	-1.802315	0.889521
H	-1.325427	-1.51051	0.272689
N	-0.461439	1.251323	0.707978
O	-1.587661	1.681935	0.431574
O	0.277545	1.729502	1.561086
Br	3.527551	0.0	0.0
