18

C	-0.417392	-0.002816	-1.478112
C	0.0	0.0	0.0
F	-1.836257	-0.099701	-1.484994
H	1.090612	0.0	0.0
N	-0.021598	1.175652	-2.168849
H	0.468015	1.826341	-1.567869
H	0.547618	0.961354	-2.971565
C	0.103054	-1.256837	-2.154067
H	-0.178539	-1.22471	-3.209864
H	1.189912	-1.300239	-2.057874
H	-0.339459	-2.150496	-1.714163
N	-0.478	-1.091319	0.782561
H	-1.382057	-1.419147	0.471148
H	0.209473	-1.831183	0.788376
N	-0.499027	1.280794	0.63097
O	-1.544867	1.232868	1.270549
O	0.152995	2.308605	0.422268
Br	3.49777	0.0	0.0
