15

C	-0.372619	-0.102667	-1.469571
C	0.0	0.0	0.0
Br	-2.325535	-0.095099	-1.722844
H	1.098864	0.0	0.0
H	-0.361344	0.931515	0.433661
N	0.0945	1.181943	-2.160217
O	0.457886	1.086209	-3.326589
O	0.027522	2.220351	-1.513329
C	0.243399	-1.306581	-2.137313
H	-0.132127	-2.210207	-1.653854
H	1.327584	-1.246639	-1.99408
H	0.006135	-1.332445	-3.198025
C	-0.491747	-1.143924	0.751344
N	-0.887209	-2.070047	1.3552
Br	3.436626	0.0	0.0
