15

C	-0.37543	0.038349	-1.472806
C	0.0	0.0	0.0
Br	-2.328105	0.0255	-1.725872
H	1.09401	0.0	0.0
H	-0.362907	0.886109	0.519832
N	0.059483	1.397402	-2.028864
O	-0.056762	2.366842	-1.288706
O	0.447612	1.426826	-3.19076
C	0.267885	-1.076439	-2.257392
H	-0.08038	-2.032475	-1.863345
H	0.025514	-1.00609	-3.315395
H	1.350644	-1.002859	-2.110782
C	-0.494375	-1.207884	0.641777
N	-0.900611	-2.181018	1.158509
Br	3.440107	0.0	0.0
