15

C	-0.372399	-0.015499	-1.473681
C	0.0	0.0	0.0
Br	-2.323807	-0.032543	-1.727438
H	1.096322	0.0	0.0
H	-0.362293	0.904435	0.487289
N	0.066138	1.320596	-2.081342
O	-0.012459	2.312511	-1.367973
O	0.418696	1.310457	-3.254234
C	0.272568	-1.158514	-2.215424
H	1.355007	-1.078491	-2.069283
H	0.032661	-1.127392	-3.275816
H	-0.076213	-2.099382	-1.786849
C	-0.495233	-1.184363	0.68362
N	-0.898723	-2.139767	1.234494
Br	3.440115	0.0	0.0
