15

C	-0.431844	-0.139859	-1.455452
C	0.0	0.0	0.0
Br	9.8e-05	-1.90177	-2.125163
H	1.105836	0.0	0.0
H	-0.319492	0.988137	0.347131
N	-1.951514	0.074918	-1.520909
O	-2.705161	-0.847881	-1.799661
O	-2.303666	1.219909	-1.240361
C	0.25453	0.909881	-2.308275
H	-0.042615	0.813586	-3.354261
H	1.33313	0.768224	-2.208351
H	-0.011021	1.90276	-1.942653
C	-0.556582	-1.017201	0.879239
N	-1.02863	-1.814551	1.600458
Br	3.461167	0.0	0.0
