12

C	-0.027246	0.009169	-0.006404
C	-0.524802	-0.003843	-1.426434
Cl	1.7676	0.1155	0.139505
H	-1.647372	-0.027487	-1.165307
H	-0.474738	0.807612	0.570621
H	-0.192239	-0.904472	-1.943235
N	-0.419146	-1.25908	0.703229
O	-0.48855	-2.285805	0.037581
O	-0.541098	-1.183848	1.91789
C	-0.135825	1.187024	-2.151229
N	0.151305	2.149975	-2.761746
F	-2.57154	-0.030404	0.052488
