12

C	-0.045444	0.011401	0.000354
C	-0.579373	-0.103757	-1.401099
Cl	1.753906	0.101556	0.096151
H	-1.697607	-0.092765	-1.106775
H	-0.46686	0.859082	0.524554
H	-0.27167	-1.045893	-1.855466
N	-0.4362	-1.192043	0.815955
O	-0.532184	-1.019849	2.023084
O	-0.531263	-2.266831	0.234785
C	-0.197059	1.023142	-2.223975
N	0.090024	1.931793	-2.912867
F	-2.595114	0.009615	0.112021
