18

C	-0.487015	-0.011827	-1.451871
C	0.0	0.0	0.0
Br	0.354091	1.464395	-2.434489
H	1.092883	0.0	0.0
N	0.039124	-1.282333	-2.152762
O	-0.717881	-1.822857	-2.962869
O	1.168732	-1.652311	-1.879609
C	-1.983834	0.056521	-1.656926
H	-2.444165	-0.803656	-1.163277
H	-2.367624	0.978066	-1.219661
H	-2.234666	0.026716	-2.715368
C	-0.463909	-1.237325	0.608466
N	-0.863686	-2.229101	1.102059
C	-0.499399	1.195733	0.804181
H	-0.176397	2.123659	0.329678
H	-1.587773	1.213645	0.936018
H	-0.032864	1.151251	1.790669
F	2.528549	0.0	0.0
