18

C	-0.544273	0.005629	-1.419324
C	0.0	0.0	0.0
Br	0.400091	1.360584	-2.482284
H	1.092865	0.0	0.0
N	-0.1932	-1.320851	-2.114525
O	0.737952	-1.970033	-1.663507
O	-0.867089	-1.625819	-3.097186
C	-2.035145	0.23127	-1.554005
H	-2.341397	0.210439	-2.59748
H	-2.291734	1.199052	-1.122204
H	-2.562356	-0.55753	-1.008055
C	-0.537657	-1.154696	0.69653
N	-1.013602	-2.071564	1.261464
C	-0.338829	1.274877	0.779806
H	0.042001	2.140844	0.235715
H	-1.405261	1.409738	0.990062
H	0.205157	1.226923	1.725191
F	2.520401	0.0	0.0
