18

C	-0.47901	-0.111947	-1.451425
C	0.0	0.0	0.0
Br	0.033609	1.478137	-2.457927
H	1.106109	0.0	0.0
N	0.252732	-1.312388	-2.074126
O	-0.228252	-2.40103	-1.756022
O	1.228922	-1.146485	-2.787821
C	-1.970807	-0.328098	-1.641133
H	-2.508215	0.538878	-1.25302
H	-2.281821	-1.221467	-1.097944
H	-2.214387	-0.443616	-2.699823
C	-0.518454	-1.110529	0.776897
N	-0.943138	-1.963161	1.469196
C	-0.378048	1.315466	0.688439
H	0.228133	2.118687	0.272104
H	-1.44025	1.574923	0.61449
H	-0.117015	1.224481	1.744401
F	2.516225	0.0	0.0
