18

C	-0.254585	0.225454	-1.49009
C	0.0	0.0	0.0
Br	0.018253	-1.429626	-2.487264
H	1.10819	0.0	0.0
N	-1.714867	0.619453	-1.698672
O	-1.944578	1.796569	-1.981595
O	-2.573262	-0.224899	-1.464936
C	0.704094	1.26423	-2.03423
H	1.692968	0.947739	-1.680654
H	0.470128	2.244176	-1.619166
H	0.649768	1.323846	-3.121306
C	-0.567019	-1.222042	0.533911
N	-1.013342	-2.172301	1.065024
C	-0.442206	1.196016	0.850206
H	-1.524886	1.36423	0.825899
H	0.072911	2.099984	0.524001
H	-0.145402	1.005321	1.883467
F	2.5812	0.0	0.0
