18

C	-0.237397	0.025921	-1.505097
C	0.0	0.0	0.0
Br	0.006562	-1.767251	-2.259764
H	1.09761	0.0	0.0
N	-1.679483	0.383412	-1.865755
O	-2.564754	-0.048073	-1.133262
O	-1.86694	1.079046	-2.863409
C	0.746246	0.962776	-2.176455
H	1.719729	0.728945	-1.723193
H	0.743276	0.83716	-3.257568
H	0.479044	1.997886	-1.950265
C	-0.562571	-1.134017	0.703299
N	-0.987174	-2.014202	1.357597
C	-0.400347	1.315539	0.678251
H	0.189952	2.133451	0.264032
H	-1.467861	1.53804	0.591699
H	-0.145116	1.243524	1.736982
F	2.595385	0.0	0.0
