18

C	-0.327873	-0.207668	-1.465858
C	0.0	0.0	0.0
Br	-2.280026	-0.450785	-1.806872
H	1.107204	0.0	0.0
N	0.006309	1.036193	-2.291238
O	-0.388231	2.119628	-1.875036
O	0.606289	0.870353	-3.350195
C	0.44198	-1.39136	-2.004539
H	0.102192	-2.292821	-1.494623
H	0.31026	-1.504886	-3.078261
H	1.487438	-1.199051	-1.738792
C	-0.400172	-1.202731	0.712054
N	-0.715423	-2.160555	1.317456
C	-0.511704	1.228246	0.749814
H	-1.585678	1.387942	0.617006
H	-0.305715	1.077358	1.812345
H	0.025456	2.116918	0.427707
F	2.545494	0.0	0.0
