16

C	0.0	0.0	0.0
C	-0.522967	0.078073	-1.430113
F	1.353801	0.0	0.0
H	-1.570069	-0.239137	-1.423024
C	-0.472847	1.021003	0.936416
N	-0.642968	1.86878	1.732736
N	-0.358936	-1.380696	0.598174
O	-0.003041	-1.515013	1.764049
O	-0.857517	-2.227028	-0.122231
N	0.300581	-0.70431	-2.292794
H	-0.187319	-0.901224	-3.154885
H	1.186433	-0.252838	-2.479455
N	-0.540013	1.523344	-1.89737
O	-1.263616	1.762502	-2.858566
O	0.257211	2.312587	-1.385438
Br	-3.501216	0.0	0.0
