15

C	-0.572824	0.011979	-1.592161
C	0.121246	-0.018683	-0.230638
Br	-2.54177	0.051268	-1.435685
H	1.195677	-0.037473	-0.456602
H	-0.3726	-0.903862	-2.154661
C	-0.17681	1.160235	-2.399904
N	0.165402	2.037642	-3.102087
C	-0.172195	-1.286109	0.567388
H	-1.223273	-1.319506	0.872473
H	0.065412	-2.204265	0.013758
H	0.478126	-1.175829	1.442634
N	-0.093449	1.211074	0.503203
H	0.624286	1.091521	1.27232
H	-1.008797	1.150594	0.943122
F	1.710326	0.275502	2.109138
