15

C	-0.568998	0.016366	-1.594163
C	0.122559	-0.018509	-0.231427
Br	-2.538081	0.063911	-1.440878
H	1.197239	-0.041495	-0.455699
H	-0.371935	-0.899645	-2.15747
C	-0.166389	1.163772	-2.399763
N	0.184211	2.036813	-3.103281
C	-0.177837	-1.284926	0.565264
H	0.471573	-1.178586	1.441607
H	-1.22946	-1.313093	0.869144
H	0.055666	-2.204208	0.011766
N	-0.088196	1.211706	0.502843
H	-1.004062	1.154195	0.942142
H	0.628338	1.088785	1.272652
F	1.709639	0.267114	2.110548
