15

C	-0.494068	-0.06498	-1.462239
C	0.03795	-0.147755	-0.015938
Br	0.313302	1.38924	-2.489195
H	1.125531	-0.269563	-0.058136
H	-1.563437	0.17184	-1.429968
C	-0.32553	-1.299686	-2.221459
N	-0.195986	-2.313612	-2.802375
C	-0.639488	-1.338554	0.667791
H	-1.726023	-1.192476	0.701199
H	-0.283101	-1.366141	1.698408
H	-0.424846	-2.299283	0.18861
N	-0.164328	1.075084	0.730258
H	0.796466	1.534771	0.634381
H	-0.884497	1.646911	0.301262
F	2.280438	1.547242	0.268689
