15

C	-0.651377	-0.146347	-1.598381
C	0.090076	-0.078085	-0.260076
Br	-0.442246	-1.877442	-2.528623
H	1.150308	-0.29197	-0.456936
H	-0.215809	0.596808	-2.265966
C	-2.07909	0.115062	-1.455444
N	-3.226076	0.331229	-1.318314
C	-0.389415	-1.054807	0.803244
H	-0.282136	-2.103197	0.507587
H	-1.438548	-0.864275	1.060257
H	0.256882	-0.826807	1.655195
N	0.034016	1.315802	0.156277
H	-0.842011	1.447749	0.65856
H	0.803112	1.303233	0.902291
F	1.809224	0.65753	1.868647
