15

C	-0.633502	-0.050784	-1.617713
C	0.091933	-0.05964	-0.268753
Br	-0.412935	-1.72609	-2.642536
H	1.150188	-0.262071	-0.464025
H	-0.189974	0.729175	-2.236285
C	-2.062809	0.202997	-1.477195
N	-3.211309	0.411741	-1.341252
C	-0.400873	-1.094905	0.7313
H	0.234902	-0.916031	1.602682
H	-1.453147	-0.918769	0.985607
H	-0.289709	-2.124864	0.377892
N	0.030306	1.308345	0.225747
H	0.790213	1.252904	0.979075
H	-0.851741	1.411625	0.724175
F	1.784215	0.551844	1.919261
