14

C	0.0	0.0	0.0
C	-0.50577	0.305369	-1.406261
Cl	1.774751	0.0	0.0
H	-1.565411	0.036836	-1.407183
H	0.043491	-0.341131	-2.092074
C	-0.434497	0.952392	1.013777
N	-0.658707	1.705579	1.887178
N	-0.395728	-1.418878	0.4206
O	-0.548278	-1.634396	1.6125
O	-0.436787	-2.239542	-0.486745
N	-0.281561	1.717445	-1.673725
H	0.239442	1.849514	-2.528253
H	-1.173834	2.188857	-1.749561
Br	-3.60326	0.0	0.0
