14

C	0.0	0.0	0.0
C	-0.57067	0.077735	-1.413688
Cl	1.763218	0.0	0.0
H	0.095856	-0.484291	-2.070876
H	-1.546722	-0.408414	-1.369006
C	-0.443242	1.076153	0.880512
N	-0.660017	1.984405	1.593385
N	-0.373955	-1.349414	0.631021
O	-0.508694	-1.386703	1.844169
O	-0.406457	-2.297887	-0.141846
N	-0.643473	1.479021	-1.809236
H	-1.539257	1.81981	-1.467025
H	-0.676778	1.527424	-2.819433
Br	-3.611557	0.0	0.0
