14

C	0.0	0.0	0.0
C	-0.452867	0.287108	-1.463057
Cl	1.771872	0.0	0.0
H	0.175577	-0.359674	-2.080222
H	-0.146386	1.322055	-1.651719
C	-0.49466	0.957589	0.973
N	-0.79217	1.832675	1.699403
N	-0.407466	-1.414281	0.423937
O	-0.609555	-1.601525	1.614657
O	-0.425754	-2.251978	-0.467723
N	-1.817158	0.096389	-1.815235
H	-2.497524	0.615511	-1.264733
H	-2.098112	-0.871321	-1.74196
Br	-4.581214	0.0	0.0
