14

C	0.0	0.0	0.0
C	-0.48989	0.207346	-1.456485
Cl	1.765962	0.0	0.0
H	0.054228	-0.529958	-2.050781
H	-0.117531	1.19769	-1.739192
C	-0.482	1.024528	0.914531
N	-0.806893	1.929817	1.589701
N	-0.422642	-1.377325	0.520421
O	-0.621841	-1.481699	1.722581
O	-0.460898	-2.271904	-0.313888
N	-1.883939	0.102999	-1.713634
H	-2.485365	0.719204	-1.173349
H	-2.247258	-0.826775	-1.553021
Br	-4.701562	0.0	0.0
