14

C	0.0	0.0	0.0
C	-0.474318	0.159678	-1.466603
Cl	1.788512	0.0	0.0
H	-0.155193	1.165809	-1.760488
H	0.119854	-0.554274	-2.041505
C	-0.489441	1.037059	0.890641
N	-0.836799	1.948125	1.54596
N	-0.401547	-1.370581	0.550107
O	-0.636985	-1.444414	1.74802
O	-0.391284	-2.290768	-0.256306
N	-1.855604	-0.033715	-1.746181
H	-2.510251	0.536978	-1.216763
H	-2.149221	-0.98777	-1.59071
Br	-4.656217	0.0	0.0
