15

C	-0.547197	0.003734	-1.422313
C	0.0	0.0	0.0
Br	0.115458	-1.610353	-2.306873
H	1.091656	0.0	0.0
H	-1.633593	-0.108494	-1.407483
C	-0.131578	1.235385	-2.207999
H	-0.473157	1.156198	-3.241626
H	0.953182	1.353397	-2.20086
H	-0.588177	2.126683	-1.768095
C	-0.523317	-1.087485	0.799196
N	-0.936968	-1.973741	1.45791
N	-0.428607	1.305875	0.627665
O	-1.6347	1.472279	0.814307
O	0.454055	2.118817	0.880588
Br	2.753738	0.0	0.0
