15

C	-0.468885	-0.002494	-1.438091
C	0.0	0.0	0.0
Br	-2.42723	0.180625	-1.528734
H	1.096196	0.0	0.0
H	-0.081095	0.900437	-1.913833
C	-0.036357	-1.251405	-2.184916
H	-0.475776	-2.14483	-1.737613
H	-0.344859	-1.199824	-3.231009
H	1.053279	-1.334336	-2.142845
C	-0.491923	-1.126075	0.762404
N	-0.840633	-2.095782	1.334115
N	-0.39571	1.292414	0.647121
O	0.065353	2.298014	0.108367
O	-1.048081	1.268103	1.689965
Br	2.743074	0.0	0.0
