15

C	-0.500952	0.048608	-1.448785
C	0.0	0.0	0.0
Br	-0.050785	-1.645577	-2.307662
H	1.091772	0.0	0.0
H	-1.592203	0.095106	-1.457436
C	0.140597	1.203641	-2.198192
H	-0.132213	1.168825	-3.25398
H	-0.205606	2.156154	-1.785742
H	1.227323	1.151031	-2.093572
C	-0.55284	-1.111394	0.762102
N	-1.010928	-1.995757	1.384525
N	-0.485932	1.281791	0.640184
O	-1.698469	1.364963	0.84278
O	0.337585	2.161354	0.855235
Br	3.418742	0.0	0.0
