13
Coordinates from ORCA-job run
  C   -0.19800048878531      0.33902475435388      0.05060517644318
  C   1.11652895170066      0.08322675860002      0.07272713299688
  H   1.86212094000586      0.83842511114575      0.27872048177589
  C   -1.36164060821202     -0.56281565860881     -0.15410104159092
  H   -2.15490275880827     -0.30490577671949      0.54825665211648
  H   -1.06987421614071     -1.60199015961719     -0.02983821007772
  H   -1.76061382399518     -0.43248268754832     -1.16226652004673
  N   -0.54010533402512      1.77775051646687      0.21356539194209
  O   0.29654591517625      2.53143573879792      0.70219375108904
  O   -1.65858483026512      2.10531554530377     -0.17866985954147
  N   1.66756896374627     -1.25345039191509     -0.07976794258759
  O   1.08476218060393     -2.06568419402232     -0.79666529386833
  O   2.71619510899875     -1.45284955623698      0.53324028134918
