13
Coordinates from ORCA-job run
  C   -0.19520255845620      0.34437619936504     -0.00090878821925
  C   1.09381120056692      0.07028487873157      0.23838878188622
  H   1.83000903438307      0.83261494105869      0.45180652331999
  C   -1.32848377204801     -0.54679556618810     -0.36230429892485
  H   -1.97296040822261     -0.69964181715180      0.50594496197442
  H   -1.93170544599505     -0.07732224723280     -1.14001507554815
  H   -0.96586137876173     -1.51454750383041     -0.69752948833173
  N   -0.55433729835671      1.77777439376803      0.17348084858056
  O   -1.74985484500332      2.00865501525445      0.34542998621765
  O   0.34085940973931      2.61731869022405      0.15038327104087
  N   1.65343653803546     -1.26768763776877      0.13664443886167
  O   2.83016950082466     -1.30953122795604     -0.22205855675119
  O   0.95012002329421     -2.23649811827391      0.41973739589379
