13
Coordinates from ORCA-job run
  C   -0.30710829902277     -0.00871601239229      0.06812682466153
  C   0.73839153515186     -0.77502126299895     -0.25234623196678
  H   0.65605676717449     -1.84287000654279     -0.40583043944207
  C   -1.69180445549028     -0.50081578737413      0.30862310262853
  H   -1.99079756061560     -0.26453223635675      1.33268586775749
  H   -1.75848685721102     -1.57765655965203      0.15414431305664
  H   -2.38497240670178      0.00087012205196     -0.37207349664749
  N   -0.18284910527212      1.44753663740992      0.22881026618177
  O   -0.19626442074604      2.11620196504306     -0.79789368414355
  O   -0.16353277913246      1.85431397003892      1.38475585907428
  N   2.08191387079586     -0.26762169762953     -0.48686943729791
  O   2.84106177539527     -1.04555767123954     -1.06434990606920
  O   2.35939193567458      0.86386853964215     -0.09878303779326
