13
Coordinates from ORCA-job run
  C   -0.30972644157395      0.01138408278296      0.05367944847446
  C   0.74035477205694     -0.81255123478971      0.01367208588806
  H   0.67052889515549     -1.86176677017429      0.26850752622462
  C   -1.70229439302729     -0.38882430595290      0.39731444026761
  H   -2.36142713738392     -0.18135731067782     -0.44913895124349
  H   -2.05365945772119      0.19459109676876      1.25271116431422
  H   -1.75670635186411     -1.44914648356052      0.64360949394155
  N   -0.18705259742663      1.44373547452644     -0.25498680757156
  O   -0.58377419382435      1.78447729572350     -1.36328092371447
  O   0.21710384306763      2.16640508180282      0.64818973400605
  N   2.09399902230785     -0.39662758622747     -0.32107587531849
  O   2.25754504118248      0.69559469138337     -0.85792525676026
  O   2.97610899905106     -1.20491403160515     -0.03227607850831
