13
Coordinates from ORCA-job run
  C   -0.30566080408754      0.00844652248002      0.06721534886092
  C   0.78644352544859     -0.75963730379442      0.09839683545205
  H   0.77556928569233     -1.77530308036572      0.47113607842044
  C   -1.65797776964057     -0.40855009238521      0.53143533424630
  H   -1.64832619528483     -1.43414684853713      0.90010678198619
  H   -1.99272624224114      0.25675447683421      1.33164287868610
  H   -2.36916406852525     -0.33148730620698     -0.29514643273455
  N   -0.28139448539799      1.38721982667581     -0.44211606833151
  O   -0.55447599271864      1.52788000076685     -1.62812568207249
  O   -0.07928744476958      2.26501284427191      0.38828676348170
  N   2.10239853921748     -0.34094265709390     -0.36004548968605
  O   2.23585424941273      0.79299902714650     -0.81181626567418
  O   2.98874740289442     -1.18824540979194     -0.24997008263493
