13
Coordinates from ORCA-job run
  C   -0.22410014223781      0.31331565068104     -0.09462800662352
  C   1.01340389776246     -0.02254518239461     -0.48114561244107
  H   1.59338283125561      0.56163275959903     -1.18187481273391
  C   -1.18393124709315     -0.38153726206966      0.80283408313907
  H   -0.89278984261297     -1.41795849226491      0.94990786824667
  H   -1.20852630818777      0.11271601767067      1.77633259687179
  H   -2.18782672544130     -0.32617200782152      0.38087364932794
  N   -0.69048313177916      1.62508157124050     -0.61897442980668
  O   -0.12106848578324      2.10670195331143     -1.59390963025820
  O   -1.62370523651847      2.14048111862900     -0.00612745834921
  N   1.66423182549385     -1.25659786345201     -0.07186597476538
  O   1.42154503949031     -1.72325457939994      1.04021448230945
  O   2.44086752565163     -1.73086368372903     -0.90063675491696
