13
Coordinates from ORCA-job run
  C   -0.22322273466207      0.31453012977768     -0.08942760996549
  C   1.03025523601312      0.00221723786285     -0.44358634716119
  H   1.62994374502719      0.61780974574846     -1.09937426198438
  C   -1.21037984443926     -0.41984308421069      0.74444326100998
  H   -2.19713257538048     -0.36001350960603      0.28421209205048
  H   -0.91348225181653     -1.45755247219514      0.86859176695747
  H   -1.27990111530723      0.04151798543002      1.73180054571812
  N   -0.67964326630806      1.64378336407958     -0.57806135109225
  O   -1.63962654033562      2.12827458994838      0.01852324981258
  O   -0.07782882209716      2.16800053116644     -1.51072097815177
  N   1.67654334222709     -1.24316747109177     -0.06274948120797
  O   1.39421880417307     -1.76152366062826      1.01660733395858
  O   2.49125602290593     -1.67303338628154     -0.87925821994416
