13
Coordinates from ORCA-job run
  C   -0.31209477686584      0.00399924090364      0.04167245286393
  C   0.74432836439618     -0.80757578139187     -0.05196529770755
  H   0.67252544874067     -1.87908976072131      0.07985545945238
  C   -1.71441120489044     -0.43606684853283      0.28130001059654
  H   -1.77196303823716     -1.51811257958981      0.39864012767038
  H   -2.34148540874925     -0.13117493419581     -0.56000739108527
  H   -2.10213178475512      0.04206897020400      1.18496091165284
  N   -0.18668398983907      1.46263162930293     -0.09376872294696
  O   0.18436745886974      2.07617754907906      0.89984479183368
  O   -0.54698653954820      1.92955497464267     -1.16807718184635
  N   2.10725345011331     -0.35196750105974     -0.28108652581748
  O   2.28369800726802      0.79141705359594     -0.69258288864503
  O   2.98358401349715     -1.18186201223686     -0.03978574602110
