13
Coordinates from ORCA-job run
  C   -0.30271630226154      0.01551967916203      0.08364529281137
  C   0.72388719105428     -0.82525474729976     -0.06547989940967
  H   0.63359664360546     -1.89204039753371      0.09101933167728
  C   -1.67237447587689     -0.37038085371112      0.52240818477582
  H   -2.40057731865739     -0.07296240106542     -0.23707410000046
  H   -1.74511261762212     -1.44596041129226      0.68286575525379
  H   -1.91861041368680      0.14992467898585      1.45117735825436
  N   -0.17160406563856      1.45724407348250     -0.17445980331447
  O   -0.25141600426809      1.81490303544971     -1.34362825581361
  O   -0.08031158377958      2.16843842492693      0.81946605342992
  N   2.05351780703283     -0.42392163022874     -0.49942053549377
  O   2.34537413931741      0.76859772831771     -0.47348897132357
  O   2.78734700078098     -1.34510717919373     -0.85703041084699
