13
Coordinates from ORCA-job run
  C   -0.21131912575201      0.31911391682203     -0.10170249029262
  C   0.90486914955336     -0.19299622140163     -0.63564947323627
  H   1.42757770021063      0.26351917630891     -1.46455588126617
  C   -1.02672202536168     -0.12529446991341      1.05902308719534
  H   -1.94350448436634     -0.60434248021597      0.70911945782907
  H   -1.31630810818398      0.74017536968558      1.65601427357620
  H   -0.47634630656493     -0.83719404241253      1.66779945583341
  N   -0.74153135420052      1.50688267770476     -0.82311852318887
  O   -1.92597099152781      1.76721368044442     -0.61911491405682
  O   0.00978779198150      2.12757945954232     -1.56932464821055
  N   1.58128503482268     -1.35887611534858     -0.09025111774731
  O   2.80506837363273     -1.35452436200326     -0.22098423067063
  O   0.91411434575636     -2.25025658921263      0.43274500423522
