13
Coordinates from ORCA-job run
  C   -0.29967896286361      0.01768036121780      0.09406726688917
  C   0.80191938129476     -0.73367812085994      0.16584325249404
  H   0.85533249242888     -1.63865210815191      0.75646068159747
  C   -1.59601152197535     -0.29339839744509      0.75753951882477
  H   -1.52781192051002     -1.21078105772730      1.34206400434200
  H   -1.87985962111874      0.53037071070389      1.41808279041148
  H   -2.37586311548465     -0.40593830009205      0.00045017693689
  N   -0.34050354864427      1.26659657412022     -0.68093241813735
  O   0.11413811922819      2.26535086298322     -0.13593850141281
  O   -0.90521237269412      1.19979265607057     -1.76655123384615
  N   2.05947962791519     -0.40639954798960     -0.48903633343798
  O   3.03638543855410     -1.04164558925306     -0.09269835294674
  O   2.05868600386963      0.44970195642325     -1.36935085171479
