13
Coordinates from ORCA-job run
  C   -0.19120213307503      0.34666075550118      0.01309312240806
  C   1.11752630127960      0.07539639896914     -0.07306219330343
  H   1.87607862872036      0.84117261017653     -0.15604775010905
  C   -1.36956624424578     -0.55721164927025      0.07565077142928
  H   -2.16223263131533     -0.17236250036023     -0.56685695616987
  H   -1.09806113821752     -1.56589650797721     -0.22322049450497
  H   -1.75954091174198     -0.59024510221148      1.09509530183170
  N   -0.50750799202763      1.79724994009228      0.10413338029365
  O   0.33778799299845      2.60913371327385     -0.26075569188366
  O   -1.61526571020476      2.07146899136943      0.56226035997812
  N   1.64276251637349     -1.27735062612620     -0.16306649669632
  O   2.67389479252978     -1.38766722208494     -0.82619205148919
  O   1.05732652892635     -2.18934880135209      0.41896869821569
