13
Coordinates from ORCA-job run
  C   -0.28601174394025      0.04787188347867      0.12189435132512
  C   0.71622154274532     -0.83223403125914      0.05831183646870
  H   0.66599393216336     -1.80969266336328      0.51952438832417
  C   -1.56431635992340     -0.15812314573756      0.85745695142745
  H   -1.66890472346305      0.60762373532911      1.62988079307730
  H   -2.40671757571767     -0.06147678026033      0.16708284173097
  H   -1.59618555414289     -1.14374733270163      1.32158152306398
  N   -0.21755891600383      1.35497181072369     -0.54786711345063
  O   0.01547669198775      2.31294450202894      0.18018848667066
  O   -0.48194083491768      1.37341841833433     -1.74409228862638
  N   1.95529336571658     -0.60903776701028     -0.67104437779942
  O   2.63508589293798     -1.61594486371363     -0.86835649791360
  O   2.23256428255778      0.53442623415112     -1.02256089429833
