13
Coordinates from ORCA-job run
  C   -0.19637333025814      0.33718983711059     -0.06655335365742
  C   0.99869756558028     -0.08175075637803     -0.50215576021799
  H   1.62156797920163      0.49855032201128     -1.16850204206015
  C   -1.20703765227782     -0.32856008563269      0.79651959138896
  H   -1.16778983776143      0.08846744357236      1.80501705702327
  H   -2.20656333631739     -0.14156588327447      0.40252363358568
  H   -1.01849886880694     -1.39681933210341      0.85688553910888
  N   -0.54072890852352      1.72365965384904     -0.48025822457276
  O   0.03739004721289      2.21128857810006     -1.44711852462697
  O   -1.38889599199531      2.28758698453269      0.20852998985011
  N   1.53883876154381     -1.39737187470948     -0.20129297925061
  O   2.27419360039640     -1.86521159937676     -1.07053700044060
  O   1.25319997200554     -1.93446328770117      0.86794207386960
