13
Coordinates from ORCA-job run
  C   -0.29741004551992      0.02313307385128      0.10018466056969
  C   0.68102148666242     -0.84903371823898     -0.15520123203261
  H   0.58192356677531     -1.91000853946564      0.03236704104407
  C   -1.64872152683013     -0.32933451318440      0.61718637892805
  H   -1.83441340426123      0.20036838540362      1.55550747117883
  H   -2.40833636708275     -0.01892615236513     -0.10430299484537
  H   -1.73543253629666     -1.40185042086896      0.79066767423084
  N   -0.12929018010338      1.46712795176499     -0.11999153710950
  O   0.44884507358577      2.09230098053736      0.76111933089968
  O   -0.66157368686087      1.91674514274227     -1.12809532257477
  N   1.99614052878540     -0.47938170695904     -0.65665163549724
  O   2.14938018150963      0.64153021039433     -1.13411112707812
  O   2.85786690963642     -1.35267069361172     -0.55867870771356
