13
Coordinates from ORCA-job run
  C   -0.30612663617262      0.00514435676790      0.07330000893299
  C   0.68985769486895     -0.79907228165192     -0.30642144391828
  H   0.54468004004101     -1.85046357796366     -0.51670918004583
  C   -1.71256854414808     -0.42281024151599      0.31023628478354
  H   -1.83983434344899     -1.48546100650443      0.10413914684131
  H   -2.38620827254506      0.14894630426114     -0.33380825826275
  H   -1.98472014924479     -0.22248382731712      1.34937409095949
  N   -0.09849665423933      1.44129702804340      0.31040906346547
  O   -0.03570913775886      1.78229086224025      1.48589280507696
  O   -0.09286454085351      2.16516011664720     -0.67828816200664
  N   2.05674357047371     -0.35590438615737     -0.53630292179707
  O   2.40080150890508      0.73848920101461     -0.09815665958221
  O   2.76444546412248     -1.14513254786400     -1.16166477444698
