16

C	0.0	0.0	0.0
C	-0.583677	0.119356	-1.428665
Cl	1.860372	0.0	0.0
H	0.249438	0.03369	-2.136481
H	-0.196338	0.903963	0.575921
N	-0.472856	-1.134923	0.672176
H	0.09973	-1.423628	1.448259
H	-0.703789	-1.86868	0.01562
C	-1.263044	1.484524	-1.556165
H	-0.59833	2.311201	-1.277149
H	-1.593101	1.642521	-2.589888
H	-2.142545	1.424703	-0.903009
N	-1.511292	-0.988833	-1.651704
H	-2.3515	-0.73541	-1.041942
H	-1.792654	-0.958332	-2.626105
F	-3.262784	0.0	0.0
