16

C	0.0	0.0	0.0
C	-0.47454	-0.256353	-1.427761
Cl	1.874464	0.0	0.0
H	0.170927	0.336136	-2.091767
H	-0.210679	1.026502	0.297185
N	-0.553277	-0.913368	0.879709
H	-0.538636	-1.851194	0.507688
H	-0.294379	-0.823881	1.846253
C	-1.923661	0.187221	-1.570566
H	-2.682969	-0.191812	-0.830276
H	-2.266907	-0.045932	-2.587893
H	-1.980942	1.274816	-1.463965
N	-0.32188	-1.69446	-1.69736
H	0.607557	-1.878592	-2.061252
H	-0.99973	-1.968659	-2.399439
F	-4.142407	0.0	0.0
