16

C	0.0	0.0	0.0
C	-0.41882	0.267614	-1.494942
Cl	1.840293	0.0	0.0
H	0.492829	0.199209	-2.097872
H	-0.230711	0.872731	0.618774
N	-0.552875	-1.221788	0.49031
H	-0.335779	-1.295691	1.48015
H	-1.573102	-0.995251	0.41323
C	-0.980038	1.68054	-1.584555
H	-0.263232	2.419466	-1.2085
H	-1.223017	1.916922	-2.623895
H	-1.892352	1.687548	-0.983974
N	-1.388302	-0.658449	-2.056317
H	-2.223341	-0.527487	-1.461679
H	-1.053831	-1.598584	-1.869365
F	-2.914841	0.0	0.0
