16

C	0.0	0.0	0.0
C	-0.43114	-0.118388	-1.515378
Cl	1.79218	0.0	0.0
H	0.479483	-0.32904	-2.087605
H	-0.25764	0.996072	0.375742
N	-0.558745	-1.064044	0.781736
H	-1.577921	-0.859541	0.664177
H	-0.3318	-0.889182	1.756314
C	-1.001825	1.223208	-1.95778
H	-1.91347	1.376596	-1.376194
H	-1.247885	1.184038	-3.024086
H	-0.289033	2.03842	-1.783699
N	-1.398235	-1.158078	-1.823966
H	-2.231904	-0.884514	-1.279145
H	-1.060792	-2.01987	-1.408245
F	-2.930544	0.0	0.0
