16

C	0.0	0.0	0.0
C	-0.405123	0.169474	-1.514164
Cl	1.840292	0.0	0.0
H	0.506549	0.024042	-2.102211
H	-0.234753	0.911602	0.558597
N	-0.553367	-1.188024	0.566383
H	-0.336125	-1.193336	1.558595
H	-1.573754	-0.966123	0.477365
C	-0.914394	1.590406	-1.710508
H	-0.173643	2.328852	-1.383009
H	-1.143313	1.758625	-2.766535
H	-1.828275	1.679203	-1.118968
N	-1.396804	-0.763841	-2.019071
H	-2.221324	-0.605708	-1.417578
H	-1.062042	-1.6994	-1.811981
F	-2.904785	0.0	0.0
