16

C	0.0	0.0	0.0
C	-0.412166	0.028586	-1.517797
Cl	1.855099	0.0	0.0
H	0.502597	-0.125127	-2.102285
H	-0.219005	0.962684	0.471889
N	-0.551762	-1.124284	0.679785
H	-1.573184	-0.910033	0.573934
H	-0.327317	-1.039605	1.666667
C	-0.985426	1.404678	-1.833977
H	-1.905581	1.496245	-1.252125
H	-1.216639	1.471495	-2.901138
H	-0.284028	2.204171	-1.570406
N	-1.374798	-0.980672	-1.928722
H	-1.037686	-1.877877	-1.591537
H	-2.211352	-0.760288	-1.36561
F	-2.90802	0.0	0.0
