16

C	0.0	0.0	0.0
C	-0.471828	0.294566	-1.415475
Cl	1.856637	0.0	0.0
H	-1.555772	0.385142	-1.244336
H	-0.215542	0.891992	0.595977
N	-0.578367	-1.207528	0.478572
H	-0.408632	-1.264207	1.478697
H	-1.607176	-0.951398	0.353841
C	-0.190084	-0.853666	-2.376415
H	-0.639541	-0.637961	-3.352322
H	-0.612584	-1.782346	-1.990841
H	0.887247	-0.994668	-2.517185
N	0.049965	1.592906	-1.854671
H	1.012284	1.476888	-2.157111
H	-0.484643	1.886148	-2.664604
F	-2.86314	0.0	0.0
