13

C	-0.704438	-0.010057	-1.535701
C	0.14249	0.012666	-0.283948
Br	-0.197863	1.657957	-2.707891
H	1.190028	0.197574	-0.526376
H	-0.414554	-0.823243	-2.196527
H	-0.174989	0.862285	0.347368
N	-2.081981	-0.030602	-1.269849
H	-2.346778	0.74729	-0.679418
H	-2.646855	-0.036768	-2.107181
N	0.070339	-1.290089	0.346634
H	0.863675	-1.194287	1.072464
H	-0.810722	-1.346475	0.846717
F	1.93813	-0.560459	1.894963
