13

C	-0.823222	-0.24377	-1.432787
C	0.083444	-0.107178	-0.211722
Br	-0.030531	0.868636	-3.006796
H	1.139207	-0.068542	-0.488879
H	-0.797132	-1.232023	-1.891589
H	-0.078944	-1.038555	0.357448
N	-2.121372	0.166005	-1.109269
H	-2.718037	0.272488	-1.917026
H	-2.015349	1.039957	-0.592572
N	-0.226127	1.094791	0.542544
H	0.763294	1.431465	0.823105
H	-0.684844	0.8188	1.403403
F	2.220885	1.370251	1.097007
