13

C	0.0	0.0	0.0
C	-0.529714	0.007782	-1.422604
F	1.372866	0.0	0.0
H	-1.645095	0.036865	-1.315591
H	-0.37449	-0.887936	0.507716
C	-0.414718	1.224386	0.7065
N	-0.54348	2.250752	1.261806
N	-0.200497	-1.291637	-2.105593
O	-0.08613	-1.269722	-3.327144
O	-0.136851	-2.290445	-1.396236
C	-0.022512	1.12103	-2.207246
N	0.362136	2.047315	-2.818641
Br	-3.446466	0.0	0.0
