13

C	0.0	0.0	0.0
C	-0.291355	0.206766	-1.520178
F	1.374525	0.0	0.0
H	-0.123902	-0.757102	-2.006617
H	-0.405062	-0.948324	0.341423
C	-0.412221	1.100476	0.88288
N	-0.46747	1.975004	1.665972
N	0.832794	1.097042	-2.051859
O	0.875323	2.238344	-1.61232
O	1.588646	0.605615	-2.883621
C	-1.49625	0.820254	-2.083345
N	-2.092241	1.37514	-2.939073
Br	-3.137275	0.0	0.0
