15

C	-0.609359	0.063569	-1.3735
C	0.0	0.0	0.0
F	0.023049	-0.859606	-2.20586
H	1.08935	0.0	0.0
H	-0.292221	-0.981707	0.403188
N	-2.012187	-0.113087	-1.38279
H	-2.225207	-1.011751	-0.970697
H	-2.353537	-0.073351	-2.335017
N	-0.342113	1.390468	-2.075213
O	0.556629	2.104324	-1.660017
O	-1.030269	1.610484	-3.076443
N	-0.490609	1.115527	0.81159
H	-1.0839	0.786466	1.558866
H	0.325555	1.553345	1.223902
H	2.9702	0.0	0.0
