15

C	-0.557346	0.013437	-1.401249
C	0.0	0.0	0.0
F	0.068383	-0.958608	-2.160292
H	1.094066	0.0	0.0
H	-0.377573	0.875424	0.526966
N	-1.964188	-0.130835	-1.429178
H	-2.259754	-0.400165	-2.359947
H	-2.170751	-0.867152	-0.759302
N	-0.264561	1.31943	-2.133458
O	-0.3392	1.277898	-3.35869
O	-0.062815	2.324941	-1.463922
N	-0.509507	-1.23573	0.639502
H	0.220281	-1.932324	0.517032
H	-0.557453	-1.06531	1.636059
H	2.968692	0.0	0.0
