15

C	-0.541412	-0.086209	-1.406675
C	0.0	0.0	0.0
F	-0.193604	-1.228125	-2.037587
H	1.093557	0.0	0.0
H	-0.323142	0.959087	0.425311
N	-1.963243	0.036684	-1.482963
H	-2.230275	0.950532	-1.142235
H	-2.264551	-0.063051	-2.446067
N	0.100248	1.058032	-2.238695
O	-0.166364	2.190128	-1.837685
O	0.75405	0.792997	-3.236247
N	-0.436728	-1.171985	0.753071
H	0.352822	-1.47382	1.306142
H	-1.204005	-0.959169	1.372164
H	2.932911	0.0	0.0
