15

C	-0.460835	0.031987	-1.432571
C	0.0	0.0	0.0
F	-1.787858	-0.43208	-1.544239
H	1.093013	0.0	0.0
H	-0.357474	-0.931083	0.450948
N	-0.321585	1.272244	-2.045943
H	0.093816	1.189009	-2.959883
H	0.184958	1.894202	-1.434844
N	0.279901	-1.074026	-2.215061
O	0.751426	-0.791833	-3.314982
O	0.298601	-2.182489	-1.699648
N	-0.420353	1.223571	0.67764
H	0.169315	1.335757	1.495219
H	-1.385746	1.154636	0.97714
H	2.940469	0.0	0.0
