14

C	-0.352999	-0.072099	-1.486765
C	0.0	0.0	0.0
Cl	-0.15166	1.695413	-2.090764
H	1.088742	0.0	0.0
H	-0.443498	0.86426	0.482343
N	0.489376	-0.98895	-2.124337
H	1.455873	-0.885992	-1.811659
H	0.412507	-0.971221	-3.131353
C	-1.766713	-0.369244	-1.75172
N	-2.898322	-0.603319	-1.963004
N	-0.507373	-1.203938	0.709109
O	0.092589	-2.263151	0.557056
O	-1.518284	-1.047756	1.401882
Br	3.450296	0.0	0.0
