14

C	-0.362803	-0.031874	-1.485694
C	0.0	0.0	0.0
Cl	-0.171506	1.684882	-2.160106
H	1.088848	0.0	0.0
H	-0.381209	-0.907459	0.4709
N	0.513919	-0.971457	-2.070653
H	1.482715	-0.790167	-1.796771
H	0.421775	-1.009185	-3.077244
C	-1.755284	-0.392991	-1.778133
N	-2.844216	-0.730425	-2.059992
N	-0.603982	1.143637	0.716325
O	-1.835995	1.19929	0.695432
O	0.134913	1.935409	1.290145
Br	3.481664	0.0	0.0
