14

C	-0.353388	-0.048457	-1.487644
C	0.0	0.0	0.0
Cl	-0.125833	1.718626	-2.068858
H	1.088762	0.0	0.0
H	-0.444931	0.856635	0.494816
N	0.475118	-0.974245	-2.135084
H	1.444962	-0.881784	-1.832186
H	0.388854	-0.953756	-3.141533
C	-1.770916	-0.32759	-1.756551
N	-2.902876	-0.545835	-1.98591
N	-0.510411	-1.216997	0.685209
O	0.116568	-2.265667	0.556068
O	-1.554069	-1.082454	1.330569
Br	3.45613	0.0	0.0
