14

C	-0.589943	-0.034498	-1.40659
C	0.0	0.0	0.0
Cl	0.191933	-1.257312	-2.446546
H	1.088099	0.0	0.0
H	-0.367308	0.892319	0.50963
N	-2.000476	-0.351846	-1.337689
H	-2.465894	0.286916	-0.702008
H	-2.421142	-0.280539	-2.256348
C	-0.335197	1.279434	-2.031116
N	-0.222668	2.356594	-2.488361
N	-0.51935	-1.149004	0.782577
O	-1.359305	-0.895056	1.650769
O	-0.097943	-2.265841	0.510764
Br	3.449819	0.0	0.0
