14

C	-0.353559	0.035054	-1.487297
C	0.0	0.0	0.0
Cl	-0.120221	1.773482	-2.087843
H	1.090147	0.0	0.0
H	-0.375213	-0.931218	0.42972
N	0.515113	-0.893203	-2.102471
H	0.430736	-0.886359	-3.109706
H	1.482511	-0.731133	-1.815959
C	-1.747117	-0.290521	-1.813245
N	-2.834678	-0.602875	-2.130871
N	-0.600703	1.104509	0.777758
O	-1.809008	1.283233	0.622197
O	0.118331	1.731592	1.545659
Br	3.47896	0.0	0.0
