17

C	0.0	0.0	0.0
C	-0.56731	0.390232	-1.35258
F	1.363258	0.0	0.0
H	-1.643952	0.546684	-1.173589
N	-0.333214	1.138065	0.984572
O	0.414479	1.208452	1.959435
O	-1.294079	1.857428	0.756362
C	-0.56	-1.272173	0.567117
H	-1.652154	-1.184367	0.602004
H	-0.278228	-2.109944	-0.073775
H	-0.148182	-1.427721	1.564998
C	-0.4027	-0.731076	-2.294256
N	-0.219613	-1.56365	-3.102592
N	0.061537	1.617402	-1.823895
H	-0.519892	2.036346	-2.538439
H	0.967778	1.408287	-2.223217
Cl	-3.890798	0.0	0.0
