17

C	0.0	0.0	0.0
C	-0.463729	0.265345	-1.470337
F	1.363528	0.0	0.0
H	-0.543157	-0.736702	-1.915317
N	-0.320095	1.230898	0.851239
O	-0.11299	2.317864	0.31564
O	-0.665297	1.060018	2.015295
C	-0.594549	-1.231682	0.602611
H	-0.27415	-2.09389	0.012976
H	-1.686064	-1.149536	0.574698
H	-0.267875	-1.35233	1.634048
C	0.612654	0.952176	-2.21452
N	1.425114	1.490472	-2.868065
N	-1.708278	0.943048	-1.713686
H	-1.672698	1.877173	-1.324414
H	-2.508707	0.466839	-1.281582
Cl	-4.181658	0.0	0.0
