17

C	0.0	0.0	0.0
C	-0.622273	-0.194721	-1.376593
F	1.367883	0.0	0.0
H	-1.713729	-0.194106	-1.184016
N	-0.305139	1.434184	0.481988
O	0.41323	2.313612	0.017782
O	-1.179635	1.585776	1.323962
C	-0.514336	-0.987838	1.008818
H	-0.081639	-0.767049	1.985184
H	-0.214616	-1.992522	0.703238
H	-1.603215	-0.915219	1.053919
C	-0.223011	-1.529532	-1.870167
N	0.12051	-2.549213	-2.34432
N	-0.309795	0.872713	-2.30671
H	-0.88645	0.774035	-3.132003
H	0.666018	0.845114	-2.574874
Cl	-3.796304	0.0	0.0
