15
Coordinates from ORCA-job run
  C   -0.61469011952942     -0.27475738998381     -0.07144263722118
  C   0.80215419120676      0.07436112416916      0.39370673690228
  Cl  -0.62332991797411     -1.94646926578120     -0.74834204283252
  H   0.73603163178365      1.04392324276824      0.90088493960017
  H   1.08033432880552     -0.66847109296982      1.14809375318966
  C   -1.03450478359878      0.63449568282405     -1.14058906763006
  N   -1.36537685626508      1.40365924404317     -1.96470664980854
  C   -1.61505186091392     -0.22628800592557      1.07808321065243
  H   -1.65458577411845      0.78590920882338      1.48806131319452
  H   -1.29952399214200     -0.91881121579539      1.86057220438295
  H   -2.61098210149839     -0.50980191158602      0.73635103176808
  C   1.84601693811371      0.13641740316094     -0.71307419949273
  H   2.82054242979964      0.39066705135013     -0.29114607604381
  H   1.59244089152578      0.89785692263191     -1.45375103763565
  H   1.93952499480508     -0.82269099772918     -1.22370147902560
