15
Coordinates from ORCA-job run
  C   -0.70010810556772     -0.48571664387994     -0.22231062857712
  C   0.82230171728965     -0.65883224033499     -0.24429805136156
  Cl  -1.44206298639358     -2.10964376200425     -0.47572414078561
  H   1.09223154024740     -1.14362179365768     -1.18664191163211
  H   1.07741458869884     -1.35737349982955      0.55899332338323
  C   -1.12378574309289      0.36809979202668     -1.33487111320736
  N   -1.42999522393258      1.09075619961244     -2.20913330513646
  C   -1.22406130157936      0.07503934610685      1.09455264628858
  H   -0.85785052930302      1.09202358082209      1.24550788683416
  H   -0.88448684961028     -0.55738051495018      1.91727334098816
  H   -2.31422845261990      0.09481549582640      1.09210287507833
  C   1.58903793354198      0.65076687974845     -0.08639524083139
  H   2.65943064772752      0.46284428094161     -0.19377649974494
  H   1.43295284538108      1.10123263085786      0.89552106127969
  H   1.30220991921287      1.37699024871421     -0.85080024257562
