15
Coordinates from ORCA-job run
  C   -0.70868971946154     -0.47132583077779     -0.22265572052695
  C   0.81065850551499     -0.66507440915650     -0.26807263645310
  Cl  -1.47656394165064     -2.07951925533896     -0.50002307344457
  H   1.06218340082146     -1.13619273526399     -1.22222267100677
  H   1.06662258525227     -1.38113702863701      0.51924238455945
  C   -1.13556945858319      0.41117896604791     -1.31116336410942
  N   -1.45826137348288      1.15898615577918     -2.15797259424675
  C   -1.20765488584664      0.06840008070663      1.11248932247296
  H   -0.86670024036941     -0.58674308764603      1.91676474003525
  H   -2.29733881254578      0.10414901415979      1.12515832223007
  H   -0.82472176667765      1.07651877049351      1.28089204075417
  C   1.59794281818466      0.63074818488643     -0.09767302971376
  H   2.66443162838299      0.42885441200429     -0.21722941482027
  H   1.31546060308393      1.37175287154667     -0.84909168446257
  H   1.45720065737744      1.06940389119586      0.89155737873227
