14

C	-0.435988	0.000134	-1.462476
C	0.0	0.0	0.0
Br	-2.427666	0.160613	-1.60322
H	1.095859	0.0	0.0
H	-0.336058	0.944284	0.438787
C	0.095809	1.14746	-2.19702
N	0.497612	2.068415	-2.806808
C	-0.091029	-1.24316	-2.151411
N	0.175378	-2.239867	-2.714587
C	-0.49553	-1.199933	0.790922
H	-0.125267	-2.130291	0.353914
H	-0.089843	-1.136743	1.802768
H	-1.585652	-1.244372	0.853111
Br	3.507099	0.0	0.0
