14

C	-0.51322	-0.051863	-1.444004
C	0.0	0.0	0.0
Br	0.067845	-1.721796	-2.300818
H	1.092907	0.0	0.0
H	-0.342897	-0.915863	0.490897
C	-1.979196	-0.037467	-1.484122
N	-3.15377	0.001722	-1.471141
C	-0.028017	1.066406	-2.255891
N	0.280274	1.986752	-2.921013
C	-0.502292	1.238051	0.736517
H	-0.187869	2.15244	0.226878
H	-1.590522	1.250483	0.849602
H	-0.049422	1.25206	1.730188
Br	3.573256	0.0	0.0
