19

C	-0.567498	0.008644	-1.419333
C	0.0	0.0	0.0
Br	0.395726	1.392569	-2.418103
H	1.088955	0.0	0.0
N	-0.202408	-1.290133	-2.143302
O	-0.904234	-1.600793	-3.10212
O	0.777292	-1.896953	-1.741573
C	-2.05159	0.270706	-1.55637
H	-2.6085	-0.513439	-1.043337
H	-2.329683	0.277787	-2.607919
H	-2.289126	1.241734	-1.121751
N	-0.441951	-1.228542	0.740135
O	-1.243193	-1.999532	0.203773
O	0.005011	-1.369528	1.872376
C	-0.442708	1.195374	0.837517
H	0.128392	1.182608	1.765084
H	-0.21038	2.12041	0.310206
H	-1.510685	1.164584	1.071202
Cl	3.302152	0.0	0.0
