19

C	-0.374579	-0.055854	-1.485633
C	0.0	0.0	0.0
Br	0.099863	-1.799855	-2.195857
H	1.094355	0.0	0.0
N	-1.870622	0.1854	-1.718862
O	-2.226585	1.344271	-1.505149
O	-2.604613	-0.72029	-2.084962
C	0.410808	0.995747	-2.252337
H	0.121079	1.992647	-1.920358
H	0.213165	0.904216	-3.322096
H	1.473398	0.836386	-2.051919
N	-0.529129	-1.194961	0.719771
O	0.254292	-1.910358	1.331414
O	-1.753313	-1.351031	0.673845
C	-0.467237	1.224121	0.775314
H	-1.551803	1.275461	0.854161
H	-0.02499	1.161182	1.772282
H	-0.092685	2.133218	0.308056
Cl	3.341611	0.0	0.0
