16

C	-0.414744	0.041791	-1.458612
C	0.0	0.0	0.0
Cl	0.221386	-1.505983	-2.261914
H	1.088156	0.0	0.0
C	-1.864945	0.042163	-1.689977
N	-3.013547	0.091047	-1.933482
N	0.176607	1.205547	-2.006524
H	0.075688	1.220226	-3.014572
H	1.163963	1.224258	-1.741728
N	-0.52632	-1.116703	0.778626
O	-0.086385	-1.186144	1.929896
O	-1.30266	-1.921793	0.254471
N	-0.423036	1.248827	0.691735
O	-1.506393	1.233956	1.28066
O	0.339933	2.206186	0.620412
H	2.492558	0.0	0.0
