16

C	-0.51583	-0.025353	-1.432616
C	0.0	0.0	0.0
Cl	0.054998	1.4392	-2.310653
H	1.0883	0.0	0.0
C	0.105124	-1.159718	-2.155784
N	0.494728	-2.049682	-2.81881
N	-1.957107	-0.021058	-1.483303
H	-2.257933	-0.11061	-2.448462
H	-2.272035	-0.835645	-0.964756
N	-0.385146	-1.152136	0.75241
O	0.029498	-1.181681	1.924348
O	-0.927114	-2.11998	0.165731
N	-0.424981	1.218817	0.731061
O	0.286	2.213473	0.589939
O	-1.449083	1.15956	1.413662
H	2.362958	0.0	0.0
