16

C	-0.527355	-0.022597	-1.428074
C	0.0	0.0	0.0
Cl	0.10407	1.396394	-2.339993
H	1.088266	0.0	0.0
C	0.030832	-1.195483	-2.138605
N	0.365742	-2.127751	-2.771583
N	-1.96665	0.051608	-1.462441
H	-2.285669	-0.028106	-2.422334
H	-2.316261	-0.741518	-0.932339
N	-0.395118	-1.151768	0.756525
O	0.057641	-1.201787	1.912538
O	-1.005614	-2.087641	0.189853
N	-0.420681	1.219072	0.729934
O	-1.400884	1.148907	1.473461
O	0.250261	2.228835	0.525859
H	2.369746	0.0	0.0
