16

C	-0.323102	-0.06044	-1.477
C	0.0	0.0	0.0
Cl	-2.100316	-0.285518	-1.822826
H	1.092502	0.0	0.0
C	0.054506	1.20072	-2.147572
N	0.408674	2.085344	-2.83746
N	0.403383	-1.182492	-1.995086
H	1.349524	-1.148144	-1.596248
H	0.455067	-1.120427	-3.004926
N	-0.446264	-1.219246	0.708636
O	0.298024	-2.194995	0.635635
O	-1.522493	-1.177473	1.308841
N	-0.479373	1.170663	0.715315
O	-0.197928	1.199913	1.916866
O	-1.026086	2.083344	0.084748
H	2.457565	0.0	0.0
