16

C	-0.372423	-0.037448	-1.463706
C	0.0	0.0	0.0
Cl	-2.168057	-0.048427	-1.750727
H	1.092522	0.0	0.0
C	0.143415	1.155782	-2.166249
N	0.611728	1.978222	-2.865265
N	0.181674	-1.253945	-1.993344
H	0.168943	-1.219508	-3.005671
H	1.146879	-1.323625	-1.662158
N	-0.451564	-1.221494	0.703102
O	0.304408	-2.189608	0.650813
O	-1.542518	-1.19235	1.2751
N	-0.427829	1.174261	0.732256
O	-0.222255	1.14846	1.950184
O	-0.816256	2.16116	0.092435
H	2.435908	0.0	0.0
