16

C	-0.435806	-0.045513	-1.448817
C	0.0	0.0	0.0
Cl	-2.283152	0.399132	-1.561442
H	1.107999	0.0	0.0
C	0.214171	0.990999	-2.263518
N	0.690703	1.701932	-3.069367
N	-0.141637	-1.287924	-2.041347
H	-0.326355	-1.274589	-3.034551
H	-0.63668	-2.032785	-1.566769
N	-0.371405	-1.141511	0.79691
O	0.197353	-1.219136	1.894631
O	-1.128137	-2.022888	0.338119
N	-0.352882	1.250523	0.65791
O	-0.816538	1.255142	1.799465
O	-0.08836	2.262289	-0.004399
H	2.293417	0.0	0.0
