16

C	-0.526663	-0.052329	-1.42914
C	0.0	0.0	0.0
Cl	0.216239	1.243648	-2.434746
H	1.10176	0.0	0.0
C	-0.077267	-1.305863	-2.077011
N	0.193891	-2.260092	-2.707911
N	-1.957242	0.139904	-1.466007
H	-2.281897	0.061574	-2.424822
H	-2.367372	-0.610409	-0.917921
N	-0.397578	-1.150247	0.772219
O	0.125059	-1.240317	1.891409
O	-1.120598	-2.028637	0.25453
N	-0.419882	1.222499	0.704156
O	0.120285	2.263538	0.326375
O	-1.257199	1.140537	1.606402
H	2.362595	0.0	0.0
