16

C	-0.454346	0.13382	-1.445073
C	0.0	0.0	0.0
Cl	0.152073	1.816438	-1.988769
H	1.110152	0.0	0.0
C	0.266931	-0.774013	-2.349611
N	0.735104	-1.423091	-3.210008
N	-1.846355	-0.041393	-1.620575
H	-2.339204	0.614301	-1.026674
H	-2.112167	0.074693	-2.590723
N	-0.374681	-1.26647	0.57615
O	-0.738703	-1.318383	1.760418
O	-0.179312	-2.251425	-0.152313
N	-0.466801	1.085851	0.867732
O	-1.508825	1.694664	0.577239
O	0.235548	1.332915	1.847249
H	2.3454	0.0	0.0
