16

C	-0.528343	0.117576	-1.437744
C	0.0	0.0	0.0
Cl	0.54397	1.243162	-2.353168
H	1.109834	0.0	0.0
C	-0.386495	-1.194297	-2.091742
N	-0.304135	-2.247168	-2.603836
N	-1.891762	0.57197	-1.615085
H	-1.932735	1.4866	-1.17203
H	-2.475493	-0.061265	-1.074354
N	-0.41285	-1.307685	0.597304
O	0.435474	-2.005381	1.135387
O	-1.610354	-1.598265	0.49044
N	-0.424067	1.022112	0.867204
O	-0.391959	0.782232	2.097769
O	-0.604692	2.166961	0.372473
H	2.311462	0.0	0.0
