16

C	-0.457636	0.050029	-1.46403
C	0.0	0.0	0.0
Cl	-0.099254	1.723841	-2.04872
H	1.108929	0.0	0.0
C	0.381055	-0.84876	-2.274146
N	0.994822	-1.53723	-3.001581
N	-1.84384	-0.235335	-1.746039
H	-2.396868	0.325567	-1.105913
H	-1.982243	-1.212821	-1.50658
N	-0.427549	-1.161551	0.66168
O	-0.557164	-2.200089	-0.043963
O	-0.441105	-1.151016	1.915461
N	-0.457212	1.184501	0.774547
O	-1.670901	1.41437	0.7588
O	0.378109	1.8558	1.367074
H	2.313708	0.0	0.0
