16

C	-0.35943	0.134008	-1.467036
C	0.0	0.0	0.0
Cl	0.336481	-1.353962	-2.344817
H	1.102108	0.0	0.0
C	-1.795194	0.128031	-1.769307
N	-2.930827	0.203676	-2.061307
N	0.241118	1.335534	-1.912752
H	0.186529	1.411169	-2.920853
H	1.216458	1.342376	-1.604374
N	-0.54616	-1.159588	0.686776
O	-1.275703	-1.949555	0.077125
O	-0.166002	-1.288926	1.854679
N	-0.43007	1.206389	0.754
O	-1.537455	1.171537	1.297831
O	0.347196	2.156593	0.77422
H	2.465743	0.0	0.0
