16
Coordinates from ORCA-job run
  C   -0.47023232269732      0.56612380099469     -0.08891006945696
  C   0.63041380931698     -0.41960539204882      0.38740923287094
  Cl  0.26566280729135      1.82494878251756     -1.13588532588874
  H   0.14152559059449     -1.16748540654114      1.01511181074903
  C   -0.96285138440568      1.22061771110801      1.12649073961916
  N   -1.29428504637646      1.69457633906629      2.15086042155649
  C   -1.62341982738569     -0.08360563608425     -0.84284843375690
  H   -2.06225065977544     -0.87837789084376     -0.23902282941584
  H   -1.26932041867247     -0.51201205923051     -1.77672117118747
  H   -2.38539802569829      0.66363399911152     -1.06056855123186
  N   1.72919238610921      0.15794896638278      1.05049332038704
  H   1.95155442796409      1.10705844132814      0.78270470781635
  H   1.74743188057190      0.01228196907803      2.04580080406358
  N   1.09931372435627     -1.20650214179853     -0.83747220152133
  O   0.40529393219929     -2.17233075399836     -1.16040734531533
  O   2.09836912660778     -0.80627072904164     -1.41803510928816
