16
Coordinates from ORCA-job run
  C   -0.42737002696377      0.49575550921952     -0.55890554877051
  C   0.48517457143854     -0.63687907263454     -0.07019401813979
  Cl  -0.51744761925304      0.43706675550016     -2.34901618563507
  H   0.21437939885708     -1.54874965767326     -0.62175283312971
  C   0.05499691530699      1.80583444897988     -0.12577935068733
  N   0.35857416608783      2.86959528979134      0.26880866360507
  C   -1.83989718412347      0.27661497804070     -0.01618098970383
  H   -1.84394632967576      0.39791616378373      1.06746829280025
  H   -2.51318981585247      1.01359751917818     -0.45381226052538
  H   -2.19457951800011     -0.72025089969797     -0.29005260050306
  N   0.43370159261163     -0.74072083702327      1.36769819653131
  H   1.25952343831983     -1.23495604329594      1.68692923832127
  H   -0.37229417081252     -1.28680625333850      1.64479295896653
  N   1.94253140974750     -0.41180724208288     -0.43049113645488
  O   2.71582325362396     -1.24995313935672      0.02633614322865
  O   2.24401991868777      0.53274248060958     -1.14684856990352
