16
Coordinates from ORCA-job run
  C   -0.40030819436683      0.64731056792024     -0.09594219401110
  C   0.54430914192696     -0.42073156537935      0.49719606728343
  Cl  0.52202641163466      1.89517702403608     -1.00567152009074
  H   -0.06510945423591     -1.06259834366569      1.13964712210683
  C   -1.03012748445229      1.31945211619226      1.04034726655803
  N   -1.48881159793198      1.83909043870978      1.98986304667083
  C   -1.45939505097200      0.05952043800262     -1.02501702543070
  H   -2.16295703735256      0.83940132025886     -1.31577756205245
  H   -1.99920226805157     -0.74220496201379     -0.51607197951085
  H   -0.98626248788761     -0.33974324535555     -1.92183415612419
  N   1.66563792210752      0.08412331763507      1.13776496092642
  H   1.99517035013008      1.00519511273895      0.92227355444865
  H   1.96029595908225     -0.32104131762793      2.00480689411483
  N   0.91207148110491     -1.38651013551174     -0.65717405426886
  O   0.24028423733265     -2.41352553520910     -0.73434630637582
  O   1.75237807193171     -1.00291523073071     -1.46006411424429
