16
Coordinates from ORCA-job run
  C   -0.47890500816363      0.37491309466145     -0.62207567491593
  C   0.43497096430989     -0.70766238453551     -0.00547315494500
  Cl  -0.63154298760169      0.13138971345319     -2.39155831914377
  H   0.20387993273728     -1.66279487999467     -0.48521443279539
  C   0.08133722643742      1.69997485899384     -0.35352585882261
  N   0.50672617256774      2.75219526204316     -0.04816360363115
  C   -1.88667849540068      0.27829499563688     -0.03379584467457
  H   -2.53669640055802      0.98670300530803     -0.54834072409592
  H   -1.87222919085337      0.49280165749987      1.03282660207775
  H   -2.27043914808018     -0.73212859353360     -0.18338680719850
  N   0.25162597244980     -0.80211346536709      1.39704087736477
  H   0.75453453693858     -1.59839217962417      1.76512400990789
  H   0.60199948548832      0.02658448050650      1.86544420409626
  N   1.92196480383020     -0.45292172566095     -0.37702145177154
  O   2.74360077583543     -0.82544380641367      0.45534736252118
  O   2.17485136006290      0.03959996702676     -1.46822718397346
