13
Coordinates from ORCA-job run
  C   0.75612543835487     -0.65182044951434     -0.55077383096156
  C   0.03999709305760      0.47736850505438      0.17540400442183
  F   -0.08047245005089     -1.23627852801797     -1.46349329538523
  H   0.73411354542760      1.08964803756948      0.75136912277683
  H   1.59155209696281     -0.20443754636493     -1.09758483046222
  C   1.27001280673915     -1.63606822348952      0.40719085236066
  N   1.73183975381783     -2.38930806964801      1.17973796964954
  N   -1.03906387114704      0.02710738915103      1.10476855468398
  O   -1.51594946461041     -1.08765689868646      0.92476380993052
  O   -1.36056242367191      0.85207716315588      1.95358993586683
  N   -0.57818328079526      1.37567683929222     -0.87232870585303
  O   0.24415501597422      1.92078351016632     -1.59675375100324
  O   -1.79456426005857      1.46290827133195     -0.91488983602490
