13
Coordinates from ORCA-job run
  C   0.66447806592872     -0.87260328198522     -0.49064074817605
  C   -0.51792277517268      0.08565966170717     -0.40834268068684
  F   0.15707493772460     -2.14982501036076     -0.48039442801721
  H   -1.14606505493974      0.00428590858340     -1.29481963319823
  H   1.16327259806315     -0.70442933516282     -1.44803402595534
  C   1.64164792843293     -0.68800764768619      0.58748358607448
  N   2.48859933847099     -0.52270598434885      1.38292438578253
  N   -0.00548808242542      1.50030457299231     -0.34414244821598
  O   -0.30860205128868      2.18580687230376      0.62016042484779
  O   0.68955818814692      1.81365284672230     -1.30383743928964
  N   -1.39233488893335     -0.16661424498075      0.77579707569789
  O   -2.57916666266706      0.09425475432984      0.60807482843721
  O   -0.85405154134038     -0.57877911211419      1.79577110269938
