13
Coordinates from ORCA-job run
  C   1.08202773206413     -0.33210108946959     -0.05242032229180
  C   -0.37281522541238      0.01453312731016     -0.32083175544950
  F   1.74036776980817     -0.22746528315951     -1.25879878721115
  H   -0.84915505412810     -0.65419597966810     -1.03495856490246
  H   1.51235959783501      0.38099876192990      0.65068008837798
  C   1.18686918965069     -1.70203444540276      0.45741534068414
  N   1.26066077986347     -2.80783766964848      0.84423885401365
  N   -0.45112864060383      1.40981778917567     -0.87589274082320
  O   -1.09399183774836      1.55316333976194     -1.90799725413175
  O   0.13074180758630      2.27192605979152     -0.22583509879230
  N   -1.18271774756038      0.01801874338042      0.94015863607354
  O   -0.56518906269387      0.08604454110264      1.99930828913191
  O   -2.39802930866087     -0.01186789510380      0.78493331532094
