13
Coordinates from ORCA-job run
  C   0.71229095984007     -0.68087595832693     -0.54095948916352
  C   0.02163264575816      0.42638778851572      0.24593234181283
  F   -0.20477004897928     -1.29963942392319     -1.35183438997930
  H   0.59644705598056      0.75257502430747      1.11243485739868
  H   1.48625666453138     -0.23815247451448     -1.17276071854295
  C   1.31570001889371     -1.66161306865043      0.36937859027477
  N   1.83920339186504     -2.43641993861313      1.07870702487094
  N   -1.30327975431925     -0.08744162375246      0.75254258906572
  O   -1.21704732925034     -0.79615927352148      1.74721516168471
  O   -2.30401250619366      0.20523393366499      0.11697042091016
  N   -0.24678490110188      1.64039977350688     -0.59351404281538
  O   -0.68416969726310      2.59921765404488      0.03083026215752
  O   -0.01246649976141      1.57648758726219     -1.79494260767416
