13
Coordinates from ORCA-job run
  C   0.51702950790157     -0.95821637512007     -0.31858094596066
  C   -0.26364344265584      0.13230891484516      0.39537435897065
  F   0.00768583548537     -2.16080578073734      0.12062911607930
  H   -0.17684930065987      0.08439894698448      1.47896348902884
  H   0.36837269105994     -0.88033081025706     -1.39571359968270
  C   1.93904676561081     -0.86127036838333      0.02345684746645
  N   3.07188025521091     -0.78524364608924      0.32149386985462
  N   -1.72149868464144      0.00580966336630      0.04663937717909
  O   -2.50900970200534      0.00832338578405      0.98403492459051
  O   -1.97687060790548     -0.07313102297581     -1.15024558933867
  N   0.15843803101856      1.49735897833058     -0.05645224489424
  O   0.74069484823693      1.56974370177911     -1.13538133909848
  O   -0.15527619665614      2.42005441247318      0.68678173580528
