12

C	-0.54088	-0.044008	-1.408363
C	0.0	0.0	0.0
F	0.212257	0.706483	-2.290966
H	1.088288	0.0	0.0
H	-1.559459	0.354234	-1.454669
H	-0.290885	-0.870441	0.587317
C	-0.569871	-1.43702	-1.895518
N	-0.650443	-2.539037	-2.291137
N	-0.460742	1.176328	0.70711
O	-0.400109	1.150692	1.943971
O	-0.781358	2.177897	0.044725
H	2.560167	0.0	0.0
