12

C	-0.53181	-0.147229	-1.410983
C	0.0	0.0	0.0
F	-0.543684	1.113626	-2.006122
H	1.088354	0.0	0.0
H	-1.561469	-0.515047	-1.410065
H	-0.333309	0.938984	0.438111
C	0.249954	-1.047221	-2.280278
N	0.76402	-1.750603	-3.066649
N	-0.443243	-1.088587	0.825011
O	-0.676355	-2.176296	0.259585
O	-0.445781	-0.929476	2.054276
H	2.535328	0.0	0.0
