12

C	-0.526476	-0.114138	-1.416102
C	0.0	0.0	0.0
F	-0.507996	1.15749	-1.987741
H	1.088269	0.0	0.0
H	-1.564111	-0.45963	-1.427896
H	-0.334211	0.93007	0.45631
C	0.242032	-1.014987	-2.296956
N	0.743062	-1.721367	-3.089953
N	-0.450716	-1.104505	0.800192
O	-0.679273	-2.181098	0.211916
O	-0.470036	-0.967413	2.03169
H	2.539313	0.0	0.0
