12
Coordinates from ORCA-job run
  C   0.76463730175480     -0.28753371825273      0.01905574712742
  C   -0.54982016416571      0.35332032652112      0.51767541121053
  H   0.83988000433363     -1.28194295124333      0.47178132357597
  H   -0.61427531184070      1.37115746458099      0.11072814979579
  H   -0.48181268563242      0.43097194287103      1.60515560425851
  C   1.92798298273267      0.51397440051311      0.41140237286000
  N   2.82980627196060      1.17444296236828      0.76943224636906
  C   0.71201149872654     -0.45101569709591     -1.43786391013116
  N   0.60302384307802     -0.56181136651550     -2.60127855699709
  N   -1.64792384556791     -0.52948008515749      0.16530008509123
  H   -1.93727121619930     -0.37499737688587     -0.79261340647303
  H   -2.44623867918022     -0.35708590170369      0.76122493331276
