14

C	0.0	0.0	0.0
C	-0.557689	-0.133509	-1.398463
F	1.416525	0.0	0.0
H	-0.31501	0.796286	-1.937919
H	-1.64585	-0.179097	-1.264834
N	-0.493781	1.15471	0.627319
H	-0.07951	1.327947	1.52978
H	-0.485908	1.969204	0.033872
C	-0.320773	-1.191324	0.822481
N	-0.51234	-2.098924	1.540336
N	-0.053193	-1.339118	-2.036405
H	0.80559	-1.153846	-2.534486
H	-0.7403	-1.695077	-2.685074
Cl	-3.980057	0.0	0.0
