14

C	0.0	0.0	0.0
C	-0.41793	0.201727	-1.453135
F	1.418014	0.0	0.0
H	0.036169	-0.589377	-2.065418
H	-1.505418	0.099943	-1.47501
N	-0.477952	0.975079	0.913929
H	-0.434736	1.860875	0.417668
H	-1.470751	0.774253	1.051343
C	-0.345707	-1.364899	0.462322
N	-0.51172	-2.458801	0.851497
N	-0.033947	1.554707	-1.853357
H	0.914395	1.562008	-2.204205
H	-0.653826	1.884998	-2.579928
Cl	-3.59729	0.0	0.0
