14

C	0.0	0.0	0.0
C	-0.412503	-0.133455	-1.461045
F	1.420447	0.0	0.0
H	0.029319	-1.054202	-1.878489
H	-1.497892	-0.177528	-1.512974
N	-0.466179	1.194247	0.575991
H	0.106042	1.426325	1.381113
H	-0.461216	1.934879	-0.113283
C	-0.303018	-1.141284	0.910981
N	-0.526408	-2.02194	1.657165
N	0.074389	1.098335	-2.111662
H	1.02527	0.977924	-2.432643
H	-0.511188	1.365157	-2.889435
Cl	-3.610875	0.0	0.0
