14

C	0.0	0.0	0.0
C	-0.632854	-0.051689	-1.384583
Br	1.956018	0.0	0.0
H	-1.735872	-0.00078	-1.198732
H	-0.342652	-0.854234	0.580706
N	-0.423837	1.232015	0.753001
O	-0.517216	1.113461	1.966193
O	-0.575669	2.253982	0.095201
C	-0.275357	-1.29422	-2.048288
N	0.001917	-2.304387	-2.58086
N	-0.285355	1.088403	-2.319721
O	-1.234178	1.692552	-2.801389
O	0.899733	1.284912	-2.565244
Br	-3.587816	0.0	0.0
