15

C	-0.375602	-0.022673	-1.474903
C	0.0	0.0	0.0
Br	-0.227257	1.864334	-2.236077
H	1.094653	0.0	0.0
H	-0.307447	-0.989347	0.377073
N	0.532047	-0.9102	-2.107221
H	0.490719	-0.839009	-3.116912
H	1.486133	-0.734087	-1.774343
N	-1.776073	-0.358163	-1.700447
H	-2.014775	-0.166933	-2.667273
H	-1.830038	-1.365799	-1.568655
N	-0.537536	1.104747	0.767972
H	0.168945	1.394046	1.431416
H	-1.368242	0.828399	1.270409
H	2.99311	0.0	0.0
