15

C	-0.381073	0.028587	-1.483531
C	0.0	0.0	0.0
Br	-0.689253	-1.885611	-2.153992
H	1.091164	0.0	0.0
H	-0.276469	1.009924	0.351458
N	-1.677805	0.651443	-1.708782
H	-1.911522	0.585442	-2.694004
H	-1.579494	1.634575	-1.466802
N	0.673654	0.603328	-2.21947
H	0.456091	1.465098	-2.688747
H	1.583906	0.566332	-1.754436
N	-0.562763	-1.048078	0.823813
H	-1.277301	-0.689669	1.439617
H	0.183761	-1.440732	1.382442
H	2.995781	0.0	0.0
