15

C	-0.383787	-0.070078	-1.47232
C	0.0	0.0	0.0
Br	-0.225935	1.887205	-2.216026
H	1.098943	0.0	0.0
H	-0.431614	0.87875	0.47593
N	0.565154	-0.894113	-2.116218
H	0.496485	-0.857156	-3.12528
H	1.513444	-0.654362	-1.807305
N	-1.754393	-0.416099	-1.660595
H	-1.936784	-1.126684	-0.954938
H	-1.902929	-0.797435	-2.587044
N	-0.508177	-1.229928	0.654588
H	0.189292	-1.947168	0.472186
H	-0.48142	-1.069918	1.65577
H	2.992935	0.0	0.0
