15

C	-0.65121	0.012824	-1.36952
C	0.0	0.0	0.0
Br	-0.004196	1.780114	-2.288429
H	1.090262	0.0	0.0
H	-0.335223	0.889258	0.551847
N	-0.237353	-1.074465	-2.162768
H	-0.988323	-1.415992	-2.750737
H	0.061943	-1.805745	-1.526523
N	-2.080858	0.126106	-1.258929
H	-2.48647	0.213799	-2.185245
H	-2.300227	0.984841	-0.766559
N	-0.340198	-1.272663	0.650509
H	0.445562	-1.512684	1.241791
H	-1.178023	-1.207177	1.21007
H	2.956839	0.0	0.0
