15

C	-0.409388	0.066299	-1.466944
C	0.0	0.0	0.0
Br	-0.200408	1.908424	-2.146334
H	1.093688	0.0	0.0
H	-0.283882	-1.023989	0.316968
N	0.476756	-0.753594	-2.286269
H	0.38067	-1.704495	-1.932075
H	1.437163	-0.482934	-2.049047
N	-1.801922	-0.283673	-1.652812
H	-1.963802	-0.379516	-2.651405
H	-1.941644	-1.195771	-1.226575
N	-0.533391	1.034508	0.863288
H	-1.362906	0.725863	1.349838
H	0.180002	1.275614	1.539659
H	2.999696	0.0	0.0
