15

C	-0.356677	0.09166	-1.484263
C	0.0	0.0	0.0
Br	-0.419058	-1.961521	-2.154478
H	1.100313	0.0	0.0
H	-0.430975	-0.882384	0.469455
N	-1.669121	0.564793	-1.861464
H	-1.816416	1.353328	-1.231337
H	-2.344199	-0.147972	-1.611138
N	0.621958	0.824553	-2.108018
H	0.500744	0.923508	-3.104433
H	1.570959	0.60824	-1.788824
N	-0.493144	1.238177	0.646795
H	0.295261	1.879098	0.668929
H	-0.710475	1.026037	1.613492
H	2.973934	0.0	0.0
