14

C	-0.498319	0.034321	-1.435542
C	0.0	0.0	0.0
F	-1.882743	0.347952	-1.397018
H	1.093047	0.0	0.0
H	-0.014273	0.856879	-1.959764
N	-0.240686	-1.188422	-2.076531
H	-0.456636	-1.144584	-3.061073
H	-0.730892	-1.958436	-1.639772
C	-0.533584	-1.150028	0.714568
N	-0.960787	-2.132974	1.196077
N	-0.383398	1.272596	0.699791
O	-0.731391	1.202775	1.875636
O	-0.257628	2.302536	0.048929
Br	3.347677	0.0	0.0
