14

C	-0.394132	0.123192	-1.475534
C	0.0	0.0	0.0
F	-0.163584	-1.142183	-2.04895
H	1.091955	0.0	0.0
H	-1.463327	0.311073	-1.598224
N	0.379001	1.157115	-2.028825
H	0.212857	1.264732	-3.018207
H	1.368339	1.015447	-1.838073
C	-0.573484	-1.172543	0.636341
N	-1.042513	-2.114119	1.156199
N	-0.505141	1.231658	0.694446
O	0.316556	2.047111	1.090582
O	-1.730116	1.338087	0.783354
Br	3.419501	0.0	0.0
