15

C	-0.245007	-0.026346	-1.524002
C	0.0	0.0	0.0
F	0.116443	1.225558	-2.007066
H	1.097316	0.0	0.0
C	0.659201	-1.065533	-2.158064
H	0.638431	-0.952887	-3.243777
H	0.331789	-2.072639	-1.89105
H	1.655745	-0.876124	-1.743421
C	-1.667761	-0.216388	-1.873878
N	-2.79344	-0.392263	-2.160984
C	-0.471999	-1.227505	0.613778
N	-0.843819	-2.237731	1.087235
C	-0.568837	1.176107	0.62956
N	-1.013789	2.135044	1.143764
F	2.498756	0.0	0.0
