15

C	-0.241032	0.058457	-1.513243
C	0.0	0.0	0.0
F	-1.590373	0.277318	-1.816118
H	1.097456	0.0	0.0
C	0.613666	1.160088	-2.110678
H	0.240062	2.123527	-1.75604
H	1.628834	0.99788	-1.7379
H	0.565858	1.133278	-3.200642
C	0.116257	-1.2441	-2.105729
N	0.390343	-2.276607	-2.592875
C	-0.566339	-1.176252	0.631723
N	-1.009105	-2.138547	1.141937
C	-0.468896	1.22132	0.632386
N	-0.824073	2.225755	1.129352
F	2.488129	0.0	0.0
