15

C	-0.252796	-0.025456	-1.521723
C	0.0	0.0	0.0
F	0.123314	1.22036	-2.009681
H	1.097308	0.0	0.0
C	0.633097	-1.078376	-2.157952
H	1.633892	-0.902372	-1.748872
H	0.609773	-0.967138	-3.243622
H	0.292031	-2.080111	-1.888155
C	-1.68037	-0.194867	-1.862582
N	-2.811653	-0.34845	-2.141001
C	-0.473808	-1.225183	0.616701
N	-0.847635	-2.234095	1.091408
C	-0.562306	1.17817	0.632393
N	-1.00378	2.137311	1.149174
F	2.496517	0.0	0.0
