15

C	-0.352445	0.011143	-1.482395
C	0.0	0.0	0.0
F	-1.740762	0.024589	-1.677777
H	1.097391	0.0	0.0
C	0.25951	1.22496	-2.150522
H	-0.220145	2.121348	-1.752323
H	1.322474	1.228533	-1.899689
H	0.102331	1.183638	-3.229726
C	0.144383	-1.227518	-2.111566
N	0.496952	-2.192706	-2.679353
C	-0.500543	-1.183616	0.678356
N	-0.876144	-2.15144	1.230158
C	-0.471501	1.210065	0.651675
N	-0.823071	2.207837	1.164894
F	2.461469	0.0	0.0
