15

C	-0.2515	0.039214	-1.509003
C	0.0	0.0	0.0
F	-1.612067	0.182658	-1.806205
H	1.097436	0.0	0.0
C	0.536994	1.182439	-2.117651
H	0.114161	2.126327	-1.767077
H	0.486113	1.145653	-3.207153
H	1.563083	1.076441	-1.75476
C	0.175871	-1.243421	-2.100449
N	0.495728	-2.241725	-2.629339
C	-0.55262	-1.17833	0.641025
N	-0.980926	-2.140727	1.16288
C	-0.476637	1.218981	0.629923
N	-0.833011	2.220436	1.132161
F	2.479754	0.0	0.0
