15

C	-0.235508	0.059635	-1.513763
C	0.0	0.0	0.0
F	-1.584323	0.267231	-1.824172
H	1.097474	0.0	0.0
C	0.611193	1.171232	-2.105259
H	0.22877	2.129395	-1.745321
H	0.56547	1.149858	-3.195245
H	1.628136	1.015848	-1.73326
C	0.137035	-1.238335	-2.106855
N	0.418559	-2.262743	-2.606146
C	-0.564239	-1.179615	0.627949
N	-1.007155	-2.142376	1.137136
C	-0.472288	1.218289	0.634512
N	-0.828836	2.219776	1.136449
F	2.486745	0.0	0.0
