14

C	-0.348575	-0.073639	-1.485131
C	0.0	0.0	0.0
F	-0.206838	1.26242	-1.946802
H	1.089094	0.0	0.0
H	-0.439451	0.886486	0.445597
N	0.503397	-0.978464	-2.130478
H	1.463886	-0.86806	-1.80899
H	0.433834	-0.918054	-3.136201
C	-1.766853	-0.406767	-1.757111
N	-2.89254	-0.651359	-1.984309
N	-0.519803	-1.177784	0.731642
O	0.065762	-2.247921	0.597433
O	-1.529078	-0.999738	1.42219
Cl	3.312816	0.0	0.0
