14

C	-0.616715	0.054828	-1.392183
C	0.0	0.0	0.0
F	-0.267265	-1.161605	-1.979801
H	1.086704	0.0	0.0
H	-0.376733	-0.898922	0.487405
N	-2.035071	0.176397	-1.349945
H	-2.402019	0.967609	-1.853476
H	-2.417277	0.115656	-0.417504
C	-0.060339	1.107258	-2.266699
N	0.311896	1.909598	-3.037303
N	-0.490338	1.15256	0.787254
O	-1.187191	0.918175	1.779866
O	-0.201096	2.276134	0.383064
Cl	3.282068	0.0	0.0
