14

C	-0.520261	0.054469	-1.438557
C	0.0	0.0	0.0
F	-1.873587	0.147516	-1.459317
H	1.096299	0.0	0.0
C	0.050993	1.160998	-2.208201
N	0.422752	2.070616	-2.851981
N	-0.144825	-1.258615	-2.147489
O	-1.049222	-2.060148	-2.319848
O	1.033456	-1.364035	-2.44512
C	-0.496724	-1.204185	0.662145
N	-0.890108	-2.179384	1.185742
C	-0.460334	1.198403	0.700068
N	-0.830234	2.167594	1.25056
Cl	3.099152	0.0	0.0
