14

C	-0.415793	-0.07811	-1.477659
C	0.0	0.0	0.0
F	-0.084304	-1.2865	-1.970275
H	1.097629	0.0	0.0
C	-1.845077	0.174112	-1.705524
N	-2.992715	0.344719	-1.893766
N	0.354536	0.986829	-2.281465
O	0.164755	2.13438	-1.905585
O	1.030983	0.593877	-3.212807
C	-0.491577	-1.194492	0.682644
N	-0.893442	-2.153597	1.229136
C	-0.502332	1.19521	0.669777
N	-0.921462	2.122261	1.257311
Cl	3.078589	0.0	0.0
