14

C	-0.531109	0.074905	-1.431896
C	0.0	0.0	0.0
F	-1.882897	0.205987	-1.44061
H	1.096299	0.0	0.0
C	0.059556	1.172611	-2.2016
N	0.427065	2.080841	-2.850367
N	-0.195376	-1.240038	-2.153575
O	-1.107912	-2.047011	-2.25251
O	0.960618	-1.348828	-2.532119
C	-0.492342	-1.207463	0.659617
N	-0.888249	-2.178422	1.188799
C	-0.448341	1.19261	0.718521
N	-0.814823	2.156875	1.280672
Cl	3.070314	0.0	0.0
