14

C	-0.375686	-0.029818	-1.485362
C	0.0	0.0	0.0
F	0.150947	1.046563	-2.095321
H	1.09835	0.0	0.0
C	0.038107	-1.26698	-2.150748
N	0.345922	-2.265898	-2.687154
N	-1.908079	0.073548	-1.635708
O	-2.529116	-0.949193	-1.374768
O	-2.358553	1.163241	-1.953724
C	-0.475902	-1.175596	0.718931
N	-0.827516	-2.123882	1.316703
C	-0.487259	1.232922	0.611092
N	-0.880867	2.222252	1.107585
Cl	3.066652	0.0	0.0
