14

C	-0.51744	0.050724	-1.438456
C	0.0	0.0	0.0
F	-1.876381	0.093199	-1.460636
H	1.096341	0.0	0.0
C	0.009513	1.19179	-2.188919
N	0.333241	2.137052	-2.807043
N	-0.099624	-1.238594	-2.165903
O	1.008969	-1.228168	-2.677928
O	-0.915552	-2.148872	-2.136817
C	-0.489789	-1.196488	0.681356
N	-0.884811	-2.156231	1.231564
C	-0.459094	1.202058	0.695048
N	-0.825513	2.172993	1.245282
Cl	3.078684	0.0	0.0
