14

C	-0.375836	-0.034929	-1.48527
C	0.0	0.0	0.0
F	0.150352	1.039581	-2.098935
H	1.098403	0.0	0.0
C	0.038351	-1.274241	-2.146404
N	0.347343	-2.274838	-2.678952
N	-1.908289	0.06759	-1.635853
O	-2.359134	1.156315	-1.956462
O	-2.529005	-0.954615	-1.372414
C	-0.475994	-1.1732	0.722939
N	-0.827925	-2.119203	1.32414
C	-0.487189	1.235018	0.607085
N	-0.880606	2.226237	1.099982
Cl	3.066603	0.0	0.0
