13
Coordinates from ORCA-job run
  C   -0.88779602948880      0.35609379932512     -0.46188076777048
  C   0.44619353324492      0.71273549487523      0.18373526303760
  Br  -2.03686074259752      1.96790583024364     -0.40010804925314
  H   0.85587516890196      1.59927610642868     -0.30752073713769
  H   -0.75424843670733      0.16645763963531     -1.52913846980373
  H   0.26398921129823      0.98525531255942      1.22903034963125
  N   -1.60082010027104     -0.74808874155960      0.10575650931389
  H   -1.26613391154110     -1.62991923313177     -0.25675701613261
  H   -1.55199637424295     -0.74617016517830      1.11639088584448
  C   1.43795874170360     -0.44506354745625      0.09658441330098
  H   1.08504717834575     -1.31861218208238      0.64813982540623
  H   2.40357438775061     -0.15681075004401      0.51730255567784
  H   1.60521737360367     -0.74305956361509     -0.94253476211462
