12

C	-0.436319	-0.013254	-1.431519
C	0.0	0.0	0.0
Cl	-2.247154	0.037941	-1.637581
H	1.092676	0.0	0.0
H	-0.118581	-0.946784	-1.893957
H	-0.391734	0.847455	0.55902
C	0.12311	1.120635	-2.161181
N	0.536221	2.05033	-2.746988
N	-0.44703	-1.217299	0.679633
O	-0.719275	-1.134243	1.878646
O	-0.466246	-2.270688	0.036692
F	2.495015	0.0	0.0
