12

C	-0.382055	0.024658	-1.468089
C	0.0	0.0	0.0
Cl	0.079652	-1.547668	-2.195883
H	1.091299	0.0	0.0
H	0.211879	0.78819	-1.968857
H	-0.42229	-0.846763	0.536961
C	-1.804233	0.249988	-1.730544
N	-2.948642	0.422803	-1.932437
N	-0.453703	1.22478	0.653785
O	-0.658573	1.189918	1.867748
O	-0.543204	2.247798	-0.036839
F	2.511568	0.0	0.0
