12

C	-0.359138	-0.030967	-1.452762
C	0.0	0.0	0.0
Cl	-2.137285	-0.243764	-1.775743
H	1.093089	0.0	0.0
H	0.116017	-0.929414	-1.852179
H	-0.355993	-0.894395	0.509038
C	0.12236	1.094184	-2.252702
N	0.502067	1.923213	-2.991945
N	-0.539993	1.14667	0.72312
O	-0.717104	1.011514	1.935885
O	-0.744208	2.195007	0.10611
F	2.49654	0.0	0.0
