12

C	-0.550967	-0.019079	-1.414676
C	0.0	0.0	0.0
Cl	-0.404132	1.637627	-2.105354
H	1.088341	0.0	0.0
H	-1.616651	-0.258964	-1.440103
H	-0.350267	0.878279	0.542214
C	0.137422	-0.954041	-2.304062
N	0.642138	-1.674228	-3.081571
N	-0.489468	-1.164896	0.734536
O	-0.886182	-2.143825	0.086456
O	-0.449804	-1.125147	1.96399
F	2.499807	0.0	0.0
