19

C	0.0	0.0	0.0
C	-0.414567	0.122957	-1.47179
F	1.410323	0.0	0.0
H	-1.50318	0.263251	-1.424079
C	-0.444207	1.207607	0.794669
H	-0.099076	1.085482	1.823461
H	-0.032144	2.11543	0.357153
H	-1.538863	1.231614	0.766887
N	-0.497468	-1.174531	0.657919
H	-0.311951	-1.987537	0.081207
H	-1.525481	-1.032351	0.66136
C	-0.102144	-1.141896	-2.274727
H	-0.729438	-1.984118	-1.977287
H	-0.295371	-0.958671	-3.336389
H	0.950616	-1.421373	-2.167097
N	0.209473	1.321585	-2.049663
H	1.211587	1.162689	-2.104192
H	-0.132629	1.437993	-2.997368
H	-3.228047	0.0	0.0
