19

C	0.0	0.0	0.0
C	-0.46861	0.007647	-1.448633
F	1.433673	0.0	0.0
H	-1.556734	0.148704	-1.365812
C	-0.516339	1.195462	0.754721
H	-0.230965	2.109815	0.237986
H	-1.610603	1.098978	0.779866
H	-0.105758	1.200412	1.770428
N	-0.412846	-1.210468	0.638548
H	-0.428123	-1.099134	1.644064
H	0.220584	-1.960458	0.389852
C	-0.199607	-1.319561	-2.155761
H	0.864726	-1.580275	-2.113104
H	-0.792886	-2.118886	-1.708935
H	-0.484923	-1.238375	-3.209084
N	0.126585	1.164142	-2.127801
H	-0.312626	1.265686	-3.035912
H	1.11164	0.972206	-2.281122
H	-3.667852	0.0	0.0
