18
Coordinates from ORCA-job run
  C   -0.92380100385028      0.14123615087538     -0.09739821944311
  C   0.56849706082900      0.44245285782736     -0.18729025397709
  Br  -1.94445229770785      1.89796748470468      0.02913140867444
  H   0.68830104152204      1.19633633554273     -0.96802703628140
  N   -1.25316771330224     -0.77316478008104      0.90198819487898
  H   -1.03249772301382     -0.41780615263436      1.82169224725208
  H   -2.21854278792586     -1.07095496950400      0.84816618679794
  N   -1.44561171563613     -0.40707902170732     -1.42874262784959
  O   -2.34246134696919     -1.24091100349409     -1.37108694693813
  O   -0.94792763847318      0.05046720050255     -2.44786000440820
  C   1.34063598326618     -0.81894813339220     -0.58411332596021
  H   2.40817579992590     -0.58801931263099     -0.62016702434673
  H   1.05068403769854     -1.18367632720361     -1.57002433618691
  H   1.18292559562066     -1.61451384502361      0.14585094125682
  C   1.10072832474893      0.99426522386073      1.13408915488751
  H   0.52420844157054      1.85088611156530      1.48605199001207
  H   2.13438515366464      1.31925795999054      0.99768840977396
  H   1.10892078803213      0.22320422080195      1.91005124185759
