18
Coordinates from ORCA-job run
  C   -0.96139194139244      0.09338386623533      0.12445504256396
  C   0.53003490001079      0.13179923772602      0.47791638044272
  Br  -1.83955554901131      1.86991792524855      0.54903190506519
  H   0.52425911943769      0.07197159334910      1.57548535021592
  N   -1.60508672078342     -0.98374167394015      0.74693953502778
  H   -1.52756086996442     -0.92492244093329      1.75317841978628
  H   -2.57223976769868     -1.06731980309110      0.46156183303484
  N   -1.22987050153556     -0.04350377332025     -1.37596058218653
  O   -0.40713353915841      0.43550321171257     -2.14517339761987
  O   -2.27223110400502     -0.60269218585974     -1.69606586363155
  C   1.31824959836241      1.38431521137166      0.10309048472691
  H   2.34026436497965      1.26690167680702      0.47309596834915
  H   0.90002946512652      2.28222096851622      0.55577634087045
  H   1.35797511546436      1.52103286144530     -0.97569123298185
  C   1.22128912480933     -1.12823256931268     -0.05877763825351
  H   2.20750263277414     -1.21910024987871      0.40252748731489
  H   0.64998096445671     -2.02855690098184      0.16621395953404
  H   1.36448470812764     -1.05797695509402     -1.13860399225882
