18
Coordinates from ORCA-job run
  C   -1.05065283125410      0.13714841090552      0.21239174044321
  C   0.46437915635129      0.17056314894272      0.52336802833043
  Br  -1.92435428180629      1.64156647130925      1.09148665624788
  H   0.50645869489219      0.24089538813409      1.61747445580329
  N   -1.78395559036192     -1.03582445741494      0.57088728465142
  H   -1.43416337583174     -1.83887607748818      0.06432046349177
  H   -1.73083775347531     -1.19121112679069      1.56919253777661
  N   -1.20286472742112      0.28740825220159     -1.30535862868147
  O   -1.27277974720862      1.40432775161337     -1.79596157968560
  O   -1.14612156461291     -0.77223434293248     -1.92814308769639
  C   1.18542549353925      1.37952952848914     -0.06985886242951
  H   1.26644375376656      1.29590399213499     -1.15631742689011
  H   0.68055590164203      2.31682223990394      0.16194902405394
  H   2.19900955907488      1.42731872905726      0.33526122896550
  C   1.16463987657182     -1.12326916543313      0.10304383630403
  H   2.21662629716344     -1.06508472051711      0.39182796674901
  H   0.74145646326480     -2.00219982410899      0.59202497207479
  H   1.12173467570575     -1.27278419800635     -0.97758860950879
