18
Coordinates from ORCA-job run
  C   -1.05279729094256      0.11207257187098      0.21584913623052
  C   0.46219027890316      0.18219051671169      0.52202264963300
  Br  -1.95996582697818      1.59442670004325      1.09854344305127
  H   0.50600259678608      0.25589758715811      1.61582601890385
  N   -1.75617736896931     -1.07873183841175      0.57558632609999
  H   -1.38776256933360     -1.87227959228826      0.06711511346066
  H   -1.69550367520645     -1.23385922773644      1.57353812190581
  N   -1.21360986736077      0.25962818979560     -1.30137828831345
  O   -1.31428043012879      1.37458788359680     -1.79090783716905
  O   -1.13137471904038     -0.79774541512021     -1.92514934560885
  C   1.15157163749102      1.40696584564464     -0.07623714763944
  H   0.62335932963007      2.33191183462347      0.15314067164516
  H   1.23298916494730      1.32139697098137     -1.16253937868346
  H   2.16423207927256      1.48207611976391      0.32703643428834
  C   1.19124383381841     -1.09572546580830      0.10211240229766
  H   2.24364451256586     -1.01032056799535      0.38251336246179
  H   1.14392541119384     -1.25118573492963     -0.97749922607247
  H   0.79331290335173     -1.98230637789989      0.59842754350867
