15

C	-0.470778	-0.038053	-1.45038
C	0.0	0.0	0.0
Br	-0.128021	1.704082	-2.297678
H	1.088567	0.0	0.0
H	-0.359071	-0.901337	0.508476
C	0.364725	-1.092863	-2.1769
H	0.111204	-1.115189	-3.237421
H	1.423337	-0.863113	-2.03735
H	0.156649	-2.074862	-1.74051
C	-1.896033	-0.322984	-1.613208
N	-3.011302	-0.643943	-1.80233
N	-0.556514	1.143081	0.769749
O	-1.749916	1.403535	0.594231
O	0.188838	1.720993	1.554541
Cl	3.359286	0.0	0.0
