15

C	-0.596879	0.030248	-1.404136
C	0.0	0.0	0.0
Br	-0.096641	-1.703217	-2.204
H	1.091253	0.0	0.0
H	-0.357291	-0.879869	0.534294
C	-2.12172	0.118094	-1.404431
H	-2.534194	-0.679992	-0.783205
H	-2.42769	1.08836	-1.008818
H	-2.508793	0.012693	-2.418739
C	-0.039388	1.064116	-2.274636
N	0.33219	1.857768	-3.057662
N	-0.441493	1.170528	0.802863
O	-0.608147	2.243685	0.222139
O	-0.580486	0.994168	2.011089
Cl	3.259072	0.0	0.0
