15

C	-0.597655	0.075424	-1.402147
C	0.0	0.0	0.0
Br	-0.110927	-1.63944	-2.251556
H	1.088723	0.0	0.0
H	-0.357913	-0.896354	0.505637
C	-2.121564	0.175101	-1.399734
H	-2.539706	-0.635304	-0.798747
H	-2.509628	0.098691	-2.416249
H	-2.419408	1.137277	-0.979148
C	-0.033783	1.128645	-2.243748
N	0.316401	1.976414	-2.978425
N	-0.440485	1.14407	0.841265
O	-0.60218	2.23681	0.296894
O	-0.583975	0.927142	2.042106
Cl	3.259103	0.0	0.0
