15

C	-0.617749	-0.034198	-1.401844
C	0.0	0.0	0.0
Br	0.306066	-1.283616	-2.600822
H	1.088164	0.0	0.0
H	-0.365549	0.891205	0.512519
C	-2.104386	-0.393685	-1.375866
H	-2.632705	0.289035	-0.703718
H	-2.229225	-1.416566	-1.019326
H	-2.529763	-0.315756	-2.376919
C	-0.461533	1.296213	-1.988674
N	-0.427142	2.378149	-2.446689
N	-0.494088	-1.143096	0.806016
O	-1.191513	-0.88133	1.790377
O	-0.203385	-2.276757	0.433594
Cl	3.280821	0.0	0.0
