15

C	-0.599043	0.01226	-1.409869
C	0.0	0.0	0.0
Br	0.236273	-1.319237	-2.586415
H	1.088215	0.0	0.0
H	-0.366051	0.884234	0.524878
C	-2.109195	-0.223408	-1.40661
H	-2.508743	-0.121703	-2.416079
H	-2.327124	-1.22783	-1.041236
H	-2.590642	0.506742	-0.749469
C	-0.322255	1.321043	-2.001155
N	-0.220082	2.385631	-2.488878
N	-0.52799	-1.15429	0.765937
O	-1.363122	-0.912445	1.64401
O	-0.135619	-2.277279	0.460692
Cl	3.291368	0.0	0.0
