15

C	-0.596659	0.025248	-1.406634
C	0.0	0.0	0.0
Br	-0.155731	-1.732663	-2.187066
H	1.088736	0.0	0.0
H	-0.367661	-0.873097	0.536536
C	-2.117748	0.165761	-1.400834
H	-2.387573	1.153818	-1.02119
H	-2.556487	-0.604323	-0.762498
H	-2.515409	0.056945	-2.410618
C	-0.012975	1.031221	-2.29106
N	0.356714	1.857717	-3.040343
N	-0.454708	1.177629	0.781887
O	-0.435484	2.277359	0.230542
O	-0.810788	0.977159	1.942299
Cl	3.273404	0.0	0.0
