15

C	-0.483841	-0.038559	-1.453019
C	0.0	0.0	0.0
Br	0.039172	1.697221	-2.225237
H	1.088865	0.0	0.0
H	-0.407113	0.863593	0.521689
C	0.179119	-1.149002	-2.259217
H	-0.08879	-1.061851	-3.313334
H	-0.151067	-2.11785	-1.880371
H	1.26083	-1.070608	-2.129556
C	-1.943301	-0.098572	-1.545696
N	-3.11344	-0.169585	-1.635323
N	-0.508394	-1.197265	0.72517
O	-1.507832	-1.040569	1.434038
O	0.078991	-2.265421	0.557949
Cl	3.345643	0.0	0.0
