15

C	-0.461089	-0.066985	-1.452467
C	0.0	0.0	0.0
Br	-0.130073	1.664536	-2.323545
H	1.08859	0.0	0.0
H	-0.355501	-0.895563	0.52114
C	0.391907	-1.12334	-2.155592
H	0.14584	-1.168119	-3.217236
H	0.195437	-2.098853	-1.701728
H	1.446104	-0.877557	-2.014348
C	-1.880416	-0.369458	-1.619799
N	-2.98829	-0.708742	-1.812441
N	-0.56534	1.149031	0.754571
O	-1.747392	1.425285	0.545029
O	0.16071	1.71319	1.562921
Cl	3.360252	0.0	0.0
