15

C	-0.462716	-0.131368	-1.454715
C	0.0	0.0	0.0
Br	-0.28063	1.686688	-2.213683
H	1.088848	0.0	0.0
H	-0.393826	0.889662	0.484645
C	0.416083	-1.067334	-2.279163
H	0.286952	-2.084948	-1.912484
H	1.457702	-0.770585	-2.141354
H	0.140914	-1.017956	-3.334013
C	-1.882301	-0.464784	-1.563191
N	-3.016831	-0.760316	-1.649051
N	-0.434788	-1.148555	0.843245
O	-0.561372	-0.92205	2.043627
O	-0.601454	-2.246038	0.310118
Cl	3.294931	0.0	0.0
