15
Coordinates from ORCA-job run
  C   0.90765901678281     -0.57533529308708      0.31543377178293
  C   -0.25941689530780     -0.15322180415547     -0.58742550354651
  F   1.10861177531371     -1.92948386478697      0.16434513493809
  H   0.03438846778903     -0.36075870205621     -1.61816011089942
  C   0.69616705318770     -0.26590111258810      1.73907303672038
  N   0.59822209343040      0.03218077525767      2.87109269556883
  C   2.11350907654202      0.13812580639326     -0.14326731698207
  N   3.05132915880963      0.72471406132287     -0.53901944359752
  C   -0.69217775788299      1.28615912423707     -0.38567569224295
  H   -1.50624957541104      1.51852041043206     -1.07408558620283
  H   0.13594477943406      1.96605419100163     -0.59493699970988
  H   -1.03556932574801      1.44281258433415      0.63818548874557
  N   -1.42399462458249     -1.06366624937539     -0.32414567144107
  O   -1.98724560621767     -1.52484347125847     -1.31104931278735
  O   -1.74017763613939     -1.23635645567102      0.84863550965380
