15
Coordinates from ORCA-job run
  C   1.06872296162418     -0.01663514894747      0.27787795490693
  C   -0.18856393399023      0.11310949168375     -0.60085843998228
  F   1.84254660454950      1.09492797022211     -0.02013932274507
  H   0.15286868890595      0.17053401124228     -1.63780083780489
  C   1.84896832940012     -1.21434979476591     -0.06656578819241
  N   2.49977023323397     -2.13526179171701     -0.39551879291375
  C   0.76058995852218      0.01925683302904      1.71435429833775
  N   0.52566679044245      0.12573236210614      2.86028500579667
  C   -1.04444191355860      1.31110090882332     -0.23338497569117
  H   -0.43824451737640      2.21701913079547     -0.25857628267990
  H   -1.85535862204825      1.40821702794009     -0.95520192987501
  H   -1.46797265827631      1.19207568953092      0.76611642869439
  N   -1.02043000182429     -1.13043056994148     -0.50958293613726
  O   -1.88384084778251     -1.25771424203922     -1.36873768231758
  O   -0.80028107182177     -1.89758187796201      0.42673330060359
