15

C	-0.614033	0.004891	-1.375818
C	0.0	0.0	0.0
Cl	0.004357	-1.359891	-2.347303
H	1.09145	0.0	0.0
H	-0.36219	-0.923763	0.46343
N	-2.030466	-0.020944	-1.342613
H	-2.289612	0.680334	-0.653203
H	-2.399958	0.228262	-2.252632
N	-0.144208	1.268041	-2.157999
O	0.796371	1.915599	-1.723278
O	-0.787294	1.540644	-3.173954
N	-0.544418	1.176339	0.719211
H	-0.755531	0.903782	1.670815
H	0.228188	1.833265	0.775071
F	2.664811	0.0	0.0
