15

C	-0.595959	0.058775	-1.388305
C	0.0	0.0	0.0
Cl	0.37808	-1.026622	-2.49239
H	1.091916	0.0	0.0
H	-0.402849	0.850982	0.555177
N	-1.9744	-0.243811	-1.395734
H	-2.306015	-0.432974	-2.332792
H	-2.074845	-1.05501	-0.790749
N	-0.472298	1.442972	-2.018057
O	0.063493	2.335179	-1.369345
O	-0.975074	1.574642	-3.132157
N	-0.463567	-1.277329	0.603142
H	0.360494	-1.87153	0.617683
H	-0.69987	-1.102661	1.572073
F	2.655401	0.0	0.0
