15

C	-0.597384	-0.007354	-1.386704
C	0.0	0.0	0.0
Cl	0.343039	-1.185504	-2.423948
H	1.091843	0.0	0.0
H	-0.40318	0.87643	0.512503
N	-1.984916	-0.269248	-1.377818
H	-2.31878	-0.507514	-2.302888
H	-2.107357	-1.041343	-0.72712
N	-0.435663	1.334752	-2.09634
O	-0.918415	1.41327	-3.222601
O	0.102493	2.25058	-1.491197
N	-0.475115	-1.242049	0.665558
H	0.330522	-1.858896	0.666277
H	-0.652478	-1.023971	1.637757
F	2.650793	0.0	0.0
