15

C	-0.597647	0.012583	-1.389131
C	0.0	0.0	0.0
Cl	0.381038	-1.101674	-2.458806
H	1.091887	0.0	0.0
H	-0.406389	0.865009	0.529312
N	-1.973538	-0.298337	-1.384326
H	-2.06533	-1.09186	-0.755045
H	-2.304277	-0.519042	-2.314488
N	-0.483732	1.377217	-2.061354
O	-0.983938	1.471772	-3.17992
O	0.035463	2.293788	-1.437621
N	-0.456917	-1.260872	0.643184
H	-0.685404	-1.058127	1.608833
H	0.37013	-1.849588	0.671359
F	2.655185	0.0	0.0
