18

C	-0.315288	0.029279	-1.481813
C	0.0	0.0	0.0
Cl	-2.142222	-0.063486	-1.771231
H	1.097647	0.0	0.0
H	-0.344334	-0.953195	0.417202
C	0.182887	1.307242	-2.131295
H	1.250121	1.39459	-1.896115
H	0.044119	1.27082	-3.215354
H	-0.341362	2.183598	-1.747029
C	0.307862	-1.185153	-2.145256
H	1.384045	-1.152668	-1.935917
H	0.131205	-1.182794	-3.224748
H	-0.102842	-2.106396	-1.724241
C	-0.514005	1.167594	0.827224
H	-0.016941	2.098115	0.543583
H	-0.280865	0.995971	1.881807
H	-1.595894	1.30229	0.731053
H	3.040154	0.0	0.0
