14
Coordinates from ORCA-job run
  C   -0.66509004757086      0.34283553296740      0.09784748439661
  C   0.69095850074520     -0.35356281587440     -0.07676295044303
  F   -0.50970998037530      1.52224676205184      0.71877355854977
  H   0.54447292064140     -1.31129008979943     -0.57951773903365
  C   -1.65163290049775     -0.48732601102206      0.78511361632100
  N   -2.46783914524040     -1.12847356301294      1.33691482969719
  N   -1.19304541283457      0.60500495542313     -1.33282390042855
  O   -1.36658016642582     -0.41069631030410     -1.99035956707833
  O   -1.36015887828185      1.76711219445371     -1.65032388745093
  N   1.22730937914456     -0.66521930683524      1.31199823664710
  O   1.93842901466081      0.17815067897719      1.83839779415069
  O   0.85076404625374     -1.73500051261069      1.77606971675466
  C   1.61494279269828      0.50232480798876     -0.80426081545315
  N   2.34717987708256      1.17389367759682     -1.43106637662938
