14
Coordinates from ORCA-job run
  C   -0.82749299317320     -0.08355168003105      0.16751988361107
  C   0.65406491563440     -0.18790140342301      0.54199148868165
  F   -1.53844840890424     -0.62436877894380      1.19393590950212
  H   0.81914228566866      0.44440785792416      1.42021357839403
  C   -1.15558366462606     -0.74873673344961     -1.08793874244829
  N   -1.39647096246045     -1.35049926044291     -2.06851097252500
  N   -1.25111262736725      1.39281408314893      0.12201017640218
  O   -0.79372867748204      2.07993871730276      1.02458986304102
  O   -2.04793913234110      1.71489787375938     -0.74319842495697
  N   1.53110927612370      0.38733864788650     -0.55521809559290
  O   0.97156584201683      1.14179007368939     -1.34343492256343
  O   2.71316854225595      0.08904846713641     -0.51599731782793
  C   1.02392828532447     -1.56746030329197      0.81077606458620
  N   1.29879731933031     -2.68771756126518      1.03326151169624
