14
Coordinates from ORCA-job run
  C   -0.87175094030660      0.00642777631081      0.23106903308188
  C   0.58139672965871     -0.38882535958782      0.53178670923047
  F   -1.44551089260029      0.50993781579759      1.33906445456524
  H   0.57239207697832     -0.87315985346603      1.51483741366141
  C   -1.63517286113656     -1.14236032594220     -0.25986245408203
  N   -2.25329185463588     -2.06104391732617     -0.65460232705909
  N   -0.92110148228413      1.07602051186574     -0.87872876600117
  O   -1.74550783840479      1.95632903447407     -0.73893604821851
  O   -0.14241754351900      0.88349482368120     -1.80025795657473
  N   1.47025811409257      0.83970687832627      0.72332854838667
  O   2.66483880739213      0.60421481280392      0.80511121881569
  O   0.90201770621350      1.91565270360754      0.84435616318003
  C   1.17489138721096     -1.28030550128645     -0.45096935056217
  N   1.64895859134107     -2.04608939925848     -1.20519663842369
