14
Coordinates from ORCA-job run
  C   -0.69694493328511      0.37018674553389      0.04844526563944
  C   0.66635300619395     -0.32902024748649      0.03240878047167
  F   -0.56783943625339      1.67087028413617      0.33976821432249
  H   0.52871165276367     -1.38677550240779     -0.20979364109990
  C   -1.67048818809489     -0.29849850217463      0.90900304380493
  N   -2.45538410370009     -0.88013217323351      1.56140132556055
  N   -1.22995853129349      0.25445560534399     -1.40424409489581
  O   -1.35283520309909     -0.89620412619942     -1.79894749423114
  O   -1.45527338694085      1.29538024122854     -1.99093358564531
  N   1.32456816201948     -0.30026685659716      1.40954734853648
  O   2.47343157646540     -0.71220828085639      1.43281193097150
  O   0.64730273350023      0.09500456364948      2.34819856895736
  C   1.55670746999831      0.30075250227658     -0.93292093496446
  N   2.23164918172587      0.81545574678673     -1.74574472742781
