14
Coordinates from ORCA-job run
  C   -0.84429734434696     -0.09189317840826      0.01683954953565
  C   0.53674543470192     -0.11914486792057      0.67642533054255
  F   -1.73723465575584     -0.53599779515452      0.94323064769439
  H   0.52043289469642      0.58411634936861      1.51446926895301
  C   -0.92802509054556     -0.89479020994137     -1.19726012162988
  N   -0.98733962867928     -1.60454169345791     -2.13237083950671
  N   -1.25594121929084      1.35991454610892     -0.27005553820698
  O   -1.93252941791926      1.55304395403102     -1.26704852048323
  O   -0.93101902638981      2.16489457922260      0.59201205900539
  N   1.60424271880624      0.39679205557362     -0.27369478783302
  O   2.75921929245426      0.23046942523127      0.08071561541526
  O   1.20053966096755      0.97183334117799     -1.27819578322657
  C   0.87262536633223     -1.46170075821426      1.12023287848471
  N   1.12158101496894     -2.55299574761716      1.47670024125542
