16

C	0.0	0.0	0.0
C	-0.341698	0.147496	-1.475828
Br	1.948678	0.0	0.0
H	0.341426	-0.441087	-2.086222
H	-0.375502	0.851892	0.553653
C	-0.421216	-1.328298	0.610516
H	-0.013296	-1.394886	1.622627
H	-0.040286	-2.165732	0.022284
H	-1.513841	-1.287251	0.61387
N	-0.134986	1.558864	-1.944537
O	0.252871	1.68249	-3.106198
O	-0.367011	2.479833	-1.170376
N	-1.698916	-0.294426	-1.999061
O	-1.820504	-1.511439	-2.054365
O	-2.385709	0.53297	-2.57493
F	-2.576259	0.0	0.0
