16

C	0.0	0.0	0.0
C	-0.460417	0.217603	-1.434693
Br	1.946389	0.0	0.0
H	0.313934	0.7398	-1.998169
H	-0.312856	0.89022	0.53934
C	-0.426477	-1.25486	0.748237
H	0.001768	-2.153223	0.301107
H	-1.517836	-1.24508	0.707132
H	-0.060399	-1.173233	1.775614
N	-1.639536	1.152939	-1.590976
O	-1.504199	2.221403	-1.008029
O	-2.419912	0.917532	-2.501125
N	-0.699941	-1.009489	-2.262087
O	-1.346694	-1.943446	-1.808988
O	-0.204529	-0.968971	-3.39357
F	-2.597437	0.0	0.0
