16

C	0.0	0.0	0.0
C	-0.385341	0.179088	-1.460965
Br	1.948821	0.0	0.0
H	0.347678	-0.28923	-2.117212
H	-0.364533	0.845614	0.570546
C	-0.408657	-1.324914	0.631573
H	-1.50027	-1.297148	0.648274
H	-0.028415	-2.169345	0.055014
H	0.010738	-1.36956	1.640542
N	-0.353971	1.627322	-1.860346
O	-0.64185	2.483314	-1.032328
O	-0.031043	1.844087	-3.028654
N	-1.68952	-0.406088	-1.971243
O	-1.701636	-1.631017	-1.96433
O	-2.441506	0.323817	-2.595803
F	-2.566864	0.0	0.0
