12
Coordinates from ORCA-job run
  C   1.12413160114036     -0.75292320857073      0.00617469206224
  C   -0.08690835551761      0.03970774527586     -0.48381015083471
  Br  1.79854311893444     -0.11921304659765      1.71229556771824
  H   -0.35842579325377     -0.40449422655970     -1.45127391060299
  H   0.84863037796394     -1.79927250802475      0.14209950497873
  H   1.94993928920909     -0.68151751877120     -0.70089694237929
  C   0.27187419643714      1.43618443133568     -0.74579758955369
  N   0.54543929225527      2.55789365813480     -0.95831346778221
  C   -1.29713630450234     -0.04931631007635      0.44848228502164
  H   -1.08264438169346      0.41981352625345      1.40841825819918
  H   -2.15808021473263      0.45045980708186      0.00184063464317
  H   -1.55436282624042     -1.09732234948127      0.62078111852968
