12
Coordinates from ORCA-job run
  C   1.22342053807518     -0.49330211221933      0.14282596857352
  C   -0.08413164015010      0.02286290769978     -0.46307079420547
  Br  1.11871052897459     -2.39011846293870      0.54753998074138
  H   -0.31416115290106     -0.57669180447997     -1.35078014155205
  H   2.05295814452568     -0.37014328836632     -0.55198850679862
  H   1.44877932181819      0.02383049145908      1.07589173854093
  C   0.15290134857750      1.40062897068804     -0.90874806714571
  N   0.34902286842225      2.51055698452608     -1.23838219357884
  C   -1.26708543100400     -0.02387908301487      0.50648157159810
  H   -2.16148317440765      0.38876710611392      0.03737260056694
  H   -1.04762667233294      0.56095343503196      1.40262452128920
  H   -1.47130467959762     -1.05346514449967      0.80023332197062
