12
Coordinates from ORCA-job run
  C   1.07675951306325     -0.67190964202249      0.29373168832648
  C   -0.04801621426251      0.06001029898002     -0.43298155746168
  Br  2.72846189086896     -0.65884818500061     -0.72269127231858
  H   -0.14826392461486     -0.36904514500883     -1.43556831070262
  H   1.28752034280450     -0.20694994271302      1.25681909468389
  H   0.80360589202736     -1.71652417991830      0.44255129380587
  C   0.27248547520204      1.48107171820868     -0.59031814472388
  N   0.49798104221227      2.62918239013807     -0.68501681507380
  C   -1.37023229549688     -0.10477071286084      0.32761253546248
  H   -1.28879283672562      0.30244150735208      1.33771574246531
  H   -2.17686258178100      0.41903317383868     -0.18758168961128
  H   -1.63364630329752     -1.16269128099344      0.39572743514781
