12
Coordinates from ORCA-job run
  C   1.12501111410209     -0.75112160322925     -0.03538202752524
  C   -0.09447872979347      0.05454738763032     -0.48108274756807
  Br  1.82389626540015     -0.17222022755976      1.67996890489581
  H   -0.38064590474921     -0.35905661433815     -1.45783239409543
  H   1.93991913280303     -0.65559942037067     -0.75208393733292
  H   0.85264363128781     -1.80170895233044      0.07033527626118
  C   0.25827407959021      1.45954960275481     -0.70406427224100
  N   0.52655895783975      2.58786162641858     -0.88522579287608
  C   -1.28965115861398     -0.06550742855101      0.46704131674386
  H   -2.15969967145258      0.44154765130947      0.04685634320581
  H   -1.53945573330690     -1.11888983896500      0.61600861077027
  H   -1.06237198310690      0.37959781723112      1.43546071976180
