13
Coordinates from ORCA-job run
  C   0.99519040189858     -0.27130863404124     -0.03651473658944
  C   -0.33229242527499     -0.03472980852587     -0.05482242268067
  H   1.39492113358621     -1.18733373979475     -0.46806101687813
  N   1.86950829574734      0.71161638197851      0.53645152476061
  H   2.31508021295580      1.26923655730952     -0.18320003502168
  H   2.60067114917856      0.26890194569080      1.07713947743937
  N   -0.85859543625918      1.18073174228133      0.38983069647992
  H   -1.75098642574922      1.08276141665323      0.85293520710742
  H   -0.17736038103427      1.66257482345964      0.96530629696315
  C   -1.31729963174998     -0.98817961494961     -0.65548931567654
  H   -0.82273441666450     -1.89198937866871     -1.01343362890123
  H   -1.84263259582066     -0.51915191077055     -1.49205939873085
  H   -2.07246988081368     -1.28212978062230      0.08191735172807
