13
Coordinates from ORCA-job run
  C   1.00584044807788     -0.18768776649050     -0.13414057750532
  C   -0.33139392237281     -0.07001933179412     -0.00622633785185
  H   1.43925243457896     -1.10157499933526     -0.53694778224117
  N   1.84405157560970      0.89544874593801      0.29368929124068
  H   2.60384741884319      1.03921586418198     -0.35829647829755
  H   2.25133866757842      0.70669377282688      1.20246202536914
  N   -0.90622651379459      1.04370453083091      0.61171942534163
  H   -1.78083583277140      1.32424721697138      0.19101418746537
  H   -0.23542422902961      1.80300846966214      0.64587843667910
  C   -1.28255895863336     -1.15611332423477     -0.40084092533914
  H   -0.75355776729067     -2.00430124533033     -0.83721024283792
  H   -2.00551983176073     -0.78951441095591     -1.13802037964327
  H   -1.84881348903500     -1.50310752227040      0.46791935762030
