13
Coordinates from ORCA-job run
  C   1.00284673451685     -0.24285305170760      0.02045414826790
  C   -0.32422146613874     -0.03208118127304     -0.09252599228819
  H   1.47392819264251     -1.07184097999609     -0.50483838253791
  N   1.78448104308134      0.65445378760324      0.82249779762610
  H   2.27617060410437      1.32701595953783      0.24511682381748
  H   2.47677366118589      0.14623295862416      1.35680542336716
  N   -0.93228166707373      1.08820302355541      0.48013146754279
  H   -1.86009247990064      0.89972780676891      0.83273220826648
  H   -0.32617146500001      1.48628656999736      1.18844616129335
  C   -1.21448125921937     -0.89828499321481     -0.92757616272027
  H   -0.65732418841006     -1.72475543510820     -1.37048131701168
  H   -1.67447100955630     -0.31378110342417     -1.72918954092448
  H   -2.02515670023212     -1.31932336136300     -0.32257263469871
