13
Coordinates from ORCA-job run
  C   0.95960673303042      0.44144249820415      0.40312115778889
  C   -0.34761219615869      0.25982634511478      0.12836207283751
  H   1.25802983455550      1.28907745445267      1.01768705122140
  N   2.03799761074084     -0.40942735917428      0.06611450607925
  H   1.76358587879775     -1.15432816332782     -0.55802968877845
  H   2.80566790678447      0.10405196903583     -0.34607922322588
  N   -1.34231711321155      1.19089675203555      0.53821049752669
  H   -2.10588545737788      0.72508001877606      1.01466253686901
  H   -0.95921828919749      1.89445568022019      1.15712972666073
  C   -0.90015065214083     -0.86722864117787     -0.69204061239550
  H   -0.13427497800971     -1.37351878898195     -1.28257616904508
  H   -1.38508027731070     -1.62445968172356     -0.06513631947592
  H   -1.65234900050213     -0.47586808345374     -1.38142553606264
