13
Coordinates from ORCA-job run
  C   1.02512396766712      0.35975374400176      0.46016307920583
  C   -0.29311464394756      0.25589999130031      0.20730905326713
  H   1.33432430252444      1.12777316967225      1.16258142238806
  N   2.05321468357331     -0.47608816210163      0.00669676740251
  H   2.93575888161391      0.00463008806038     -0.07263578142323
  H   1.83909616046895     -0.96188558257159     -0.85096298947346
  N   -1.15444647053447      1.18525722023855      0.89118679690741
  H   -1.79116794562224      0.68670241649404      1.50406028884165
  H   -1.72754444825726      1.68689187280433      0.22117520699099
  C   -0.91794841203543     -0.76436296541993     -0.70355660699616
  H   -0.19169417813259     -1.43337240446340     -1.17202364138071
  H   -1.48722598994681     -0.27748220537226     -1.50400888730249
  H   -1.62337590737137     -1.39371718264282     -0.14898470842753
