13
Coordinates from ORCA-job run
  C   1.06856219830322     -0.17268872337161     -0.29598382358289
  C   -0.25271205099532     -0.08947900455421     -0.04159256986492
  H   1.42135121405513     -0.80669386975455     -1.10359426179947
  N   2.07497068786517      0.40889776288599      0.51118000216434
  H   1.72515410557548      0.70934171120237      1.40919970013457
  H   2.60090769955359      1.14621415047853      0.06354803187314
  N   -0.75333622422983      0.69226784507423      1.02924865311657
  H   -0.26704525179107      1.57682686782681      1.10664120148040
  H   -1.74426321620523      0.86471616994757      0.93675792806241
  C   -1.26680690471008     -0.91948648912923     -0.76506257439599
  H   -1.77805570083005     -1.59812083628759     -0.07404582345719
  H   -0.79589327689017     -1.52252149026926     -1.54244126894593
  H   -2.03183327970082     -0.28927409404906     -1.23285519478505
