13
Coordinates from ORCA-job run
  C   0.95941652985543      0.48316778532397      0.05707123754965
  C   -0.37224050030329      0.27279220710134      0.07664090445506
  H   1.33649810786195      1.49865586003800      0.21393583972298
  N   1.88598858730090     -0.59425352924488     -0.12830514105510
  H   2.53371489138739     -0.37503731576773     -0.87469111530993
  H   2.43390529833909     -0.74055528231328      0.71123294940430
  N   -1.28597892598950      1.28896660201155      0.40402049075343
  H   -0.88275982013867      2.21494118605233      0.35801894789900
  H   -2.13126946594126      1.24353052295110     -0.14751093328189
  C   -0.99533462566681     -1.07248717757564     -0.12890954610424
  H   -0.22419829033241     -1.80749153843277     -0.34729511369776
  H   -1.70974682761364     -1.04207952590903     -0.95948420245939
  H   -1.54799495875918     -1.37114979423498      0.76627568212390
