13
Coordinates from ORCA-job run
  C   0.95180076402346      0.48347239876165      0.13001537620090
  C   -0.37750253338778      0.26078274004378      0.09160628478095
  H   1.31526213648788      1.45722926450359      0.47309149999047
  N   1.89108083003888     -0.50918614205159     -0.30156116603443
  H   2.37608083579617     -0.20118257765453     -1.13604617949285
  H   2.59152764054140     -0.66275471369457      0.41293192946899
  N   -1.31357024447524      1.27101933073584      0.36935565955851
  H   -0.90890749827438      2.06805771369514      0.84160084817073
  H   -2.11718837763934      0.92870793676771      0.87696337978527
  C   -0.98158083112582     -1.03308573946792     -0.35660051428830
  H   -1.63228265601665     -1.44399305813453      0.42373461310611
  H   -0.19494789236145     -1.74992339273270     -0.58013021584170
  H   -1.59877217360713     -0.87214376077187     -1.24496151540465
