13
Coordinates from ORCA-job run
  C   0.93920708168837      0.49765696070091      0.16670998389215
  C   -0.38379076845180      0.24323550520040      0.11164824381256
  H   1.27481778291721      1.48207676928146      0.50767839476667
  N   1.90924076718626     -0.50048042785267     -0.17491735737423
  H   2.44234085138074     -0.77256197659514      0.64254326002353
  H   2.56570904336391     -0.13389630756035     -0.85267486250665
  N   -1.34187937540226      1.15649914486882      0.58311703225946
  H   -2.17304081839956      1.17942819199095      0.00925115937216
  H   -0.97294764441074      2.08916026488676      0.70992102545039
  C   -0.95124887500873     -1.06579243802717     -0.34083374950210
  H   -1.51272258250462     -1.53288605801006      0.47314412952667
  H   -1.64724115939675     -0.91547950399921     -1.17402029043472
  H   -0.14844430296202     -1.72596012488470     -0.66056696928590
