13
Coordinates from ORCA-job run
  C   1.00123940535499     -0.07735502851836     -0.23651677206407
  C   -0.32835602678093     -0.08329942619750     -0.01178101159197
  H   1.44416237383449     -0.79381634154722     -0.92624074567060
  N   1.82177606088618      0.86882400935509      0.46352028958797
  H   2.29281187966218      0.43510787229503      1.24924423273785
  H   2.53244133794260      1.24799744753552     -0.14811572262625
  N   -0.90502063924069      0.74975584374613      0.95062895631759
  H   -0.26574712294723      1.50093592852835      1.18436571936732
  H   -1.81714376980159      1.09262060334844      0.68402034156106
  C   -1.25828742834496     -1.05024709934291     -0.67522715461434
  H   -1.74982997957297     -1.68173382389134      0.07002278791920
  H   -2.04409970762312     -0.51887636829424     -1.22353296843493
  H   -0.72494638336895     -1.68891361701700     -1.38038795248883
