13
Coordinates from ORCA-job run
  C   0.97766674723052     -0.20262295307680      0.26222162057614
  C   -0.32478317635962     -0.07223206232422     -0.06153810041266
  H   1.37718524228481     -1.17447476601810      0.54662831942234
  N   1.82724656857633      0.95252596189143      0.20765674562668
  H   2.46716971384704      0.96326264283569      0.99081819209460
  H   2.38150010558522      0.95933603861706     -0.64097228333858
  N   -0.83684737591934      1.13872816647744     -0.53463537708753
  H   -0.20484669402563      1.89603249879531     -0.30113938250214
  H   -1.78132187720254      1.31884989307488     -0.22475634607588
  C   -1.27978203668064     -1.22468770429903     -0.06028013408233
  H   -2.13051666995890     -1.02340084801965      0.60013446886001
  H   -0.79352959894761     -2.13913786695820      0.28166440407217
  H   -1.67814094842963     -1.39217900099579     -1.06480212715282
