13
Coordinates from ORCA-job run
  C   0.94606144936929      0.48392221666587      0.17065271387682
  C   -0.37970791671279      0.26748980451767      0.05402701214273
  H   1.29457613579201      1.47107282767466      0.49003873167415
  N   1.90237423268779     -0.53479355059614     -0.14813483021325
  H   2.55211655758688     -0.65759971920735      0.61832965679164
  H   2.44492476136102     -0.27109344304089     -0.96211671948964
  N   -1.32326440691313      1.29556275570337      0.21793814907376
  H   -0.94512439802567      2.11272118316712      0.67757637290507
  H   -2.16268358894923      0.98276899872870      0.68502147067107
  C   -0.96499544026227     -1.04279352235928     -0.37121462955433
  H   -1.67085336683791     -1.41063888551628      0.38220932898662
  H   -0.17279191858861     -1.77533757620790     -0.50656015971414
  H   -1.51963210050737     -0.92028108952956     -1.30576709715051
