13
Coordinates from ORCA-job run
  C   1.05820042542067     -0.26814133647776     -0.11638442815237
  C   -0.27097169556319     -0.07845987653697     -0.02569486500252
  H   1.47895545229753     -1.21029952213322     -0.45034854073627
  N   1.97060476556042      0.78774527226882      0.09371134862015
  H   1.64089065939092      1.39648602284309      0.83450240314111
  H   2.89830174906965      0.45372321660260      0.30634094821004
  N   -0.73364640210233      1.21276807007373      0.35788585143255
  H   -1.74214956201442      1.26676212518754      0.36270852050516
  H   -0.36394727138831      1.93074535723176     -0.25578062297228
  C   -1.28234675766514     -1.15995912876559     -0.23660249756653
  H   -0.79604392817173     -2.10110866474527     -0.50023264511617
  H   -1.98199350404863     -0.89882253556526     -1.03922596818018
  H   -1.87485393078543     -1.33343899998348      0.66912049581730
