13
Coordinates from ORCA-job run
  C   1.06458910760199     -0.25279790065937     -0.09676942566171
  C   -0.27341325081366     -0.11456065950672      0.01425090823356
  H   1.46942596828502     -1.23013867977062     -0.34187398980305
  N   2.03171538425995      0.78454349016292     -0.00822829304847
  H   2.57007313250923      0.76046965620690      0.84772004377164
  H   1.62950519701620      1.70338266595680     -0.12741126116035
  N   -0.91898216931431      1.05136092495593      0.47517934022277
  H   -0.29239935677323      1.82510623744397      0.63881821990921
  H   -1.69112145256518      1.33833370451901     -0.11059840646908
  C   -1.21032854731074     -1.24914483754003     -0.26658251553092
  H   -1.88251320539929     -1.01012197175942     -1.09915861471711
  H   -1.83361437819746     -1.45136345497772      0.60866637953324
  H   -0.66293642929852     -2.15406917503164     -0.53401238527973
