13
Coordinates from ORCA-job run
  C   0.96836900521707      0.42995498195572      0.18687115398090
  C   -0.36167749820598      0.29664375950157      0.00993161042717
  H   1.37139703101714      1.41351899649810      0.44784723472105
  N   1.86275829457027     -0.67552663458261      0.00736140847216
  H   2.46783426935306     -0.51716455369797     -0.78971402055033
  H   2.45811251238367     -0.77971231329859      0.81944565147090
  N   -1.23432949299926      1.39751439081428      0.03637406075365
  H   -2.11815713515786      1.18312214279279      0.47630655424001
  H   -0.82201525249661      2.22160746338188      0.45217096427832
  C   -1.01794447487851     -1.00084392340977     -0.34515795738304
  H   -1.78752164550567     -1.25655790035329      0.39209770412664
  H   -1.51172507720283     -0.91813245359381     -1.31743139061811
  H   -0.27510053609450     -1.79442395600831     -0.37610297391932
