13
Coordinates from ORCA-job run
  C   1.07060520507590     -0.23570165599820     -0.18722502667777
  C   -0.25571717470752     -0.03766007244888     -0.07183601038266
  H   1.46383077517247     -0.97029167175518     -0.88237109893065
  N   2.00238267540281      0.38383067283454      0.66601738524114
  H   2.89512576255186      0.52554521410662      0.21572848764262
  H   1.63102346418858      1.27149910821208      0.98807742032519
  N   -0.70289539062480      0.87527316002054      0.93026556156415
  H   -0.48838742234760      0.54378614548822      1.86354233582075
  H   -1.69295566671454      1.06030124373850      0.86339310664484
  C   -1.27626270780773     -0.72368805891696     -0.92556378002113
  H   -1.93465559455168     -1.36600298684297     -0.32988704149891
  H   -1.91251062635901      0.00825990235913     -1.43763318677763
  H   -0.79958329927875     -1.33515100079746     -1.69450815294994
