13
Coordinates from ORCA-job run
  C   1.01033949069605     -0.17978814282770     -0.10480009622904
  C   -0.32923118896708     -0.02794637925977     -0.07626286045759
  H   1.47383167656549     -0.82712122665126     -0.84727090669594
  N   1.81299728555840      0.53939397257254      0.84271717626577
  H   2.56235591055177     -0.04331323649534      1.19192551263745
  H   2.23383948299254      1.35821721524739      0.41863885103821
  N   -0.93733920423293      0.88129894723427      0.79311757496593
  H   -0.29465484342223      1.13109161901196      1.53612555560497
  H   -1.82641996889050      0.55881546851416      1.14816226352903
  C   -1.24339992980990     -0.71532038299548     -1.04141618808140
  H   -1.78606112236052      0.01858154312210     -1.64366466505401
  H   -0.68776862073461     -1.37587196345782     -1.70813264790772
  H   -1.98848896794648     -1.31703743401506     -0.50913956961565
