13
Coordinates from ORCA-job run
  C   1.01359420249862     -0.07411848631100     -0.17900341354732
  C   -0.32842029653030     -0.06846456851320     -0.04689896185929
  H   1.48863796666249     -0.70888455047205     -0.92506436678584
  N   1.79930502615768      0.78601594805637      0.65885967822838
  H   2.08955209994489      1.61839759704448      0.15855984964614
  H   2.63513015910190      0.31177355326419      0.97432328530877
  N   -0.96799022378902      0.81899213443972      0.82254633089444
  H   -1.78429123734482      0.42197078812479      1.26591149153685
  H   -0.30331106752803      1.18224604585329      1.49611843202256
  C   -1.22992227214845     -0.90977212189532     -0.89515280542002
  H   -1.85973479682450     -1.55416084036453     -0.27182511707088
  H   -0.65556774563754     -1.54630096990557     -1.56935066549314
  H   -1.89598181456294     -0.27769452932118     -1.48902373746065
