13
Coordinates from ORCA-job run
  C   0.97131785032756      0.51163135005519      0.28033005820997
  C   -0.34582074974125      0.24737216653422      0.16420022539391
  H   1.29118175211270      1.35489383680357      0.89101151143411
  N   2.02537040339136     -0.09159411684708     -0.44453445011832
  H   2.77968660852723     -0.39063365247613      0.15880927669597
  H   1.71373818358359     -0.87091688841263     -1.00574046248571
  N   -1.33593025774386      1.13235852459295      0.66879707687741
  H   -0.92746221428618      1.89365086609850      1.19610848344049
  H   -2.01032145242563      0.64748623504185      1.24884436201057
  C   -0.91655093058449     -0.88491352420808     -0.63717572572602
  H   -0.19499643702827     -1.68948083840764     -0.79205525133376
  H   -1.27167252938664     -0.53927220900677     -1.61259447582508
  H   -1.77754022674612     -1.31858174976795     -0.11800062857353
