13
Coordinates from ORCA-job run
  C   1.04269108753342      0.41559227603204      0.36181428441960
  C   -0.28587348259106      0.26888494644678      0.20165746836764
  H   1.37462265140162      1.19167646156471      1.04473704078794
  N   2.06664922805053     -0.24588188004198     -0.32807661233314
  H   1.79956765865856     -1.14811257993731     -0.69163241129554
  H   2.91048604814218     -0.32418852660919      0.21794696093664
  N   -1.12805160069247      1.15073286242248      0.96737420985346
  H   -1.78708406893111      0.61127344580320      1.51841592302049
  H   -1.67725126481482      1.73628664260702      0.34681411992802
  C   -0.93693785048997     -0.72121648709297     -0.72404793862785
  H   -1.58953358622713     -1.40623764799273     -0.16999656385214
  H   -1.56744751423688     -0.20414435134713     -1.45628701725426
  H   -0.22183730580285     -1.32566516185493     -1.28771946395086
