13
Coordinates from ORCA-job run
  C   0.97622592463994      0.56020894095081      0.09602686183898
  C   -0.34333920523221      0.28497543408138      0.07646474451369
  H   1.30289167555979      1.56958007450674      0.34004692930840
  N   2.04784832621315     -0.34774117191866     -0.06894116971832
  H   1.74038209814874     -1.25977077078150     -0.37445066976251
  H   2.74027812568702      0.00434445470199     -0.71642311034203
  N   -1.32878668917451      1.29323664893603      0.27159228367258
  H   -2.00038371744599      1.01553055288713      0.97802288054773
  H   -0.91000279347045      2.17029638717850      0.55497001835289
  C   -0.93134023066311     -1.06042987693922     -0.22848782601012
  H   -0.21930682772843     -1.73162606952521     -0.71249528217891
  H   -1.78580809078812     -0.93681431181096     -0.89832283163198
  H   -1.28865859574581     -1.56079029226703      0.67899717140960
