13
Coordinates from ORCA-job run
  C   1.04081891310473     -0.06153848204991     -0.36656209846519
  C   -0.26425149210266     -0.12451563830576     -0.02726473795514
  H   1.39176436837572     -0.64686710042907     -1.21122021618800
  N   2.02670445910789      0.76861252207670      0.23770839311203
  H   2.62926657095214      0.27599460843720      0.88400541326976
  H   1.62515702500518      1.57270490767665      0.69945415011455
  N   -0.81237993440453      0.46033550174869      1.13015665525258
  H   -1.67294896582006      0.96098354238267      0.95670119698450
  H   -0.16121222609036      1.03585627232862      1.64272145193868
  C   -1.25351409156908     -0.91072452129892     -0.83196189211684
  H   -0.76605047285319     -1.41886117546883     -1.66505258500629
  H   -2.03107773601288     -0.25961877438999     -1.24836949161496
  H   -1.75127641769291     -1.65236166270804     -0.20131623932567
