13
Coordinates from ORCA-job run
  C   1.05797809301429      0.51622906375924      0.00218416502914
  C   -0.27687410211452      0.34562680154334      0.03464161477051
  H   1.43136735536175      1.52788328512886      0.12807639888542
  N   2.03316039857670     -0.44987461621703     -0.27772347628366
  H   2.92596214636308     -0.22711177470878      0.13341720559065
  H   1.76022201024145     -1.38997688490800     -0.03487495587365
  N   -1.07147611753626      1.52235048833839      0.27368657635651
  H   -1.65328654451053      1.38970268887775      1.09401785116307
  H   -1.70002394832498      1.68361493825550     -0.50637178649532
  C   -0.97524638378263     -0.97080503870730     -0.16690544529640
  H   -1.49837549246350     -1.29018967484739      0.74247401717357
  H   -0.29906914397015     -1.77545174485613     -0.46681838818811
  H   -1.73233827085469     -0.88099753165845     -0.95380377683173
