13
Coordinates from ORCA-job run
  C   1.00612056543806     -0.05531835097805     -0.22232268197364
  C   -0.32868066380111     -0.07639543207833     -0.03156114694462
  H   1.45996137354502     -0.67388037012462     -0.99468293466047
  N   1.81691233999255      0.77445318219755      0.62226559682934
  H   2.26510210718790      0.22914881972329      1.34973249179719
  H   2.54549663321305      1.22697451859714      0.08622903766745
  N   -0.92122643752703      0.62104078045087      1.02415762836967
  H   -1.82415434325141      1.00789774808885      0.78845741461617
  H   -0.28158086289396      1.32422432263846      1.37606739239676
  C   -1.24995046392830     -0.93166370226676     -0.84378558409143
  H   -0.70525416594456     -1.46995014669724     -1.62041998312055
  H   -2.02033897976752     -0.32148589940132     -1.32816875549658
  H   -1.76140710226269     -1.65704547014986     -0.20496847538930
