13
Coordinates from ORCA-job run
  C   1.06502181168683     -0.02794005466758     -0.35466886585482
  C   -0.24971693596120     -0.08592052474238     -0.06177203854615
  H   1.46704185363697     -0.65075253220666     -1.14788550131333
  N   1.96909935196820      0.90110745609175      0.21437546753308
  H   2.67712947153515      0.49166696366461      0.80754925479263
  H   1.49688629269216      1.65767517954191      0.68757991033072
  N   -0.82416229807545      0.73964981996433      0.93631383635073
  H   -0.22551517573973      0.81745514814910      1.74897753522613
  H   -1.73265121353936      0.40408363662842      1.22327106245495
  C   -1.21804878030998     -0.90373486351503     -0.85811700450550
  H   -1.95548345823145     -0.26112959121592     -1.35075207413393
  H   -0.70328849743855     -1.47858630884724     -1.62903826400728
  H   -1.76731242222361     -1.60157432884532     -0.21583331832721
