16

C	0.0	0.0	0.0
C	-0.517651	0.670628	-1.285143
Cl	1.840559	0.0	0.0
H	0.289972	0.641959	-2.022097
H	-0.230514	-1.06182	-0.073146
N	-0.577056	0.524575	1.167786
H	-0.353008	1.494863	1.332675
H	-0.407122	-0.035839	1.991462
C	-0.92267	2.125243	-1.053627
H	-0.114915	2.72489	-0.618701
H	-1.189122	2.585139	-2.006895
H	-1.80151	2.155943	-0.40931
N	-1.59459	-0.177522	-1.784813
H	-1.969683	0.227507	-2.635836
H	-2.375566	-0.176211	-1.122669
Br	-4.634994	0.0	0.0
