16

C	0.0	0.0	0.0
C	-0.432658	0.003726	-1.465396
Cl	1.797419	0.0	0.0
H	0.048814	0.883978	-1.920606
H	-0.273288	-0.968583	0.433631
N	-0.477059	1.163227	0.703955
H	-1.494366	1.133079	0.69299
H	-0.188889	1.106867	1.674265
C	-1.939201	0.121893	-1.610412
H	-2.31969	1.088745	-1.285157
H	-2.217811	0.014123	-2.663886
H	-2.482419	-0.635156	-1.045242
N	0.007576	-1.258768	-2.067493
H	1.001754	-1.226458	-2.256378
H	-0.471926	-1.3811	-2.950393
Br	-5.090277	0.0	0.0
