13
Coordinates from ORCA-job run
  C   0.62819020251383      0.16518108962018     -0.31787727106700
  C   -0.73966051445014     -0.49138170494753     -0.49587738396745
  Cl  1.62158811515708     -0.26861970462431     -1.80933812428091
  H   -1.14907477615330     -0.18754747958617     -1.46049507429374
  H   -0.56657443883066     -1.57909173672045     -0.53588405108669
  C   0.51803893382731      1.62596934917985     -0.30711625180811
  N   0.46520401505347      2.79856922997029     -0.31379114696236
  N   1.22395748409038     -0.27977180346906      0.89430469618978
  H   2.08619319962760      0.21060179230951      1.09715365886135
  H   1.40996614443570     -1.27518930613855      0.84977811461773
  N   -1.60923876829261     -0.02504415745667      0.56394701202951
  H   -1.32063526829211     -0.40696675512903      1.45391644809167
  H   -2.56895432868655     -0.28570881300807      0.38327937367621
