13
Coordinates from ORCA-job run
  C   0.66701356741999      0.17582267886535     -0.27534233965249
  C   -0.66353005515980     -0.56362613464646     -0.46016774642677
  Cl  1.65992546395564     -0.23761791295189     -1.78758729865559
  H   -0.42189578477817     -1.62280209660814     -0.59028830732412
  H   -1.09893546166580     -0.20984115530040     -1.40370357857957
  C   0.46130363593698      1.62883397186308     -0.34019099309662
  N   0.23958362873630      2.78198375061643     -0.36931813301206
  N   1.29812053276071     -0.15858606858092      0.93540195457676
  H   2.24831459048239      0.17963420170605      0.99729784673692
  H   1.23718791554984     -1.14481117348499      1.14502331210018
  N   -1.50178391164344     -0.41790785655758      0.71785260457132
  H   -2.34711805030938     -0.96140717870531      0.59431684326208
  H   -1.77718607128528      0.55032497378479      0.83670583549997
