13
Coordinates from ORCA-job run
  C   0.66143299673795      0.16442749040154     -0.29149672389029
  C   -0.68165331933787     -0.57153636829904     -0.40079244821040
  Cl  1.56146524222126     -0.24424937963348     -1.86371484181128
  H   -1.11883925904385     -0.30284691435906     -1.37054115144305
  H   -0.45194096671594     -1.64098050844825     -0.43457573747300
  C   0.44526131637519      1.61513756409209     -0.33254391352407
  N   0.21339564914584      2.76640063590909     -0.34884068658593
  N   1.37306749723950     -0.17773751310762      0.87235701282667
  H   2.30296785016795      0.21803555888705      0.89514885125179
  H   1.40094531717946     -1.17680942271366      1.02279883965553
  N   -1.51250296131965     -0.29829566778122      0.75643301420206
  H   -1.92772860380002      0.62266746058199      0.68690339601207
  H   -2.26387075884982     -0.97321293552944      0.80786438898990
