13
Coordinates from ORCA-job run
  C   0.63259178852292      0.23152938433026     -0.25575265310082
  C   -0.61381423898955     -0.55910931698532      0.15989127182599
  Cl  0.61823410235292      0.33995740997881     -2.05713329562024
  H   -0.50100602740891     -1.56719760844581     -0.26908204147839
  H   -0.57018779243850     -0.65218968590443      1.25003118271075
  C   0.56409691277033      1.59175687832995      0.28970585172154
  N   0.53978941693738      2.65143331473914      0.79422938383393
  N   1.88879476195949     -0.36064154115717      0.13253306187919
  H   2.01175383320180     -0.29389100593408      1.13636033491081
  H   1.91648706364983     -1.33369416857795     -0.15010899624578
  N   -1.82844051664239      0.13901841353459     -0.20305135266204
  H   -2.60912170133399     -0.18210791878058      0.35204320454062
  H   -2.04717760258132     -0.00386415512741     -1.17966595231554
