13
Coordinates from ORCA-job run
  C   0.58362303475519      0.13880629177464     -0.32290101419553
  C   -0.94369162973589      0.11007253695064     -0.22702078528210
  Cl  1.14998300954056     -0.84725996581423     -1.69764346507755
  H   -1.20514838337825      0.80935506662344      0.58706211806931
  H   -1.35509790745029      0.51633775051213     -1.15394405912559
  C   1.02280421654146      1.52471105913962     -0.57426294626605
  N   1.34307620896403      2.64774764954829     -0.70761662375959
  N   1.14137066039468     -0.42365262164274      0.89306985508806
  H   0.97626740455417      0.21866561602925      1.66227709079660
  H   2.14264105622593     -0.54741227671592      0.79565789246262
  N   -1.40284806064577     -1.24899302592052     -0.04782209787653
  H   -2.41308739123946     -1.27613787882051     -0.02476440140003
  H   -1.03889221852637     -1.62324020166410      0.81790843656640
