13
Coordinates from ORCA-job run
  C   0.63093595380711      0.17591000167198     -0.30808492074960
  C   -0.73611339234925     -0.47357369115086     -0.51564967909034
  Cl  1.63255357835019     -0.20639997796826     -1.80807189817491
  H   -0.56298426511039     -1.55931303058889     -0.59246863806419
  H   -1.14056202854510     -0.13619394783620     -1.47118997212253
  C   0.52057806637622      1.63564624137313     -0.24897100091021
  N   0.45562217234694      2.80745592435951     -0.22399447190963
  N   1.22027253788494     -0.31076636272323      0.89120162323036
  H   1.40652293444140     -1.30404200533505      0.81340093498632
  H   2.08133079810396      0.17235486706709      1.11508165873255
  N   -1.61084819783140     -0.04463986503726      0.55562694774438
  H   -2.56967481825831     -0.29854278625301      0.36115706197115
  H   -1.32663333921632     -0.45789536757895      1.43296235435666
