13
Coordinates from ORCA-job run
  C   0.64428242950027      0.02756884509487     -0.26143915514606
  C   -0.67547314950991     -0.62318022320779      0.16539506157459
  Cl  0.96492061895206     -0.33448980739882     -1.97977910201343
  H   -0.58290930607015     -1.68085236044054     -0.08707297625053
  H   -0.72656229241781     -0.54568775933536      1.26251558782234
  C   0.52219169416973      1.49304100304186     -0.13728730106576
  N   0.42836576509751      2.64797592705673      0.06018589115821
  N   1.72350619375882     -0.53575544758821      0.51732946121421
  H   2.61386462382193     -0.16510268560887      0.20556766391345
  H   1.60042525451486     -0.29075096833884      1.49433037852233
  N   -1.79659190697515     -0.02484895131362     -0.52593077983318
  H   -2.51763552667530     -0.70389427512935     -0.71739238499135
  H   -2.19838439816685      0.73597670316793      0.00357765509516
