13
Coordinates from ORCA-job run
  C   0.71505586777804      0.02815183592862     -0.41366674861246
  C   -0.70017158167691     -0.55485466128830     -0.48491421967344
  Cl  1.59581737020040     -0.43998612502108     -1.90622640211772
  H   -1.17324624923749     -0.21878642593971     -1.41451023141963
  H   -0.57651747239104     -1.63880025440039     -0.52771423056867
  C   0.62663341096563      1.50191562774102     -0.40944238212194
  N   0.51364190706026      2.66972070703987     -0.33545696099113
  N   1.38149332325082     -0.51999729721886      0.72934295979015
  H   2.25508392862615     -0.04288754695102      0.91482431247426
  H   0.75148256395572     -0.41647249266053      1.51951010840020
  N   -1.40892605589478     -0.19005185194108      0.73482223852350
  H   -2.10705816171982     -0.88343575904146      0.96516467460480
  H   -1.87428885091700      0.70248424375292      0.62826688171210
