13
Coordinates from ORCA-job run
  C   0.62267815819045      0.24105935645961     -0.23177532011291
  C   -0.90756586012614      0.17739079807909     -0.16210123089333
  Cl  1.13297877376557     -0.97200548381564     -1.55642617542370
  H   -1.21733934418357      0.97785706911536      0.51457257715378
  H   -1.31150730144517      0.38283126610169     -1.15887963304200
  C   1.06641686962858      1.54670689351325     -0.72348717004326
  N   1.39661747249497      2.61015149378869     -1.09654886509903
  N   1.16785477337629     -0.03866232984892      1.03123876175383
  H   0.72600921007631     -0.87205017781864      1.40367837474682
  H   2.17565430762502     -0.11388914938466      1.02396942105513
  N   -1.29611831263609     -1.10330666005834      0.40779177231647
  H   -2.19453191320276     -1.02948780641929      0.86414004283431
  H   -1.36214683356349     -1.80659526971222     -0.31617255524611
