13
Coordinates from ORCA-job run
  C   0.60194985120970      0.33938253558534     -0.15740412328303
  C   -0.90369976567521      0.06008878815740     -0.23840415062664
  Cl  1.39646450063235     -0.70107306952453     -1.48749522346319
  H   -1.38352379091636      0.76463010244492      0.44560562159219
  H   -1.24331087383274      0.27189732539052     -1.25759801144943
  C   0.89125867205438      1.72392276776150     -0.53561286053032
  N   1.07413811039381      2.84558235162816     -0.83177519893042
  N   1.06840480418017      0.05566922291975      1.13624036863253
  H   0.71936455657853     -0.85336604805888      1.41963049659368
  H   2.07341211891566      0.11957075840833      1.22138935081087
  N   -1.15259118802638     -1.29627374612005      0.22388482742309
  H   -2.08702443762846     -1.37667892715042      0.59959746369129
  H   -1.05684255788545     -1.95335206144203     -0.53905856046062
