13
Coordinates from ORCA-job run
  C   0.71679016474994      0.15901525036873     -0.42605586994680
  C   -0.65168060945566     -0.54460256584441     -0.41580463882784
  Cl  1.55832348464164     -0.30291254718443     -1.93689914270249
  H   -0.45578626837462     -1.62018392932438     -0.42415198255490
  H   -1.19762063722886     -0.29074614081318     -1.33285092472258
  C   0.48608283607772      1.61161801501903     -0.44967800852169
  N   0.27068757175310      2.76481063996061     -0.50014481922030
  N   1.56982707294019     -0.15954446220097      0.69415959786512
  H   1.85734543329138     -1.12972796707623      0.61816841406056
  H   0.99795659220477     -0.05980860378275      1.52925879486224
  N   -1.32733369776261     -0.18049078412488      0.82198027070531
  H   -1.95612505792496     -0.91263125902921      1.12156967840429
  H   -1.86846688491203      0.66620435403206      0.70044863059905
