13
Coordinates from ORCA-job run
  C   0.58588094685125      0.34297237860535     -0.20136549084689
  C   -0.92480203374954      0.09113006245554     -0.12454276783938
  Cl  1.19485118886566     -0.59889671202864     -1.69295209653529
  H   -1.30527325783092      0.74585826873248      0.66354816109412
  H   -1.37660387450360      0.38725248182873     -1.07694140286623
  C   0.86184879392863      1.74899100011578     -0.50250132001128
  N   1.04787211393214      2.88606528984867     -0.72956324752670
  N   1.19416079281065     -0.04925706268844      1.00187709787080
  H   0.86061331989095     -0.97362569709493      1.25256475661884
  H   2.20339926015505     -0.00518077402178      0.97205620443023
  N   -1.14865719186781     -1.29404621233921      0.25817049702156
  H   -1.16277510162129     -1.88966015298434     -0.55909026262339
  H   -2.03151495686118     -1.39060287042925      0.73973987121356
