13
Coordinates from ORCA-job run
  C   0.61835671432526      0.12789371230962     -0.29014866275330
  C   -0.71746574406626     -0.59371123306379     -0.56039697239075
  Cl  1.70233369496534     -0.18424414062845     -1.74310342966155
  H   -1.07982695149946     -0.29689676844014     -1.54585196173658
  H   -0.49312764552282     -1.66520475010374     -0.60619884373930
  C   0.40375957270398      1.57600340240177     -0.23277104450262
  N   0.17597520153950      2.72712788137613     -0.18463851054450
  N   1.17690199676526     -0.32050472570135      0.93729440972064
  H   2.02252857759197      0.18072664497714      1.17953326972372
  H   1.37878430342449     -1.31271308875514      0.89123875010081
  N   -1.73953509522120     -0.34757583092358      0.42763243683543
  H   -2.07720517852627      0.60475854592404      0.36839190580420
  H   -1.37047944647977     -0.49565964937251      1.35801865314379
