13
Coordinates from ORCA-job run
  C   0.60102788989903      0.19969633786437     -0.08974483466674
  C   -0.67810694670130     -0.59971352718473      0.15317625491526
  Cl  0.70754495671884      0.49213963521622     -1.91542080674298
  H   -0.72437623623328     -0.76827020607449      1.23195215156454
  H   -0.54302336868930     -1.57531889233028     -0.33894836667431
  C   0.51623492379502      1.52651556635890      0.52443574685452
  N   0.49772307925674      2.57505567530128      1.05178341800234
  N   1.72446598440452     -0.49642764216091      0.42298026303619
  H   2.58318795888936      0.02434866157428      0.29687923039592
  H   1.81602213164226     -1.40475657754506     -0.01542899971019
  N   -1.84362470094466      0.14749385457424     -0.26657039519411
  H   -2.67056296485146     -0.18646823043031      0.20767598719842
  H   -1.98751270718573      0.06670534483648     -1.26376964897885
