13
Coordinates from ORCA-job run
  C   0.58619683699457      0.13218403144744     -0.04177258586162
  C   -0.70962076664988     -0.66994612344943      0.20794771871168
  Cl  1.00117424209740     -0.05412334344709     -1.83557063698605
  H   -0.90270767564376     -0.59486052167829      1.28157458791660
  H   -0.47979197807349     -1.71581952363260     -0.02109441142909
  C   0.33745103196037      1.56122044086452      0.15923187864680
  N   0.08175397201228      2.69271604779123      0.34294348828561
  N   1.61572893875198     -0.31229731372658      0.82049431430636
  H   2.48296462325455      0.19022077072688      0.67999612649210
  H   1.77812937281207     -1.30558331911733      0.70803072043112
  N   -1.88655381372768     -0.27414833864347     -0.51808338499718
  H   -1.73191178762580     -0.31351278925350     -1.51641665656370
  H   -2.17281299616259      0.66394998211824     -0.26928115895266
