13
Coordinates from ORCA-job run
  C   0.49443161242879      0.20239912810010     -0.30205680187657
  C   -1.02815014550917      0.14993272529310     -0.04585632999974
  Cl  0.88212483540540     -0.70833699746837     -1.79651192604598
  H   -1.53498058121995      0.63652387493529     -0.88187126352687
  H   -1.21225952182792      0.75961240538479      0.84727861478654
  C   0.91134174072967      1.59684124105930     -0.52502481548954
  N   1.22027877006537      2.72700477077480     -0.62401699692820
  N   1.18152370189413     -0.44282832821533      0.79508771259330
  H   1.04202414732701      0.10068741140664      1.64148742991697
  H   2.17715587973232     -0.49456164202440      0.61146596129814
  N   -1.57547650044118     -1.16805901278878      0.15542103885429
  H   -1.54579931813561     -1.69154802638823     -0.70999361807929
  H   -1.01121462044885     -1.66666755006891      0.83259099449694
