13
Coordinates from ORCA-job run
  C   0.51912894910494      0.18022527182081     -0.27312981956999
  C   -1.02007984547273      0.13851686877541     -0.14730282616194
  Cl  1.03590173264128     -0.84793871744892     -1.64744015359516
  H   -1.45180671978975      0.55080323310509     -1.06173876230768
  H   -1.28136306767887      0.81863236816168      0.67275008788765
  C   0.95379560268032      1.55450336892844     -0.57317106051493
  N   1.26707171008525      2.67586829841576     -0.73719141711050
  N   1.10719623883783     -0.36785076690329      0.92947240440241
  H   2.11480386713761     -0.43032487455551      0.83724346866853
  H   0.89688290603862      0.24413132051418      1.71211192877984
  N   -1.58308970956874     -1.16224624691398      0.11409083320902
  H   -1.07840232509009     -1.59993861068648      0.87522290519743
  H   -1.48003933892568     -1.75438151321317     -0.69991758888469
