13
Coordinates from ORCA-job run
  C   0.68274121970494      0.13656671967789     -0.30093957776623
  C   -0.59925025520923     -0.56497014906642      0.18316267760184
  Cl  0.92413397734231     -0.25646349926629     -2.03052713067992
  H   -0.47446346069281     -1.62878167024473     -0.03765384361847
  H   -0.61258125733096     -0.45037559464693      1.27838992758973
  C   0.49489725610480      1.58734552648174     -0.16972468864582
  N   0.29357941569168      2.72856002302103      0.01988241676647
  N   1.88634196737974     -0.24061539742317      0.40581457314764
  H   2.01805980763055     -1.24399751036004      0.34174064262974
  H   1.81444931518753      0.02592432584455      1.38172502818312
  N   -1.77429455131242     -0.05452762646890     -0.48779055860233
  H   -2.17297516821883      0.72858808129362      0.01133680457667
  H   -2.48163826627733     -0.76625322884233     -0.59441627118244
