13
Coordinates from ORCA-job run
  C   0.62697534521930      0.01725807694593     -0.43655819628507
  C   -0.78922377268010     -0.57994009767933     -0.54202963243057
  Cl  1.54902996754846     -0.45957186952616     -1.89262111154723
  H   -0.65649973934020     -1.66060669996259     -0.62882035496818
  H   -1.24286131114496     -0.21662468547852     -1.46746229043378
  C   0.53726285648657      1.48996251653726     -0.42666042719164
  N   0.41722041891263      2.65567085802103     -0.33056127147755
  N   1.30732908748900     -0.52089164262354      0.72002478798915
  H   0.84298334253799     -0.18869700822807      1.55828878304668
  H   2.26666726733509     -0.19355886626954      0.74660569840987
  N   -1.66864965857339     -0.29453340062817      0.56591560868399
  H   -1.81172937890936      0.69546321543062      0.71253581550604
  H   -1.37850442488103     -0.74293039653894      1.42234259069828
