13
Coordinates from ORCA-job run
  C   0.60594820202846      0.13877785932169     -0.30998214581472
  C   -0.73024186001031     -0.59493388816094     -0.54303201368283
  Cl  1.64168517225621     -0.14305892203953     -1.80422308049332
  H   -0.49543289794896     -1.66301909189439     -0.61037424882018
  H   -1.13008919608320     -0.29011167801459     -1.51140095222643
  C   0.37836822079136      1.58351105610850     -0.22638993893478
  N   0.14239455917896      2.73156035096249     -0.15169157660843
  N   1.21203087215440     -0.31842061409788      0.89117216386566
  H   1.42491912946950     -1.30716246255432      0.82517321259353
  H   2.05850174761335      0.19092586843632      1.11245390861017
  N   -1.71996531987090     -0.37327998146761      0.48293530433202
  H   -1.31719657006722     -0.52960365411172      1.39785066004302
  H   -2.06992205951164      0.57581515751197      0.44850870713629
