13
Coordinates from ORCA-job run
  C   0.57498714471592      0.08823139929502     -0.22640425172724
  C   -0.73535084416324     -0.69567641232103     -0.01360180092949
  Cl  0.69556476780340      0.56660272042762     -1.95226308513258
  H   -0.67463555366232     -1.56426257447832     -0.67324881277785
  H   -0.72317399981000     -1.06020133948642      1.02022161049069
  C   0.52942139549980      1.33564234245063      0.55955249804001
  N   0.48493851867733      2.27213342322873      1.26915842760314
  N   1.69710669423155     -0.76263902658553      0.07387781417965
  H   1.64571353152621     -1.06679859008044      1.04029860501794
  H   2.57250918884348     -0.27159963992992     -0.06652587914051
  N   -1.96952364209547      0.01117432149109     -0.23871430991147
  H   -2.02494801468784      0.35239745789893     -1.18887057917529
  H   -2.07160918687883      0.79299591808965      0.39551976346299
