13

C	0.0	0.0	0.0
C	-0.489758	0.177767	-1.453899
Br	2.048088	0.0	0.0
H	-1.262893	0.953079	-1.410537
H	-0.212579	0.895444	0.581433
H	0.322412	0.51876	-2.098742
N	-0.473688	-1.138543	0.696733
H	-1.435142	-0.927598	0.964866
H	-0.516028	-1.900139	0.026639
N	-1.024776	-1.085669	-1.960784
H	-1.068948	-1.038769	-2.97114
H	-1.985355	-1.128977	-1.621396
Cl	-3.58358	0.0	0.0
