13

C	0.0	0.0	0.0
C	-0.321453	0.964613	-1.176199
Br	2.021008	0.0	0.0
H	-0.061274	1.973922	-0.837463
H	-0.278479	0.429927	0.960761
H	0.364027	0.726715	-1.993749
N	-0.518408	-1.321409	-0.081408
H	-0.526163	-1.631966	-1.045128
H	-1.482086	-1.300738	0.248624
N	-1.661491	0.955403	-1.704176
H	-1.847939	0.101264	-2.211889
H	-2.392236	0.984471	-0.995813
Cl	-4.188748	0.0	0.0
