13

C	0.0	0.0	0.0
C	-0.449386	-0.192483	-1.438879
Br	1.977228	0.0	0.0
H	-0.150503	-1.204714	-1.759138
H	-0.276471	1.0034	0.321098
H	-1.5413	-0.155661	-1.387286
N	-0.503088	-0.954414	0.938141
H	-0.422183	-1.884136	0.539524
H	-1.503465	-0.750908	1.019226
N	0.023095	0.878185	-2.311155
H	-0.572956	0.926847	-3.12723
H	0.967956	0.684566	-2.617935
Cl	-3.661703	0.0	0.0
