14

C	0.0	0.0	0.0
C	-0.614217	-0.241946	-1.357282
F	1.356352	0.0	0.0
H	-1.701794	-0.253214	-1.197977
H	-0.290684	-1.246845	-1.647936
N	-0.364237	1.388773	0.552177
O	-1.061788	2.125319	-0.127185
O	0.13873	1.651623	1.6399
C	-0.43696	-0.993402	0.995098
N	-0.695752	-1.83934	1.766824
N	-0.134781	0.738946	-2.328618
H	-0.062981	0.296369	-3.233279
H	-0.824408	1.474742	-2.393694
Cl	-3.742759	0.0	0.0
