14

C	0.0	0.0	0.0
C	-0.570275	-0.126025	-1.397181
F	1.356386	0.0	0.0
H	-0.308474	-1.137612	-1.722087
H	-1.660239	-0.070397	-1.284901
N	-0.369942	1.328039	0.667373
O	-0.81187	2.222347	-0.039298
O	-0.094215	1.408816	1.859721
C	-0.442733	-1.089245	0.883301
N	-0.68082	-2.028011	1.547463
N	0.036625	0.845718	-2.305637
H	0.037586	0.453988	-3.236721
H	-0.546543	1.671649	-2.317904
Cl	-3.640389	0.0	0.0
