14

C	0.0	0.0	0.0
C	-0.56126	-0.185609	-1.394954
F	1.356411	0.0	0.0
H	-1.65068	-0.11025	-1.299005
H	-0.312636	-1.215668	-1.668801
N	-0.369437	1.358667	0.602241
O	-0.763187	2.232777	-0.156364
O	-0.135354	1.48295	1.800002
C	-0.441119	-1.048406	0.931902
N	-0.653195	-1.960423	1.639964
N	0.067695	0.735908	-2.33964
H	-0.525636	1.547994	-2.437293
H	0.134608	0.284008	-3.241637
Cl	-3.61655	0.0	0.0
