14

C	0.0	0.0	0.0
C	-0.463518	-0.263181	-1.43718
F	1.356574	0.0	0.0
H	-1.532741	-0.05708	-1.480538
H	-0.328313	-1.339026	-1.592118
N	-0.37287	1.384559	0.521717
O	-0.561893	2.267893	-0.307469
O	-0.333158	1.530369	1.73703
C	-0.447208	-1.008649	0.966178
N	-0.54874	-1.919603	1.701842
N	0.266713	0.464637	-2.460992
H	0.019119	1.442044	-2.388252
H	1.26334	0.385713	-2.299599
Cl	-3.357535	0.0	0.0
