14

C	0.0	0.0	0.0
C	-0.537855	0.184061	-1.408787
F	1.355101	0.0	0.0
H	-1.44967	0.774551	-1.349169
H	0.234006	0.741927	-1.947358
N	-0.331744	1.218454	0.865494
O	-0.317835	2.296814	0.282403
O	-0.440046	1.046036	2.07251
C	-0.446526	-1.216	0.689228
N	-0.598743	-2.242267	1.238214
N	-0.7323	-1.132756	-2.010961
H	-1.649151	-1.442952	-1.694325
H	-0.797969	-1.014734	-3.014749
Cl	-3.349851	0.0	0.0
