14

C	0.0	0.0	0.0
C	-0.562853	0.089376	-1.424634
Cl	1.782902	0.0	0.0
H	-1.651598	-0.039579	-1.273853
H	-0.339619	-0.926198	0.464975
C	-0.422006	1.132833	0.826129
N	-0.63561	2.040048	1.54055
C	-0.058342	-1.021661	-2.226609
N	0.343436	-1.897298	-2.899318
C	-0.296246	1.43075	-2.102258
H	0.773341	1.639303	-2.181854
H	-0.780316	2.22341	-1.528398
H	-0.727841	1.426327	-3.104881
Cl	-3.439969	0.0	0.0
