14

C	0.0	0.0	0.0
C	-0.364203	0.103698	-1.527275
Cl	1.782655	0.0	0.0
H	-1.440784	0.015107	-1.699751
H	-0.378153	-0.937791	0.409907
C	-0.460218	1.13463	0.795467
N	-0.603078	2.024207	1.542317
C	0.213107	-1.064824	-2.220322
N	0.508473	-2.038455	-2.810722
C	0.103146	1.412623	-2.188508
H	1.191338	1.515967	-2.224525
H	-0.281513	1.434227	-3.21701
H	-0.325804	2.259065	-1.644533
Cl	-3.096297	0.0	0.0
