14

C	0.0	0.0	0.0
C	-0.555544	0.276231	-1.404353
Cl	1.781844	0.0	0.0
H	-0.180111	-0.528822	-2.047987
H	-0.332587	-0.989703	0.319001
C	-0.446295	1.000059	0.969315
N	-0.751343	1.826771	1.745658
C	-0.01806	1.534584	-1.928775
N	0.394663	2.540749	-2.370908
C	-2.087112	0.279557	-1.386636
H	-2.493075	-0.642171	-0.970614
H	-2.477136	0.390553	-2.399362
H	-2.495992	1.084313	-0.777463
Cl	-5.080662	0.0	0.0
