14

C	0.0	0.0	0.0
C	-0.564336	0.111546	-1.422985
Cl	1.782667	0.0	0.0
H	-1.653537	-0.014868	-1.271111
H	-0.338764	-0.9337	0.450309
C	-0.423745	1.119451	0.842749
N	-0.646277	2.017122	1.56641
C	-0.067064	-0.991711	-2.239915
N	0.328305	-1.859764	-2.926034
C	-0.294103	1.460879	-2.082922
H	-0.772835	2.2473	-1.496249
H	0.775762	1.666469	-2.163952
H	-0.729954	1.471776	-3.083406
Cl	-3.44375	0.0	0.0
