16
Coordinates from ORCA-job run
  C   -0.78633978083574      0.07291957866219      0.34735673104887
  C   0.58989241367611      0.59468541892086      0.76463109220200
  H   -1.53420562219355      0.44506770456656      1.05203272859969
  H   0.83379577902196      0.13025498985944      1.72599517518460
  H   0.50155525172435      1.66982688238175      0.94325128357148
  C   -0.88850738386371     -1.43084743698848      0.20093282186306
  H   -0.19360397609702     -1.81340872454203     -0.54400475350870
  H   -0.66757801448866     -1.89475241481171      1.16541190912584
  H   -1.89550032935407     -1.72489533775448     -0.09910621377659
  N   -1.14057558184418      0.76118367993968     -0.94523016907928
  O   -1.05919339563625      0.12119942807389     -1.99181562489131
  O   -1.43730886003435      1.95130001322437     -0.86155262500187
  C   1.69979129865171      0.32589321118268     -0.24743701723837
  H   1.49132706188362      0.80219850279795     -1.20758637684007
  H   2.64458545873012      0.73043154683649      0.12163004277049
  H   1.84486568065966     -0.74105704234916     -0.42450900402985
