16
Coordinates from ORCA-job run
  C   -0.63140223584348      0.16726867126107      0.17353193610873
  C   0.72179512752093      0.61894537598085     -0.36705376735591
  H   -0.81796036209576      0.61673469037486      1.15118682131556
  H   0.71012695065452      1.71127661630264     -0.44731668274897
  H   0.83827031513814      0.22098079060057     -1.37950902726192
  C   -0.81824935213125     -1.33814666868137      0.21626121483774
  H   -0.60366644162982     -1.77707111214509     -0.75880206629232
  H   -1.84338015598881     -1.59274994991044      0.49395441831661
  H   -0.15098117383580     -1.77618894930873      0.95984992164630
  N   -1.68793337983433      0.76249954820027     -0.71089193056594
  O   -1.78729817601068      0.30298283686499     -1.84689393817957
  O   -2.36143560667120      1.68414075615925     -0.25276078660645
  C   1.88061498762550      0.17994731189786      0.52260334212533
  H   2.81907046427181      0.60504737108328      0.16095855685501
  H   1.99548559299791     -0.90528034660219      0.53354757251563
  H   1.73794344583232      0.51861305792219      1.55233441529018
