14
Coordinates from ORCA-job run
  C   -0.48781868450189     -0.09461225641554     -0.13492569468529
  C   0.69570238868863      0.55722568797137      0.03280181229967
  N   -1.61222682190777      0.58693962275300     -0.76492359587570
  O   -2.53533052758322     -0.11881664454389     -1.17482545764001
  O   -1.58016705808858      1.81425420197419     -0.84498884631720
  C   -0.66034263408982     -1.52053091340881      0.26843013694051
  H   -1.59326722861952     -1.91067867287256     -0.13044725945316
  H   -0.68554985350995     -1.62511993846051      1.35926720556192
  H   0.16369088182737     -2.12932849869363     -0.11634294418638
  C   0.97443580177474      1.89038954286837     -0.42112447912650
  N   1.37785377872229      2.94972256853359     -0.73785652496108
  N   1.79703892835218     -0.08411881221623      0.57367554833414
  H   1.60257923402530     -0.83678511683082      1.21553981595556
  H   2.54340179491023      0.52245922934146      0.87472028315352
