14
Coordinates from ORCA-job run
  C   -0.40168293424978     -0.20956791511484     -0.06612332657397
  C   0.72773601069675      0.56312154485396      0.04893241148793
  N   -1.23393889383996     -0.09071167779402     -1.24064096898696
  O   -2.18332288785389     -0.87064176772599     -1.33604257009490
  O   -0.96539908579586      0.77386722824474     -2.09012755656087
  C   -0.83947867061694     -1.24960891581239      0.91329218639666
  H   -0.84056597813226     -2.23867431871078      0.45064140905661
  H   -0.18351020420943     -1.26571722878876      1.78294228687797
  H   -1.85994536576562     -1.04912037962974      1.24624423003096
  C   1.54056709099340      0.35772855002996      1.21952784516713
  N   2.23803745374922      0.20816316837977      2.15543686257674
  N   1.15931524694513      1.58018632055073     -0.75154817452028
  H   0.71261503085672      1.65400661780808     -1.65292861618923
  H   2.12957318722251      1.83796877370931     -0.67860601866779
