14
Coordinates from ORCA-job run
  C   -0.49908798588892     -0.09336665156577     -0.01190632412911
  C   0.67486170207744      0.59381254957559     -0.03692156336597
  N   -1.72601225794368      0.57976833386656      0.38748482354504
  O   -1.79034171268706      1.80483694549712      0.29773588850638
  O   -2.63310411347845     -0.14825798856821      0.79690370588144
  C   -0.58678735456669     -1.55690459075432     -0.28678907184670
  H   0.10457386629772     -1.82819129021530     -1.08890321308656
  H   -1.59600552267998     -1.82122196188580     -0.59725287015328
  H   -0.35374090493189     -2.15496288542038      0.60061059156331
  C   0.79990364095386      2.00231895996146      0.21257465904513
  N   1.08692822330846      3.12660734166860      0.40924662939837
  N   1.87208412007964     -0.01558105982211     -0.37998029464611
  H   2.69921197608279      0.50821012231517     -0.14054763980549
  H   1.94551632337677     -0.99706782465261     -0.16225532090645
