14
Coordinates from ORCA-job run
  C   -0.38828937226159     -0.21985997630881     -0.10229727229725
  C   0.80007292584226      0.45577773316925      0.02858322093620
  N   -1.26117867316813      0.07467435330252     -1.21478702904420
  O   -2.34322200942587     -0.51447955298093     -1.24946166555528
  O   -0.89539407128618      0.89254305173777     -2.07402366066769
  C   -0.91602018457935     -1.23308248090098      0.86079374270097
  H   -0.20269330764543     -1.41558562996414      1.66381431679263
  H   -1.11568019657374     -2.17573325111314      0.34700521369803
  H   -1.85971244369695     -0.89601143046197      1.29452424211168
  C   1.60223106628055      0.14395835706772      1.18299991372845
  N   2.27999949323896     -0.07344981359119      2.12006096148961
  N   1.39028414247232      1.33313350316156     -0.83356530329471
  H   0.80163863430060      1.69817370660988     -1.56660910116321
  H   2.10796399650254      1.92994143027245     -0.45703757943523
