14
Coordinates from ORCA-job run
  C   -0.48880772750617     -0.08085763478613      0.05835202811302
  C   0.70649537197129      0.55950562309431     -0.07300579765270
  N   -1.70457471377041      0.69565242034357      0.29446093429676
  O   -2.70580569835404      0.06559565967135      0.64020657600975
  O   -1.66785453874697      1.91421163983305      0.13655307768679
  C   -0.65167809557232     -1.55740201844066     -0.08166276608186
  H   -0.79479084332533     -1.84209002602009     -1.12834799284427
  H   0.21679824859322     -2.09536781172080      0.30499684808999
  H   -1.52322064272034     -1.88552771586453      0.47921297516808
  C   0.89839439025667      1.97370750885498      0.10167595888946
  N   1.25384085137332      3.08623187750868      0.24611450768061
  N   1.86777673843702     -0.08814911063249     -0.45498948217824
  H   1.86830377317660     -1.09245538670968     -0.37882816770196
  H   2.72312288618747      0.34594497486844     -0.14373869947544
