14
Coordinates from ORCA-job run
  C   -0.49841955570424     -0.08108753635930      0.07294422488306
  C   0.68192417471030      0.58231196511521     -0.06382150114324
  N   -1.75408832033757      0.60414576586452     -0.19882597840800
  O   -2.72517934697927     -0.11670205341393     -0.43894597140209
  O   -1.77786049627920      1.83359061375952     -0.17467471779533
  C   -0.56938423391387     -1.53433183339861      0.40224354110361
  H   -0.40815958621019     -2.16278469033443     -0.48038468121617
  H   -1.55176762499735     -1.78244539910402      0.79917451715909
  H   0.18341922527867     -1.78274606962395      1.15529820118388
  C   0.80536656427689      1.98010721907269     -0.36673708165148
  N   1.09152383211171      3.09138951295789     -0.62842154002263
  N   1.89860597530829     -0.04529206701604      0.15682680718994
  H   1.92474456869033     -1.03441676895686     -0.03585328037356
  H   2.70127482404550      0.45026134143730     -0.19882253950710
