14
Coordinates from ORCA-job run
  C   -0.39686175160337     -0.23795401874118     -0.08085183374684
  C   0.73408044989619      0.53653756575387      0.03267122363003
  N   -1.29456139058996     -0.00452873013258     -1.18533356747092
  O   -1.17019919954177      1.03721410175206     -1.85099038147970
  O   -2.13833168533744     -0.86962006388701     -1.42248286038671
  C   -0.79853574904757     -1.32666576275957      0.85887176803132
  H   -0.94163650432454     -2.26395779340497      0.32249490102067
  H   -1.73957114550705     -1.07998635788096      1.35525655898206
  H   -0.03781262053759     -1.47952756523879      1.62405140917332
  C   1.62545275437212      0.22670036925970      1.12163729427264
  N   2.37259662795895      0.01000384737383      2.00336661180817
  N   1.17390889509461      1.54086779407700     -0.76299163374038
  H   2.05458866669659      1.98583148448409     -0.56326689603815
  H   0.55488265247083      1.92608512934451     -1.45343259405552
