14
Coordinates from ORCA-job run
  C   -0.35586975909253     -0.26639698089317     -0.10811743529946
  C   0.74105618926950      0.54445096665416      0.04834345664387
  N   -1.14370170151096     -0.18180041332598     -1.31592085526637
  O   -2.14708536598228     -0.89470740513928     -1.38130278003363
  O   -0.78757253799020      0.58954719647674     -2.22094639640139
  C   -0.86185127853703     -1.23964419474553      0.90659272655608
  H   -1.87767144592734     -0.98179157280099      1.21319959618638
  H   -0.89870157368873     -2.24521124430521      0.48196146763430
  H   -0.21967000355504     -1.25323905467753      1.78670142385052
  C   1.46227833427110      0.43301427149160      1.28949366004804
  N   2.07338836830200      0.38205129494297      2.29394142927209
  N   1.31703446371724      1.39448529510774     -0.85016350136920
  H   1.93455974461826      2.09896193891748     -0.48220818637776
  H   0.76480656610599      1.62227990229700     -1.66257460544349
