14
Coordinates from ORCA-job run
  C   -0.50768614396025     -0.04245811625521     -0.00686534835398
  C   0.72918290108850      0.52065936842401     -0.07182662145602
  N   -1.63115713629751      0.59278263406187     -0.67956694581567
  O   -1.56638788238400      1.79289184839918     -0.94163128230321
  O   -2.58859901723952     -0.13807873346491     -0.94299973191183
  C   -0.76184114519859     -1.35463095582479      0.65580263003748
  H   -0.17321680774880     -1.42832718782417      1.57422000342864
  H   -0.50827820928533     -2.19804647113921      0.00443587538116
  H   -1.81554677123592     -1.44976077030528      0.91058642016462
  C   1.01974331519176      1.78203784781255     -0.69313011953523
  N   1.44071962273949      2.77119113182931     -1.17224831097763
  N   1.83121627015878     -0.06684611341317      0.52930862884610
  H   1.80976791528668     -1.07162379901232      0.60703016572118
  H   2.72308308888471      0.29120931671215      0.22588463677439
