14
Coordinates from ORCA-job run
  C   -0.36178590370498     -0.25705932492953     -0.11288645496681
  C   0.73662716140845      0.55038627029907      0.05284583216684
  N   -1.30412843215665      0.02386678955911     -1.17055216704165
  O   -2.30196033817114     -0.69659513373943     -1.23799472382970
  O   -1.07722897745245      0.95954849771762     -1.95419945720753
  C   -0.72144169303727     -1.41498963579717      0.76027003156753
  H   -1.68571422662441     -1.24611356414789      1.24404544226027
  H   0.03618711554829     -1.57411534995109      1.52683543144905
  H   -0.81533073615709     -2.32502237416081      0.16410412772790
  C   1.61436072414780      0.23853923614043      1.15089692338766
  N   2.34748636645852      0.02412526186202      2.04602919135111
  N   1.17892407408940      1.57313857125738     -0.73427037747532
  H   1.83126205647756      2.21884297771699     -0.32136221411401
  H   0.52274280917395      1.92644777817329     -1.41376158527534
