14
Coordinates from ORCA-job run
  C   -0.38139642774043     -0.23717843031684     -0.09048767708246
  C   0.77541369725404      0.49655144005348      0.00428843394559
  N   -1.32431402479463      0.04518548453821     -1.14740879102399
  O   -2.37359818484142     -0.60135457386274     -1.14979292518185
  O   -1.04677996902874      0.90937222300156     -1.99425072568155
  C   -0.80569801065225     -1.30676679534235      0.86266018917699
  H   -0.98028205706174     -2.24333744987210      0.32942891283875
  H   -1.74322322966470     -1.03443094459836      1.35174166879884
  H   -0.04479626550611     -1.47319594229827      1.62442016052350
  C   1.65165105688451      0.19132478396163      1.10539716303934
  N   2.38709431169530     -0.01887505953322      1.99961391973904
  N   1.27345020012024      1.43194500349106     -0.85470401038052
  H   1.98039668549693      2.05203019485478     -0.49615858677940
  H   0.63108221783898      1.78773006592316     -1.54574773193230
