14
Coordinates from ORCA-job run
  C   -0.37430417171326     -0.25077587754661     -0.08023194149124
  C   0.78145109809713      0.48813242903060     -0.01486486916077
  N   -1.19759650142068     -0.19027894302684     -1.26541884422631
  O   -0.81541174892246      0.48140593294057     -2.23694408632192
  O   -2.25593848277793     -0.82171293723315     -1.24533245365323
  C   -0.91617778623729     -1.10508073404530      1.01938893634574
  H   -0.24029000048561     -1.11541699798950      1.87372935560185
  H   -1.89270053661723     -0.73982350817622      1.34389559921182
  H   -1.05612062894712     -2.12974888551812      0.66888248936820
  C   1.53182291145083      0.41519350460778      1.21189014143378
  N   2.16579795837659      0.39244056948375      2.20299458866821
  N   1.38504739129721      1.22882668314828     -0.98868483729016
  H   2.06079220336756      1.91229316329562     -0.68971688171070
  H   0.82362829453229      1.43554560102912     -1.80058719677527
