14
Coordinates from ORCA-job run
  C   -0.42065209193744     -0.17565437275152     -0.03666218206763
  C   0.78616929500083      0.47947108678660     -0.03370226888033
  N   -1.26870438110837     -0.11141322057815     -1.20385874736739
  O   -0.91867036117476      0.58245274727804     -2.17191957857870
  O   -2.31370334958462     -0.76436264475249     -1.17372733559986
  C   -0.94502502327044     -1.02317504659157      1.07665416781270
  H   -0.26219912854298     -1.01782446478501      1.92546201906250
  H   -1.08661885320103     -2.05262692474323      0.74138258042821
  H   -1.91896254041132     -0.65531572974073      1.40624037023822
  C   1.59968430026130      0.34057924798463      1.14603573673844
  N   2.29923567567598      0.24118511975777      2.08705210595598
  N   1.30393477848610      1.33248151779071     -0.96470902518983
  H   0.85046568862136      1.33159326042917     -1.86558309781179
  H   2.29704599118539      1.49360942391578     -0.93266474474051
