14
Coordinates from ORCA-job run
  C   -0.37436873120626     -0.24182707617527     -0.10241684246232
  C   0.76061669703856      0.51932874333456      0.03318250324360
  N   -1.31633175393426      0.05731450128350     -1.15527945697999
  O   -2.34660145946195     -0.61817893818015     -1.19413586339904
  O   -1.05772401456455      0.96420692584473     -1.96257708914987
  C   -0.77301410538775     -1.36553837470137      0.79820586603042
  H   -0.01217454593420     -1.54690990169516      1.55653311816834
  H   -1.72108245377602     -1.14413766264526      1.29281772737820
  H   -0.91767219442368     -2.28034460827293      0.21950436967244
  C   1.63662319653823      0.19131150697457      1.12786694892499
  N   2.37122055464481     -0.03832190978744      2.01795762601304
  N   1.23818554103163      1.50406370761187     -0.78113289983327
  H   1.92323792583155      2.12895144533851     -0.38968963706716
  H   0.58908534360389      1.87008164106981     -1.46083637053939
