14
Coordinates from ORCA-job run
  C   -0.50474877527144     -0.08624708809669      0.06468034781871
  C   0.66168891724544      0.55298098015835     -0.22665378383008
  N   -1.77269016098676      0.62784035741722     -0.02773557689521
  O   -1.74713588579529      1.85496945398529     -0.11102342999186
  O   -2.80029911451485     -0.05180905847757     -0.01011753805806
  C   -0.53075272599475     -1.52921748008272      0.44330920197110
  H   0.05608930280457     -2.12021394312517     -0.26670967270992
  H   -0.11748807375463     -1.68549642581830      1.44641371878833
  H   -1.55346435390495     -1.89730798058229      0.43845001595703
  C   0.76931601035440      1.90626618766590     -0.69418501520333
  N   1.04552507822060      2.97755422544759     -1.09565221710395
  N   1.87223239863324     -0.11817292671703     -0.19956232225275
  H   1.93246479924739     -0.90163434801770      0.43198939815644
  H   2.69026258371703      0.47048804624313     -0.19420312664644
