14
Coordinates from ORCA-job run
  C   -0.39976428330877     -0.20976020888053     -0.07631770759432
  C   0.71833582975624      0.57030255958945      0.08786452437510
  N   -1.27493729326899      0.02061335590970     -1.20198625092461
  O   -2.22058073004762     -0.75689628496484     -1.34457736171548
  O   -1.04457007187254      0.97106322442643     -1.96651626383314
  C   -0.78501628080795     -1.36031354327594      0.79584501629673
  H   -0.09880549951558     -1.45829215754649      1.63626313373145
  H   -1.79654754182306     -1.22005263513293      1.18224980619408
  H   -0.78411302538122     -2.29224340058231      0.22671130669250
  C   1.57594583871893      0.25342340522464      1.20031550005535
  N   2.31005566628276      0.01454478526433      2.08836747576691
  N   1.10273368947724      1.68007771782356     -0.60750801555053
  H   2.07109570188955      1.94652248388455     -0.53874011357114
  H   0.62616799990102      1.84001069826039     -1.48197104992291
