14
Coordinates from ORCA-job run
  C   -0.38919875346390     -0.22631368067321     -0.07963598489286
  C   0.70465979792567      0.58981739924232      0.07250947048545
  N   -1.21188298854586     -0.10933232407087     -1.26103280363437
  O   -2.14113698776986     -0.91034109065438     -1.37870701066963
  O   -0.95636306838559      0.77513026099450     -2.09386793092646
  C   -0.80215899036538     -1.30308091681572      0.87069888921632
  H   -0.14838192195007     -1.32581755788279      1.74188748478407
  H   -0.77553464188115     -2.27873415331270      0.38104806828247
  H   -1.82873104073151     -1.13909786090930      1.20512007964349
  C   1.50587204346576      0.39040884480798      1.25204164432749
  N   2.19206284837674      0.24853709589940      2.19744733340377
  N   1.10788917549123      1.64089592705473     -0.69878280400819
  H   2.06492568797534      1.93686616708931     -0.60019247842179
  H   0.67997883985859      1.71106188923072     -1.60953395758975
