14
Coordinates from ORCA-job run
  C   -0.49393348123221     -0.08746468357749      0.09143947982276
  C   0.72824626402121      0.50903639502812      0.13674776789090
  N   -1.69345992065030      0.69793459385492      0.33432039563667
  O   -1.60584398814303      1.72226420671960      1.01004686471479
  O   -2.73348710452388      0.26743118133070     -0.16900902997095
  C   -0.68117253343591     -1.51450971275999     -0.30204521108012
  H   -0.66462926466489     -1.64417058123269     -1.38983510073174
  H   0.11119463466467     -2.12764020403752      0.13522820644819
  H   -1.64206683334111     -1.88159590684484      0.05289245164607
  C   0.94949713059249      1.87953190071282      0.50316142922521
  N   1.30195876608452      2.97526161491352      0.74812572708455
  N   1.89374021744723     -0.19038899339927     -0.12451341352388
  H   1.82065717335955     -0.98488246135322     -0.73883977570007
  H   2.70929893982166      0.37819265064535     -0.28771979146241
