14
Coordinates from ORCA-job run
  C   -0.38736092014818     -0.22340922402332     -0.09641642347313
  C   0.79180106804495      0.47108480195859      0.01895377172997
  N   -1.30108234439368      0.08956153890469     -1.17046537008188
  O   -2.37193214322175     -0.52031174030371     -1.19086218217331
  O   -0.97928232260927      0.94281159873955     -2.01272843297009
  C   -0.86334583408615     -1.27979966622525      0.84700231439169
  H   -0.12154112705762     -1.47363251039940      1.62098619298344
  H   -1.06017839924856     -2.20869794473007      0.30775575370293
  H   -1.79962586506858     -0.97805908235852      1.32105019151000
  C   1.63708272841040      0.13723453069101      1.13580113655834
  N   2.34883986784632     -0.09827262176243      2.04275705716760
  N   1.33590152605948      1.38876724042853     -0.83128731416061
  H   0.71674814649665      1.76482466394134     -1.53295819653319
  H   2.05497561897600      1.98689841513898     -0.45958849865178
