14
Coordinates from ORCA-job run
  C   -0.38398039891687     -0.22924848455930     -0.09747484843961
  C   0.78909837265538      0.47518683662636      0.01792521945472
  N   -1.28617106657136      0.05517070452256     -1.18898221454273
  O   -2.35399469941394     -0.56003227750693     -1.20893935214344
  O   -0.95858646649316      0.89251819241792     -2.04499510712294
  C   -0.86659561322096     -1.26601854330708      0.86424272623971
  H   -1.04325255233940     -2.21069087529681      0.34565053305929
  H   -1.81516654795139     -0.96253330082479      1.31193615628123
  H   -0.13766960387283     -1.43103170400418      1.65672995531829
  C   1.62057863388611      0.17267398523012      1.15380083473054
  N   2.32063296703869     -0.03647976589744      2.07627203566073
  N   1.34008785451172      1.37606590561994     -0.84611842264517
  H   0.72792725859248      1.73299653885151     -1.56371263263521
  H   2.04809186209553      1.98842278812810     -0.47633488321541
