14
Coordinates from ORCA-job run
  C   -0.33930823663126     -0.28247392799886     -0.12121231468368
  C   0.71732835619040      0.57395720832042      0.06801920604886
  N   -1.13320771708489     -0.18620396002697     -1.32385638829739
  O   -2.10673141130215     -0.93656319802665     -1.41438498163786
  O   -0.81053438696417      0.63086326126688     -2.20106659680143
  C   -0.80339142473754     -1.31050239877672      0.85889494701540
  H   -0.15440363447890     -1.33614566249599      1.73350693583041
  H   -0.80964801811037     -2.29948864406650      0.39587249956071
  H   -1.82526477896574     -1.10029253916273      1.18132865281995
  C   1.43867248630443      0.45326418808746      1.30832381072445
  N   2.04443288643009      0.39558338134376      2.31555284376596
  N   1.25315247532991      1.48303662925376     -0.79654483206422
  H   1.83534819572427      2.20211440428229     -0.40036509352341
  H   0.69255520829591      1.71185125799986     -1.60306868875774
