16

C	-0.486729	0.00587	-1.431448
C	0.0	0.0	0.0
F	-1.899236	0.002364	-1.413625
H	1.092718	0.0	0.0
H	-0.179621	-0.918079	-1.924298
C	0.001007	1.221408	-2.174643
H	-0.353811	1.190986	-3.206804
H	-0.366444	2.123241	-1.686607
H	1.093943	1.238316	-2.163276
N	-0.400715	-1.351779	0.603503
O	-1.060039	-1.348943	1.643929
O	-0.032349	-2.361604	0.011142
N	-0.498454	1.104311	0.74119
H	0.01131	1.188774	1.610522
H	-1.482277	0.978553	0.941732
Br	3.492423	0.0	0.0
