16

C	-0.535532	0.012756	-1.423647
C	0.0	0.0	0.0
F	-0.25649	1.287879	-1.942097
H	1.096216	0.0	0.0
H	-1.623496	-0.07829	-1.412855
C	0.126677	-1.019646	-2.301562
H	1.211157	-0.916701	-2.231622
H	-0.190977	-0.884206	-3.337751
H	-0.160859	-2.021392	-1.980583
N	-0.439963	-1.26951	0.680537
O	0.17395	-1.583934	1.698231
O	-1.418119	-1.879314	0.22969
N	-0.557952	1.082189	0.787111
H	-0.620262	1.884667	0.173654
H	0.120371	1.314247	1.503772
Br	3.459081	0.0	0.0
