16

C	-0.43096	0.034002	-1.456335
C	0.0	0.0	0.0
F	-1.829862	0.217769	-1.505661
H	1.091423	0.0	0.0
H	-0.225994	-0.93056	-1.921156
C	0.242594	1.158008	-2.200114
H	-0.054371	1.149064	-3.250216
H	1.325093	1.041321	-2.120306
H	-0.037075	2.119846	-1.766582
N	-0.469392	-1.330703	0.572792
O	-1.236438	-1.339913	1.527467
O	-0.04913	-2.333985	-0.002356
N	-0.464556	1.080336	0.795607
H	-1.315173	1.49212	0.442296
H	0.263601	1.763966	0.935748
Br	3.486289	0.0	0.0
