16

C	-0.429202	-0.089668	-1.453868
C	0.0	0.0	0.0
F	-1.832379	0.05526	-1.516396
H	1.090352	0.0	0.0
H	-0.19922	-1.082357	-1.839888
C	0.214935	0.988464	-2.287249
H	-0.099617	1.973469	-1.937211
H	1.300813	0.911788	-2.194917
H	-0.075386	0.882281	-3.334928
N	-0.471311	-1.281803	0.676703
O	-0.042523	-2.3286	0.191694
O	-1.255336	-1.213186	1.619054
N	-0.468676	1.139712	0.704311
H	-1.324481	1.515502	0.325915
H	0.254727	1.837617	0.785303
Br	3.489659	0.0	0.0
