16

C	-0.434544	0.027664	-1.455275
C	0.0	0.0	0.0
F	-1.840398	0.144828	-1.502283
H	1.091507	0.0	0.0
H	-0.18363	-0.922479	-1.928008
C	0.181134	1.187791	-2.193933
H	-0.126494	1.172186	-3.241525
H	1.268938	1.119999	-2.127363
H	-0.141043	2.131855	-1.750545
N	-0.472711	-1.328396	0.56345
O	-1.297399	-1.334541	1.472039
O	-0.010185	-2.332431	0.023863
N	-0.468229	1.073559	0.806541
H	0.226156	1.803969	0.862504
H	-1.364783	1.426046	0.501794
Br	3.509263	0.0	0.0
