16

C	-0.549996	-0.063521	-1.424089
C	0.0	0.0	0.0
F	-0.212361	1.126375	-2.05394
H	1.090732	0.0	0.0
H	-1.647843	-0.09388	-1.382752
C	0.0192	-1.206741	-2.234737
H	-0.349145	-2.17194	-1.885532
H	1.108082	-1.197157	-2.155386
H	-0.272869	-1.079363	-3.279541
N	-0.440983	-1.316063	0.646468
O	0.304496	-2.28763	0.582894
O	-1.566872	-1.327736	1.159667
N	-0.490795	1.129187	0.712368
H	0.117863	1.32682	1.495143
H	-1.434711	0.966719	1.037627
Br	3.547018	0.0	0.0
