13

C	0.0	0.0	0.0
C	-0.286035	-0.003636	-1.531162
Cl	1.777228	0.0	0.0
H	0.228865	-0.889147	-1.910204
H	-0.382716	-0.925453	0.425351
C	-0.446301	1.147258	0.785432
N	-0.56098	2.061171	1.515855
N	0.460179	1.1488	-2.186158
O	1.171426	0.866907	-3.1449
O	0.260481	2.26734	-1.731635
C	-1.607541	0.023037	-2.176961
N	-2.214062	0.009745	-3.194322
Br	-3.197617	0.0	0.0
