13

C	0.0	0.0	0.0
C	-0.559735	0.059445	-1.412993
Cl	1.775109	0.0	0.0
H	-1.676627	0.065435	-1.266777
H	-0.357992	-0.918495	0.463529
C	-0.428564	1.166163	0.77443
N	-0.600706	2.12928	1.424481
N	-0.245127	-1.20817	-2.154157
O	-0.182997	-2.234635	-1.485517
O	-0.145617	-1.137943	-3.375336
C	-0.110486	1.213729	-2.169428
N	0.217167	2.16949	-2.76894
Br	-3.466674	0.0	0.0
