19

C	0.0	0.0	0.0
C	-0.562008	0.075445	-1.414037
F	1.356214	0.0	0.0
H	-1.643701	0.212114	-1.234436
N	-0.335408	1.310495	0.74802
O	-0.948341	2.208381	0.181592
O	0.094588	1.384737	1.898214
C	-0.566202	-1.122027	0.823924
H	-1.663649	-1.01088	0.715096
H	-0.233458	-1.012938	1.856174
H	-0.196291	-2.073129	0.432919
C	-0.315399	-1.24658	-2.128702
H	-0.639157	-1.162073	-3.170865
H	0.746912	-1.509596	-2.123607
H	-0.899192	-2.046093	-1.675386
N	0.106248	1.148267	-2.175831
H	-0.343802	2.017656	-1.917204
H	-0.102362	0.995319	-3.156673
F	-2.96827	0.0	0.0
