19

C	0.0	0.0	0.0
C	-0.251685	0.008747	-1.532242
F	1.376905	0.0	0.0
H	0.433308	0.793276	-1.883886
N	-0.336034	1.368174	0.595748
O	-0.205044	2.349154	-0.13549
O	-0.612534	1.422368	1.789859
C	-0.663502	-1.076091	0.779566
H	-1.751072	-0.846307	0.688128
H	-0.434675	-2.029084	0.304295
H	-0.335008	-1.06595	1.819507
C	-1.631749	0.314666	-2.067093
H	-2.418657	-0.254203	-1.560348
H	-1.607975	0.191907	-3.159626
H	-1.883951	1.351018	-1.844876
N	0.193307	-1.318801	-2.001614
H	-0.071171	-1.404761	-2.975506
H	1.204649	-1.362384	-1.95281
F	-3.211773	0.0	0.0
