15

C	0.0	0.0	0.0
C	-0.51309	-0.162225	-1.433085
F	1.364859	0.0	0.0
H	-1.435877	0.410442	-1.525088
H	0.238895	0.249151	-2.10603
N	-0.314816	1.428067	0.463277
O	-0.582487	1.627121	1.638863
O	-0.156095	2.29773	-0.391153
N	-0.470047	-0.910906	0.965977
H	-1.453744	-0.694759	1.131498
H	-0.445114	-1.817883	0.509287
N	-0.733595	-1.586593	-1.691457
H	-0.529611	-1.788841	-2.659501
H	-1.721629	-1.756815	-1.539912
Br	-3.711098	0.0	0.0
