15

C	0.0	0.0	0.0
C	-0.577836	-0.163739	-1.382547
F	1.359031	0.0	0.0
H	-0.414046	-1.212925	-1.667745
H	-1.657731	-0.006327	-1.282817
N	-0.256711	1.509773	0.415362
O	0.709161	2.261992	0.50546
O	-1.419539	1.808415	0.644337
N	-0.555735	-0.89967	0.913364
H	-0.309285	-0.664309	1.86666
H	-1.574958	-0.874217	0.815772
N	-0.005452	0.82358	-2.2843
H	0.902403	0.522325	-2.609057
H	-0.612295	0.942061	-3.082798
Br	-4.111246	0.0	0.0
