15

C	0.0	0.0	0.0
C	-0.580509	-0.144293	-1.383443
F	1.358901	0.0	0.0
H	-0.382217	-1.178017	-1.70051
H	-1.664372	-0.020085	-1.280418
N	-0.262855	1.497582	0.445702
O	-1.428788	1.783217	0.674398
O	0.699085	2.252405	0.557664
N	-0.550496	-0.920602	0.900151
H	-0.289317	-0.701286	1.853467
H	-1.570665	-0.884184	0.81529
N	-0.043275	0.886463	-2.259843
H	-0.663068	1.016458	-3.046925
H	0.868651	0.620659	-2.606063
Br	-4.119976	0.0	0.0
