15

C	0.0	0.0	0.0
C	-0.541525	0.014964	-1.412221
F	1.351438	0.0	0.0
H	-1.632389	0.085527	-1.347019
H	-0.283913	-0.970383	-1.811511
N	-0.28413	1.373108	0.700373
O	0.09675	1.448855	1.867863
O	-0.847892	2.267151	0.078948
N	-0.521008	-1.05661	0.757981
H	-1.542237	-1.041929	0.67219
H	-0.264946	-0.930665	1.73056
N	0.100522	1.040384	-2.23818
H	-0.435205	1.893587	-2.144103
H	0.042496	0.74945	-3.205209
Br	-3.889478	0.0	0.0
