15

C	0.0	0.0	0.0
C	-0.539297	-0.265163	-1.387725
F	1.347585	0.0	0.0
H	0.047784	0.335652	-2.082899
H	-1.577721	0.076299	-1.398217
N	-0.261201	1.514271	0.344889
O	-0.232499	2.328875	-0.571917
O	-0.3667	1.789831	1.537779
N	-0.539208	-0.845121	0.969242
H	-0.292888	-0.50968	1.892189
H	-1.560896	-0.808638	0.87104
N	-0.387818	-1.690985	-1.712435
H	-0.646858	-2.217949	-0.886348
H	-1.090231	-1.907955	-2.408955
Br	-3.807433	0.0	0.0
