16
Coordinates from ORCA-job run
  C   -0.72198311734363      0.17696315414785      0.09762441952922
  C   0.56219804445155     -0.26832836206690      0.28729912887304
  C   -1.06746119382847      0.93466231213186     -1.16006161325886
  H   -0.58028933180353      1.91240399684687     -1.16785791915014
  H   -2.14376545622451      1.10320454045453     -1.22629172963976
  H   -0.75391888035831      0.39384073555346     -2.05330496673749
  N   -1.73440524879281      0.08527306428369      0.99891922613123
  H   -2.67334562703928      0.18875273947380      0.65594063202345
  H   -1.57756127246521     -0.51033365614942      1.79832840846950
  C   1.68651095048781     -0.07755313473319     -0.68360717863917
  H   2.57212020706386      0.29592005732589     -0.16600805089257
  H   1.97249693560538     -1.02076784912140     -1.15686727730074
  H   1.42056633386116      0.63761419791656     -1.46014995176482
  N   0.91005217401201     -1.06257005975951      1.43202284358657
  O   0.08103919456409     -1.23960900670451      2.34405690577084
  O   2.04574628780986     -1.54847272959957      1.45995712299970
