16
Coordinates from ORCA-job run
  C   -0.60613449788180      0.22382755688985     -0.34893045266431
  C   0.65430228337091     -0.21593074030954     -0.02749640006487
  C   -1.73282748324501      0.22762839933494      0.65110671823996
  H   -2.00024142773524      1.26069776841422      0.89613669568661
  H   -2.61094493154442     -0.24779803914594      0.20721452603374
  H   -1.50113112832436     -0.28533233351723      1.57794960523537
  N   -1.01214462685429      0.63483321306652     -1.58284813946240
  H   -0.29209519906256      0.81945426270529     -2.26388118798076
  H   -1.85520073892974      1.18213676527633     -1.62410955954576
  C   1.11505867126385     -0.72688727502033      1.30488099053244
  H   1.82545319358995     -0.03656697510130      1.76581008648653
  H   1.63699528610231     -1.67775930366668      1.18284089430507
  H   0.28603416715548     -0.87970898654601      1.99071553808660
  N   1.72996299448214     -0.11773450838022     -0.98555129183321
  O   1.50016410844066      0.24856457581780     -2.15176830986260
  O   2.86374932917213     -0.41142437981769     -0.59306971319243
