16
Coordinates from ORCA-job run
  C   -0.73403067822163      0.13588087331217      0.07050552659882
  C   0.53968870380087     -0.34330179072177      0.24740685950408
  C   -1.05233385420633      0.96964079758946     -1.14582018434184
  H   -2.06769722869261      1.36552767119051     -1.08793857664888
  H   -0.98550957257501      0.36782772158076     -2.05488652283086
  H   -0.36562433502327      1.81065114707746     -1.24615092729266
  N   -1.80449103028449     -0.14750299495847      0.85793741421927
  H   -1.61144514762774     -0.59876934900387      1.73968981495424
  H   -2.59902984730968      0.46521411022861      0.79995460172102
  C   1.68666937924128     -0.09000608294952     -0.68174744463517
  H   1.34933544668556      0.36616883848225     -1.61079959587842
  H   2.43614412480052      0.56036203242213     -0.22308865194877
  H   2.19055606238319     -1.02743114200486     -0.92532883624681
  N   0.89992502039944     -1.07654898847269      1.42892694787227
  O   2.09337866898061     -1.35943939885514      1.57715025104929
  O   0.02546428764930     -1.39927344491703      2.25418932390442
