16
Coordinates from ORCA-job run
  C   -0.73474815005911      0.12397531543462      0.08018235307347
  C   0.55011457204433     -0.32857097797009      0.24572688754392
  C   -1.08972024366835      0.91956540839084     -1.15116534933462
  H   -0.40452414382591      1.75407188077368     -1.30155037537796
  H   -1.05471115304400      0.28778854796802     -2.04170144607415
  H   -2.10135175922952      1.32169286731736     -1.07293168040934
  N   -1.78617891648685     -0.15956965985815      0.89281450227453
  H   -2.59198225097685      0.43830808568028      0.83510959622605
  H   -1.57003352124693     -0.58822474085299      1.78050398062090
  C   1.67509458304101     -0.07965276474826     -0.71117540670059
  H   2.20869763530839     -1.00977121867343     -0.91556779418817
  H   1.30831892769590      0.31570409742355     -1.65688608040998
  H   2.40713173608216      0.61917826967244     -0.29747525674235
  N   0.94566298260022     -1.01592631546034      1.44316008817803
  O   0.09057725749743     -1.34072016216642      2.28778284806022
  O   2.14865244426809     -1.25884863293112      1.58517313326003
