16
Coordinates from ORCA-job run
  C   -0.54580776482854      0.30789337434137     -0.41079851760562
  C   0.65025364762987     -0.21997698298060      0.00653191932292
  C   -1.74920618561319      0.22993233429347      0.49534970319196
  H   -2.57998412487644      0.80648442355928      0.08470735704226
  H   -2.08631241538568     -0.80377762922953      0.60105501553082
  H   -1.52834725114718      0.61674363167945      1.49043203516789
  N   -0.79604852898789      0.83109702008932     -1.63920695975141
  H   -1.60156903404651      1.42386924282489     -1.73761366471469
  H   0.00277130214399      1.00462565688418     -2.23085541005501
  C   0.88056921726126     -0.87315947621377      1.33450085382844
  H   1.40362112067408     -1.82215245009041      1.20220949873462
  H   1.50813349683121     -0.25527921429193      1.98239666357992
  H   -0.06033744680168     -1.07278022101946      1.84445103477667
  N   1.83647576750450     -0.09162592143784     -0.79279435964434
  O   1.76558890603909      0.37587721795416     -1.94452219020474
  O   2.90219929360312     -0.45877100636258     -0.28684297919967
