16
Coordinates from ORCA-job run
  C   -0.64169213283645      0.22740232363383     -0.04344924916991
  C   0.62327695992229     -0.25034627536236      0.11957202611914
  C   -1.81133988531448     -0.51257964512358     -0.62794565438014
  H   -1.53587808045203     -1.05022424180755     -1.53329719606897
  H   -2.18340569458214     -1.25793295705384      0.07582989235740
  H   -2.61929509283507      0.18582268639505     -0.85938295274503
  N   -0.94462188024094      1.48859865148237      0.43167372916616
  H   -1.76257174433177      1.92018579295170      0.03507030652546
  H   -0.17894766532665      2.12881558388006      0.56630122964169
  C   1.73190687072672      0.56065572609375      0.71611510886245
  H   2.10543436471892      1.32532782248730      0.02541645675731
  H   1.39106441579917      1.05406804893952      1.63113570328766
  H   2.57343618603415     -0.08045785072316      0.96895156197901
  N   0.98049582672352     -1.56234706142399     -0.37065646845061
  O   2.17487920557330     -1.76159819505084     -0.61460156454955
  O   0.09925834642145     -2.41539040931827     -0.52073292933208
