16
Coordinates from ORCA-job run
  C   -0.73578048844083      0.12011778580303      0.07902919933500
  C   0.58075366560380     -0.18925856606840      0.31236016685027
  C   -1.13316329781543      0.72766592642499     -1.24317417569349
  H   -0.73575117024589      1.74088464250751     -1.33710405626812
  H   -0.76138432829192      0.13995672831300     -2.08280284308181
  H   -2.21939141854390      0.79124101204778     -1.32831696686632
  N   -1.74579894162981      0.01952226960198      0.98198551644651
  H   -2.68647122087103      0.00590903082705      0.62853044347070
  H   -1.54574720397123     -0.48531893158739      1.83255000750449
  C   1.69430818559012      0.01308166502829     -0.66856333019023
  H   2.53865223982611      0.50716834823551     -0.18423385099181
  H   1.37485179844926      0.63055841791239     -1.50632242466631
  H   2.06622090053836     -0.93957232508213     -1.05528371993015
  N   0.98465375495959     -0.84471428139566      1.52465859906472
  O   0.16482911600194     -1.01248701889759      2.44648926522976
  O   2.15821840884086     -1.22375470367036      1.59919816978678
