16
Coordinates from ORCA-job run
  C   -0.72114539259600      0.19044134684688      0.07701917836238
  C   0.53943511706371     -0.30873527745842      0.29073596511784
  C   -0.98053326702652      1.06411777378239     -1.12483667267254
  H   -2.04661822210918      1.27370136335175     -1.22793375541377
  H   -0.46422917480292      2.02153573951715     -1.02467197550997
  H   -0.63797704121417      0.59096351168457     -2.04546372578448
  N   -1.78048612312429      0.05217918760150      0.91576781265836
  H   -1.68154149994688     -0.61350341264072      1.66767971228012
  H   -2.69767020164731      0.21815932331626      0.54022258108990
  C   1.71638235480500     -0.07262534116955     -0.60493719974774
  H   2.58487199628342      0.22721187205646     -0.01543110981653
  H   1.51016390465160      0.71370955020547     -1.32904283311891
  H   1.99948062907259     -0.98138153222543     -1.14290123959886
  N   0.80620518384232     -1.20887474186289      1.37729891061207
  O   1.92600719578770     -1.72928995994353      1.41935421350646
  O   -0.07334545903906     -1.43860940306189      2.22814013803568
