16
Coordinates from ORCA-job run
  C   -0.62061316204705      0.24034174298886     -0.09757362558623
  C   0.63127523088795     -0.25106861259339      0.11405210363307
  C   -1.78836310818241     -0.48306493057523     -0.70497463155206
  H   -2.27614670312762     -1.12047505837040      0.03486751959607
  H   -1.48193239974740     -1.13263558055605     -1.52185869912036
  H   -2.50955964355274      0.24425117389649     -1.08571212446278
  N   -0.86418725086029      1.57274660171022      0.17821498523067
  H   -1.83241639153864      1.81997033182841      0.30200395388740
  H   -0.24762358150938      2.02464522231299      0.83462078287015
  C   1.75133727867259      0.60026744124563      0.62684623653197
  H   1.56510128582742      0.92424538468516      1.65761163256473
  H   1.88414745835136      1.49316040915996      0.00743867375793
  H   2.68296787825281      0.04058726061789      0.61308797597976
  N   0.94611711432869     -1.62179112843781     -0.23069165121168
  O   0.02805653008893     -2.44637849788294     -0.29503503440595
  O   2.13083946415576     -1.90380176002978     -0.43189809771270
