16
Coordinates from ORCA-job run
  C   -0.62282145127205      0.23361044848765     -0.09723935024974
  C   0.63425721228599     -0.24501785989337      0.11332694498240
  C   -1.77532781976474     -0.49193675965262     -0.73084019174993
  H   -2.26579811365884     -1.14423864476340     -0.00569267799571
  H   -2.49898807146794      0.23403591887158     -1.10930946012552
  H   -1.45211446377659     -1.12691122440711     -1.55251185423477
  N   -0.88860828880258      1.55484999901175      0.20809489945270
  H   -0.28452137243055      2.00215981291275      0.87886172169122
  H   -1.86125661749996      1.78716472253024      0.32503039076829
  C   1.73807450113100      0.61005473782781      0.65449258984325
  H   2.67796581059443      0.06449098073333      0.63416250128436
  H   1.86251898433372      1.51884468196771      0.05685395324694
  H   1.53936683006508      0.90730556423561      1.69088490825621
  N   0.97095898112117     -1.60278695083141     -0.25938761456323
  O   2.16065982032415     -1.86215740830424     -0.46144334414746
  O   0.06563405881771     -2.43946801872630     -0.34528341645900
