16
Coordinates from ORCA-job run
  C   -0.62663682789870      0.24744058048766     -0.09893307152734
  C   0.60361881720012     -0.27324438321609      0.16649235649432
  C   -1.75305149195235     -0.43391903517923     -0.82293986440540
  H   -1.40339097931030     -0.96168945445813     -1.70802216367307
  H   -2.50648336344537      0.30028175148021     -1.11871332308289
  H   -2.22410381942649     -1.17909771435322     -0.18076559082076
  N   -0.94180829315250      1.49750619968098      0.39568019898022
  H   -1.70222121993928      1.97164480144959     -0.06194424651260
  H   -0.17839454015064      2.10606893846721      0.64273214101213
  C   1.66849366705353      0.48615024050048      0.89619416335362
  H   2.09630561517384      1.28964140323364      0.28563988292726
  H   1.26250604231259      0.92499441578394      1.81269303995796
  H   2.48506053232814     -0.17830566749443      1.16907103053451
  N   0.96800820354619     -1.58202883577190     -0.32713373791801
  O   2.17334409063766     -1.81289745124779     -0.46621630326355
  O   0.07975356702355     -2.40254578936292     -0.58183451205640
