13

C	0.0	0.0	0.0
C	-0.295729	-0.069394	-1.526975
Br	1.920404	0.0	0.0
H	0.301541	0.763682	-1.925031
H	-0.410146	0.891568	0.461662
N	-0.43708	-1.173758	0.826392
O	-0.615049	-2.240345	0.256492
O	-0.476686	-0.963726	2.031404
C	-1.626999	0.148736	-2.131676
N	-2.283107	0.365785	-3.090184
C	0.277413	-1.267258	-2.161598
N	0.747381	-2.152204	-2.773305
Cl	-3.024134	0.0	0.0
