13

C	0.0	0.0	0.0
C	-0.306442	0.158576	-1.520126
Br	1.919402	0.0	0.0
H	0.348991	-0.566376	-2.014449
H	-0.425359	0.754499	0.652283
N	-0.404497	-1.35696	0.504522
O	-0.486261	-2.253841	-0.325798
O	-0.506407	-1.466185	1.71753
C	0.145547	1.49208	-1.941895
N	0.519762	2.542642	-2.310387
C	-1.627013	-0.08251	-2.144508
N	-2.26042	-0.25749	-3.128267
Cl	-3.004363	0.0	0.0
