11

C	0.0	0.0	0.0
C	-0.458533	0.292203	-1.408398
F	1.394933	0.0	0.0
H	-1.545854	0.375576	-1.431171
H	-0.280128	0.822104	0.672093
H	-0.13476	-0.528112	-2.053026
H	-0.007993	1.224427	-1.756471
N	-0.479517	-1.280945	0.428486
H	-0.364201	-1.360956	1.432692
H	-1.485765	-1.281599	0.257272
Br	-3.878781	0.0	0.0
