15

C	-0.213576	0.140723	-1.499448
C	0.0	0.0	0.0
Cl	-1.917022	0.753953	-1.944485
H	1.097244	0.0	0.0
H	-0.394954	-0.947732	0.371214
N	0.751616	1.067324	-1.994153
H	0.84706	1.007642	-3.000474
H	1.655456	0.861495	-1.530204
C	-0.160424	-1.181969	-2.153966
N	-0.072107	-2.225842	-2.688509
C	-0.482238	1.194495	0.80456
H	-0.027875	1.160388	1.798713
H	-1.569723	1.218084	0.912537
H	-0.160637	2.118397	0.321509
H	2.876888	0.0	0.0
