15

C	-0.248969	0.04855	-1.496685
C	0.0	0.0	0.0
Cl	-1.972353	0.574181	-1.864047
H	1.096618	0.0	0.0
H	-0.312193	0.970556	0.40399
N	0.652134	0.956112	-2.1809
H	0.479845	1.879289	-1.790576
H	1.591792	0.695946	-1.836069
C	-0.11738	-1.285072	-2.105859
N	-0.019984	-2.355427	-2.579357
C	-0.618191	-1.154858	0.76073
H	-1.709611	-1.170425	0.675611
H	-0.228784	-2.109143	0.398464
H	-0.356152	-1.077247	1.819222
H	2.906471	0.0	0.0
