15

C	-0.29318	-0.212625	-1.479008
C	0.0	0.0	0.0
Cl	-0.192487	1.482047	-2.322104
H	1.092919	0.0	0.0
H	-0.393889	0.959219	0.335566
N	0.641999	-1.129205	-1.987374
H	0.633312	-1.183351	-2.998431
H	1.576723	-0.895716	-1.623303
C	-1.677023	-0.627507	-1.768304
N	-2.784865	-0.983431	-1.931946
C	-0.489251	-1.151196	0.872324
H	-0.116791	-2.102309	0.486247
H	-0.080582	-1.022907	1.877592
H	-1.580677	-1.200201	0.938408
H	2.945723	0.0	0.0
