15

C	-0.267358	-0.255525	-1.483441
C	0.0	0.0	0.0
Cl	-0.156096	1.382659	-2.42097
H	1.092977	0.0	0.0
H	-0.312765	-0.917734	0.51093
N	0.679072	-1.195741	-1.92381
H	1.606796	-0.957284	-1.540838
H	0.703102	-1.295027	-2.929747
C	-1.639098	-0.695871	-1.781038
N	-2.727216	-1.088657	-1.991938
C	-0.637141	1.220195	0.627875
H	-0.196534	2.136247	0.235838
H	-0.457361	1.199646	1.706299
H	-1.720037	1.256713	0.464956
H	2.952665	0.0	0.0
