15

C	-0.388892	-0.027447	-1.473719
C	0.0	0.0	0.0
Cl	0.025515	1.585456	-2.190275
H	1.095288	0.0	0.0
H	-0.370012	0.916781	0.467381
N	0.313335	-1.037007	-2.240387
H	-0.042537	-1.946228	-1.965197
H	1.291218	-0.981055	-1.944008
C	-1.84123	-0.186685	-1.656311
N	-3.001431	-0.347113	-1.747949
C	-0.4831	-1.229199	0.759346
H	-0.110805	-1.171541	1.785256
H	-0.064119	-2.142927	0.331042
H	-1.573435	-1.321683	0.790492
H	2.968445	0.0	0.0
