15

C	-0.56792	0.00298	-1.412522
C	0.0	0.0	0.0
Cl	0.078503	-1.403202	-2.340386
H	1.093418	0.0	0.0
H	-0.312885	0.951301	0.45446
N	-2.026374	-0.078351	-1.528435
H	-2.412927	0.661758	-0.948311
H	-2.311188	-0.960946	-1.117509
C	-0.155585	1.2233	-2.123118
N	0.096459	2.237836	-2.658037
C	-0.481989	-1.167812	0.851107
H	0.069205	-1.149001	1.794306
H	-1.552904	-1.138565	1.081506
H	-0.251514	-2.119572	0.368194
H	2.941073	0.0	0.0
