15

C	0.0	0.0	0.0
C	-0.470942	-0.744506	-1.302059
Br	1.958615	0.0	0.0
H	0.426092	-1.006689	-1.868168
H	-0.249073	-0.608147	0.874156
N	-0.459622	1.366811	0.042947
H	-1.479253	1.329453	0.042469
H	-0.179455	1.780847	0.924674
N	-1.317615	0.029202	-2.19557
H	-0.925952	0.956527	-2.325227
H	-2.233516	0.133198	-1.759592
N	-1.096741	-1.984894	-0.874173
H	-1.970866	-1.735687	-0.41152
H	-1.364315	-2.484332	-1.71527
Br	-3.957122	0.0	0.0
