15

C	0.0	0.0	0.0
C	-0.472127	-0.113187	-1.493978
Br	1.945057	0.0	0.0
H	0.424886	-0.122243	-2.117351
H	-0.256469	-0.928618	0.517506
N	-0.484871	1.201335	0.630382
H	-1.501767	1.174629	0.551799
H	-0.262327	1.174364	1.619466
N	-1.300987	0.978936	-1.980097
H	-2.222865	0.908133	-1.554576
H	-0.891935	1.861438	-1.695303
N	-1.109174	-1.410998	-1.641885
H	-1.371469	-1.506802	-2.616796
H	-1.988154	-1.385395	-1.121256
Br	-3.990046	0.0	0.0
