15

C	0.0	0.0	0.0
C	-0.6497	-0.105911	-1.369175
Br	2.012051	0.0	0.0
H	-1.69072	-0.320787	-1.080933
H	-0.198596	-0.906718	0.570721
N	-0.508631	1.118177	0.648117
H	-0.16189	1.27249	1.580132
H	-0.466551	1.933919	0.052587
N	-0.059421	-1.150051	-2.205501
H	-0.810203	-1.676708	-2.633059
H	0.486487	-1.794972	-1.64356
N	-0.636847	1.19094	-2.0365
H	-1.581183	1.421699	-2.316633
H	-0.044888	1.112526	-2.854384
Br	-4.117511	0.0	0.0
