15

C	0.0	0.0	0.0
C	-0.46978	-0.066077	-1.498881
Br	1.949134	0.0	0.0
H	0.426079	-0.101267	-2.121477
H	-0.243503	-0.950923	0.48269
N	-0.491575	1.17156	0.673175
H	-1.511666	1.124212	0.614769
H	-0.247561	1.113092	1.656311
N	-1.257895	1.072669	-1.954908
H	-0.842038	1.929051	-1.604598
H	-2.186823	0.98832	-1.542447
N	-1.164797	-1.327716	-1.676355
H	-1.443531	-1.376683	-2.651672
H	-2.032949	-1.281271	-1.141649
Br	-3.976421	0.0	0.0
