16
Coordinates from ORCA-job run
  C   0.51809571852281     -0.23433748898687     -0.39756048438034
  C   -0.90804819327430      0.28971823710835     -0.11221172555256
  F   0.41166542848494     -0.67634082178313     -1.73582882009077
  H   -1.12157852813671      1.09112232919548     -0.83476448807521
  N   0.87608600075598     -1.34123568657590      0.40902512293362
  H   1.45195871755031     -1.08239097435829      1.19526557678551
  H   0.05811302750835     -1.85779865456796      0.70721264218123
  C   1.56655447371203      0.85211501723998     -0.37003520606353
  H   2.52602863585233      0.41479762694025     -0.65014946502060
  H   1.31744468586001      1.63191848576139     -1.09092516129812
  H   1.64948992890206      1.29855938243513      0.62263588610820
  C   -0.95023546044621      0.86241173610346      1.23592983851326
  N   -0.97025659170351      1.32440244721485      2.31475063750616
  N   -1.82823533563066     -0.84125416775910     -0.19170705825065
  H   -1.82677196360281     -1.17979776609229     -1.14679787352133
  H   -2.76931054435462     -0.55188970187534      0.04416057822514
