16
Coordinates from ORCA-job run
  C   0.51775776811124     -0.13275081641887     -0.43639105160918
  C   -0.99700461902514      0.06530589847648     -0.25546075023667
  F   0.79421342779254      0.31064293967364     -1.74639600035185
  H   -1.48056532603972     -0.51770062095051     -1.05789155120744
  N   0.78754444195334     -1.52586494833639     -0.30430529287535
  H   1.78427889263262     -1.69704653537124     -0.26056140774240
  H   0.40930791177557     -2.03043219062867     -1.09838056955848
  C   1.35227096063134      0.68895936096958      0.51468430343898
  H   2.41095113037467      0.52307808909832      0.30052054493348
  H   1.13815470375711      1.74846873368883      0.37419788776753
  H   1.13349885112496      0.41281120312546      1.54428077529001
  C   -1.36029490786785      1.47020061438445     -0.47363056342416
  N   -1.67353622123011      2.58917772935119     -0.63613725486541
  N   -1.36820201387922     -0.33575470186666      1.09388139388640
  H   -1.07554913794380     -1.29731141586982      1.22185955822660
  H   -2.37082586216755     -0.27278333932580      1.21872997832793
