16
Coordinates from ORCA-job run
  C   0.57960801682473     -0.15824547251684     -0.33887689100550
  C   -0.89536346419899      0.28690171620128     -0.30749872702187
  F   0.85194848078793     -0.38166231854060     -1.71045579370795
  H   -1.02930198269994      0.95744357701232     -1.16090132565998
  N   0.71729635008432     -1.35271498681446      0.40984134489898
  H   0.20104488598691     -2.09108546687967     -0.05446737971270
  H   1.69020560721214     -1.62276521551584      0.48191256630999
  C   1.54226162946247      0.91301281840171      0.12040179857999
  H   1.44084408419162      1.09957365255662      1.18875181390917
  H   2.56180522109674      0.58527504450489     -0.09449378057201
  H   1.36593948174517      1.84043473818632     -0.42753721623734
  C   -1.18478737552677      1.04569909281824      0.92246233251184
  N   -1.45773448884692      1.61992149283526      1.91015589810617
  N   -1.77094770049318     -0.86681218168955     -0.48109656008959
  H   -1.95654182091553     -1.29238169722531      0.41925523209478
  H   -2.65627692471068     -0.57959479333438     -0.87745331240401
