16
Coordinates from ORCA-job run
  C   0.54856816596846     -0.16120144869120     -0.44665355672877
  C   -0.98449926727185     -0.07004713830744     -0.30918879342086
  F   0.78377260053514      0.24524516517855     -1.78779425793895
  H   -1.38656155721361     -0.54985098731740     -1.20852280017051
  N   0.96551773112121     -1.48994939762035     -0.21193128687130
  H   0.37537839933334     -2.16838435086184     -0.67480923698035
  H   1.92947852520781     -1.61665905130852     -0.49226134504225
  C   1.32369954171018      0.80596374564028      0.42233622063079
  H   1.08698306355780      1.83615266496552      0.15822833395895
  H   2.39314737899429      0.64705887371165      0.26686910428608
  H   1.10691756861356      0.63806553543341      1.47857288870397
  C   -1.40197434432120      1.34591940654443     -0.35646812545710
  N   -1.77912079912137      2.45818522892787     -0.33545628909033
  N   -1.47665259619185     -0.79961416908621      0.84831174293859
  H   -1.01381260632911     -0.48059138859807      1.69058550963117
  H   -2.47084180459281     -0.63929268861067      0.95918189155086
