14
Coordinates from ORCA-job run
  C   -0.75677463693701      0.22583759073142     -0.31848087219402
  C   0.73865585395190      0.45452448410232     -0.08244641390676
  F   -1.18839530375621      1.22324396859800     -1.13782596991694
  H   0.85179477862857      1.41069787592195      0.43737394555918
  N   -1.52692033905175      0.42548541268810      0.99558051865888
  O   -1.11696600903735      1.34216336656444      1.69418964318162
  O   -2.50607831257564     -0.28007729730096      1.17369690308576
  C   -1.06227927899217     -1.07796342130541     -0.89536761797950
  N   -1.26629355242475     -2.11191331595195     -1.41587321819268
  C   1.46782023532667      0.44807524875648     -1.33998230852869
  N   2.03643234923432      0.44231250129191     -2.36789552911587
  N   1.30952856520801     -0.59658283346348      0.85301447291489
  O   2.52585693866425     -0.63231285703987      0.93775337901806
  O   0.49261871176117     -1.27349072359296      1.46726306741606
