14
Coordinates from ORCA-job run
  C   -0.63955417271179     -0.32662092509607     -0.33231126256207
  C   0.63863608566960      0.23408347605388      0.29902887942008
  F   -0.42501402041773     -0.70916542675708     -1.59690378571343
  H   0.43085736580123      0.54214215444142      1.32780965414412
  N   -1.63728358431952      0.86225964851165     -0.35347531129755
  O   -2.05436131201012      1.20923372632961     -1.44172247448542
  O   -1.88366509198132      1.32538403371910      0.75104327337635
  C   -1.25731071912643     -1.37885340667864      0.47259535174213
  N   -1.76937914023256     -2.18244547671047      1.15969090408858
  C   1.14290581466426      1.36117580331245     -0.47347889319565
  N   1.49729465277678      2.28784285454173     -1.10329876726138
  N   1.72825189426541     -0.83001750899704      0.39495417176186
  O   1.41322000098125     -1.98313260960217      0.13592717949199
  O   2.81640222664095     -0.41188634306835      0.75714108049039
