14
Coordinates from ORCA-job run
  C   -0.81174416229172      0.32519982167890     -0.22721039202350
  C   0.72168560755997      0.45448975350465     -0.25283420693332
  F   -1.37140781285523      1.51669552442563      0.06001584683747
  H   0.93997409904592      1.41280518318085     -0.74009620231652
  N   -1.22399566079741     -0.68869005079443      0.85701739426007
  O   -2.27370671294175     -0.47347043000280      1.43491737235006
  O   -0.45483365119699     -1.62872325796120      0.96637581661015
  C   -1.32730858603508     -0.19060800999949     -1.49555933467474
  N   -1.76942566036196     -0.60964248593486     -2.50440847813492
  C   1.38947971627904     -0.63110124741996     -0.95704640460859
  N   1.92373127101976     -1.47362452859882     -1.57904742500735
  N   1.28025125773357      0.59824125003038      1.15568571312670
  O   0.49984713454076      1.00915936056544      2.00823827091133
  O   2.47745316030112      0.37726911732571      1.27395202960314
