13

C	0.0	0.0	0.0
C	-0.428255	-0.466391	-1.433115
Cl	1.823472	0.0	0.0
H	0.492968	-0.582487	-2.015864
H	-0.287072	-0.764925	0.725293
N	-0.444252	1.330461	0.264237
H	-1.46999	1.292135	0.217536
H	-0.191958	1.572257	1.216841
C	-1.207565	0.511944	-2.198645
N	-1.621006	1.292838	-2.97298
C	-1.030446	-1.802774	-1.406457
N	-1.323175	-2.939916	-1.431183
Br	-3.445221	0.0	0.0
