13

C	0.0	0.0	0.0
C	-0.442665	0.207308	-1.493623
Cl	1.777057	0.0	0.0
H	0.474219	0.315393	-2.084387
H	-0.30608	-1.002087	0.313612
N	-0.462912	1.081134	0.815244
H	-1.488772	1.048607	0.759285
H	-0.204832	0.893885	1.778391
C	-1.180969	1.446411	-1.755277
N	-1.609991	2.475986	-2.122912
C	-1.100099	-0.980759	-2.045484
N	-1.43172	-1.971429	-2.582431
Br	-3.456334	0.0	0.0
