17

C	0.0	0.0	0.0
C	-0.486645	0.001129	-1.477756
Br	1.96332	0.0	0.0
H	-0.163739	0.956781	-1.918745
C	-0.443689	1.316644	0.698647
H	-0.143973	2.185328	0.08106
H	-1.536669	1.341891	0.822558
H	0.030537	1.419729	1.684106
N	-0.414191	-1.232333	0.802338
O	0.056208	-2.28391	0.32618
O	-0.229283	-1.043971	2.052769
C	-2.004141	0.020681	-1.574718
N	-2.533873	0.294659	-2.727625
N	0.04549	-1.109683	-2.299971
O	0.181166	-0.710416	-3.539677
O	-0.709932	-2.210912	-2.214788
H	-1.627611	0.0	0.0
