17

C	0.0	0.0	0.0
C	-0.425321	0.047239	-1.499084
Br	1.931741	0.0	0.0
H	-1.462458	-0.306508	-1.498877
C	-0.308316	1.248901	0.828432
H	-1.382737	1.40198	0.894925
H	0.174389	2.115788	0.37533
H	0.112535	1.093897	1.821296
N	-0.67419	-1.211559	0.55711
O	-0.65928	-1.316873	1.803672
O	-0.686309	-2.195727	-0.22478
C	0.39715	-0.720212	-2.424944
N	0.952939	-1.393644	-3.211849
N	-0.480372	1.474501	-1.971952
O	-1.568012	2.041895	-1.907458
O	0.566118	1.983814	-2.368801
H	-2.221985	0.0	0.0
