17

C	0.0	0.0	0.0
C	-0.470523	-0.012691	-1.518636
Br	1.968529	0.0	0.0
H	-0.076323	-0.924616	-1.970438
C	-0.441045	1.269315	0.777812
H	-0.279142	2.174098	0.168169
H	0.125868	1.359814	1.711984
H	-1.510582	1.218839	1.042552
N	-0.389339	-1.214213	0.721204
O	-0.020976	-2.311606	0.075149
O	-0.053009	-1.171171	2.001872
C	0.045531	1.127823	-2.427381
N	-0.126746	1.087477	-3.593175
N	-1.967702	-0.029764	-1.673368
O	-2.490848	1.084354	-1.207893
O	-2.469683	-1.115344	-1.081292
H	-1.547613	0.0	0.0
