17

C	0.0	0.0	0.0
C	-0.471734	-0.00671	-1.502964
Br	1.923086	0.0	0.0
H	-1.563589	0.010711	-1.581926
C	-0.394467	1.234981	0.884295
H	0.041537	2.184623	0.564265
H	-0.099662	0.982535	1.909428
H	-1.493263	1.3467	0.918747
N	-0.503761	-1.319312	0.634334
O	-1.570162	-1.984282	0.127341
O	0.248042	-1.861487	1.468287
C	-0.010896	-1.163093	-2.24296
N	0.282587	-2.154682	-2.803138
N	-0.092984	1.275391	-2.193973
O	-0.763557	2.252678	-1.851437
O	0.84424	1.290749	-2.981806
H	-1.569015	0.0	0.0
