14

C	-0.398594	0.012674	-1.454642
C	0.0	0.0	0.0
F	-1.763863	0.319315	-1.604509
H	1.090663	0.0	0.0
H	0.160736	0.847519	-1.890421
C	-0.121825	-1.169517	-2.282011
N	0.07098	-2.003357	-3.086201
N	-0.476629	-1.209292	0.717797
O	-0.741876	-1.125013	1.914522
O	-0.470806	-2.270013	0.080708
N	-0.376336	1.198692	0.66866
H	0.444598	1.777801	0.802252
H	-1.123082	1.698896	0.211767
H	2.574607	0.0	0.0
