14

C	-0.488039	0.081289	-1.41925
C	0.0	0.0	0.0
F	-1.890414	0.087779	-1.472102
H	1.09616	0.0	0.0
H	-0.149805	1.053938	-1.78741
C	-0.00685	-0.949539	-2.350451
N	0.364174	-1.679421	-3.191468
N	-0.417367	-1.254723	0.648202
O	-0.66714	-1.223805	1.862153
O	-0.391537	-2.289698	-0.029023
N	-0.372175	1.176975	0.724186
H	0.349034	1.343113	1.417144
H	-1.250152	1.04376	1.204867
H	2.541236	0.0	0.0
