14

C	-0.400145	0.015921	-1.452333
C	0.0	0.0	0.0
F	-1.768323	0.301442	-1.602628
H	1.090695	0.0	0.0
H	0.147321	0.860617	-1.884499
C	-0.09952	-1.159185	-2.281579
N	0.085353	-1.979353	-3.101531
N	-0.470052	-1.212737	0.715038
O	-0.657418	-1.147099	1.928821
O	-0.529666	-2.261423	0.058405
N	-0.376836	1.193359	0.680762
H	0.443816	1.773495	0.808333
H	-1.129362	1.692624	0.232083
H	2.571802	0.0	0.0
