14

C	-0.398121	0.031318	-1.454011
C	0.0	0.0	0.0
F	-1.761802	0.344773	-1.600553
H	1.090651	0.0	0.0
H	0.164282	0.869679	-1.877379
C	-0.125342	-1.140976	-2.296442
N	0.056373	-1.967185	-3.1106
N	-0.475802	-1.220415	0.700874
O	-0.733328	-1.158951	1.899977
O	-0.479954	-2.268307	0.04538
N	-0.375495	1.18644	0.689091
H	-1.141585	1.681417	0.259031
H	0.440821	1.774118	0.8137
H	2.57513	0.0	0.0
