14

C	-0.568131	0.065291	-1.413542
C	0.0	0.0	0.0
F	-0.197669	-0.97031	-2.245177
H	1.090028	0.0	0.0
H	-1.666117	0.073944	-1.365252
C	-0.146121	1.329411	-2.050436
N	0.128247	2.298455	-2.653231
N	-0.433919	-1.232939	0.677948
O	-0.893957	-1.14839	1.830721
O	-0.235562	-2.302926	0.093242
N	-0.416578	1.191961	0.686715
H	0.396936	1.542336	1.185794
H	-1.12504	0.958666	1.370703
H	2.560199	0.0	0.0
