16

C	-0.430421	-0.020005	-1.456365
C	0.0	0.0	0.0
F	-0.105861	1.209446	-1.956664
H	1.089834	0.0	0.0
H	-0.405062	0.887917	0.482037
C	0.179945	-1.091974	-2.315882
H	-0.117403	-0.924971	-3.354166
H	-0.135272	-2.078332	-1.987559
H	1.265168	-1.007521	-2.212834
N	-1.959901	-0.10623	-1.523977
O	-2.439949	-1.220695	-1.322714
O	-2.592891	0.922456	-1.73735
N	-0.484584	-1.173444	0.761825
O	-0.058959	-2.280135	0.444814
O	-1.27629	-0.958441	1.681481
Cl	3.291991	0.0	0.0
