16

C	-0.561324	-0.009326	-1.412392
C	0.0	0.0	0.0
F	-0.120687	-1.166035	-1.987072
H	1.089332	0.0	0.0
H	-0.360014	-0.914666	0.474017
C	-2.062586	0.060755	-1.559637
H	-2.454863	0.994531	-1.166914
H	-2.307603	-0.029921	-2.620048
H	-2.510667	-0.769679	-1.014457
N	0.01783	1.141437	-2.221003
O	0.65419	0.883	-3.229654
O	-0.275974	2.257354	-1.795034
N	-0.543793	1.116204	0.81845
O	0.176413	2.079087	1.051785
O	-1.704213	0.982137	1.225643
Cl	3.337499	0.0	0.0
