16

C	-0.550006	0.186158	-1.389328
C	0.0	0.0	0.0
F	-1.894322	0.462067	-1.330697
H	1.089471	0.0	0.0
H	-0.315872	0.86154	0.590546
C	0.184817	1.300546	-2.096637
H	-0.201924	1.403029	-3.113012
H	1.25363	1.079865	-2.105672
H	0.018867	2.234912	-1.55688
N	-0.402627	-1.055759	-2.259315
O	0.728153	-1.513446	-2.330315
O	-1.391319	-1.442252	-2.86913
N	-0.532677	-1.181182	0.720899
O	-0.913895	-2.149768	0.065443
O	-0.540852	-1.110895	1.947042
Cl	3.292685	0.0	0.0
