16

C	-0.497284	0.154893	-1.429655
C	0.0	0.0	0.0
F	-1.818474	0.526639	-1.43545
H	1.086914	0.0	0.0
H	-0.409456	-0.895207	0.464035
C	0.313451	1.063655	-2.310944
H	0.18319	2.083137	-1.953778
H	1.366488	0.794167	-2.236592
H	-0.033071	0.984002	-3.343672
N	-0.470675	-1.264875	-2.006528
O	0.602387	-1.653781	-2.453188
O	-1.509935	-1.914784	-1.944455
N	-0.45893	1.136615	0.836593
O	-0.2768	2.275848	0.414296
O	-0.972282	0.862768	1.920314
Cl	3.285933	0.0	0.0
