16

C	-0.541128	-0.02095	-1.416572
C	0.0	0.0	0.0
F	-0.009508	-1.042484	-2.131428
H	1.089514	0.0	0.0
H	-0.379989	0.875133	0.519566
C	-2.047177	-0.061837	-1.541228
H	-2.41602	-1.005413	-1.137716
H	-2.497862	0.766737	-0.996371
H	-2.317765	-0.001469	-2.598022
N	-0.081896	1.276817	-2.085107
O	0.471519	1.193209	-3.170469
O	-0.377751	2.310708	-1.491826
N	-0.540381	-1.178902	0.722539
O	-0.083491	-2.28463	0.446639
O	-1.454851	-0.972811	1.529181
Cl	3.299367	0.0	0.0
