16

C	-0.435174	-0.025299	-1.443363
C	0.0	0.0	0.0
F	-0.214514	1.185205	-2.025737
H	1.08865	0.0	0.0
H	-0.361313	-0.887777	0.518799
C	0.303185	-1.094774	-2.209797
H	1.372068	-0.904428	-2.102989
H	0.072532	-2.081932	-1.808228
H	0.011133	-1.044626	-3.260085
N	-1.927505	-0.307157	-1.574424
O	-2.344887	-1.256871	-0.916336
O	-2.57688	0.362451	-2.362984
N	-0.553628	1.166206	0.731806
O	0.085712	1.59321	1.68677
O	-1.649735	1.592533	0.361176
Cl	3.34363	0.0	0.0
