17

C	-0.256512	-0.005522	-1.511533
C	0.0	0.0	0.0
Br	-0.187818	1.919194	-2.23593
H	1.098414	0.0	0.0
N	0.626349	-0.868973	-2.121951
H	0.551145	-0.902165	-3.128228
H	1.581322	-0.743587	-1.77893
N	-1.683049	-0.386646	-1.90789
O	-1.834106	-0.876911	-3.021652
O	-2.572242	-0.158259	-1.096255
C	-0.441943	-1.291012	0.526787
N	-0.788141	-2.323163	0.968998
C	-0.515777	1.151363	0.854434
H	-0.025487	2.077506	0.560418
H	-1.597012	1.261495	0.774923
H	-0.249173	0.94581	1.893395
Cl	3.274724	0.0	0.0
