17

C	-0.331181	-0.01203	-1.482342
C	0.0	0.0	0.0
Br	-0.122571	1.872536	-2.290577
H	1.098435	0.0	0.0
N	0.416829	-0.992019	-2.120831
H	0.248336	-1.035936	-3.119198
H	1.40725	-0.914131	-1.871502
N	-1.812952	-0.308684	-1.777546
O	-2.627824	-0.043449	-0.898857
O	-2.074998	-0.752932	-2.894972
C	-0.446538	-1.271744	0.570023
N	-0.799543	-2.272826	1.075099
C	-0.454584	1.168031	0.873612
H	-1.539058	1.261766	0.910486
H	-0.011543	2.093392	0.5081
H	-0.069802	0.991987	1.88026
Cl	3.192136	0.0	0.0
