17

C	-0.398133	-0.003829	-1.468801
C	0.0	0.0	0.0
Br	-2.325583	-0.002314	-1.768671
H	1.09786	0.0	0.0
N	0.157034	1.11916	-2.137191
H	1.171601	1.048431	-2.116755
H	-0.172834	1.19133	-3.0923
N	0.159217	-1.346451	-2.078659
O	-0.58241	-2.285935	-2.32949
O	1.379787	-1.329517	-2.217058
C	-0.431081	-1.227231	0.644953
N	-0.77616	-2.206327	1.203027
C	-0.506551	1.225862	0.750757
H	-0.212157	2.128773	0.215595
H	-0.058218	1.243441	1.747189
H	-1.594257	1.212796	0.858606
Cl	2.690265	0.0	0.0
