17

C	-0.582245	0.029917	-1.414352
C	0.0	0.0	0.0
Br	0.330303	-1.373215	-2.514103
H	1.092087	0.0	0.0
N	-1.987163	-0.064326	-1.425238
H	-2.286104	-0.927228	-0.987633
H	-2.344466	-0.001699	-2.369625
N	-0.227757	1.320573	-2.149277
O	-0.957839	1.61827	-3.09237
O	0.75227	1.940857	-1.770991
C	-0.465695	-1.246117	0.607954
N	-0.913949	-2.207966	1.113568
C	-0.481875	1.183675	0.853873
H	-1.570941	1.24653	0.877751
H	-0.101491	1.052203	1.867807
H	-0.061822	2.108657	0.462
Cl	3.309896	0.0	0.0
