17

C	-0.375579	-0.011668	-1.471547
C	0.0	0.0	0.0
Br	0.013441	1.811964	-2.267458
H	1.098451	0.0	0.0
N	0.248729	-1.055787	-2.156428
H	1.257249	-1.019305	-2.057381
H	-0.037218	-1.110911	-3.12575
N	-1.879061	-0.150296	-1.75642
O	-2.193336	-0.515258	-2.885101
O	-2.64933	0.055538	-0.828841
C	-0.424926	-1.270339	0.567737
N	-0.760992	-2.276229	1.081466
C	-0.460498	1.162792	0.876747
H	-1.545679	1.236849	0.934664
H	-0.049962	2.102045	0.506276
H	-0.065329	0.999511	1.882808
Cl	2.690147	0.0	0.0
