14
Coordinates from ORCA-job run
  C   1.37765761641622     -0.20641393910753      0.25445398504418
  C   0.00814735677880     -0.06662695998381     -0.39015466554262
  Cl  2.09631260190608     -1.82366597702407     -0.01242562377336
  H   0.11536786043864     -0.31915266966536     -1.45176228124448
  H   2.07994373232820      0.51670510138396     -0.16200477541859
  H   1.31296511737666     -0.06037820545815      1.33499917339550
  C   -0.43991946099800      1.39019176667057     -0.27604167080327
  H   -1.41364899812604      1.53066176483866     -0.75146327407275
  H   0.26886031608600      2.06984078439668     -0.75674602126222
  H   -0.53695196255899      1.68676898359947      0.77307222996209
  C   -1.01751989881310     -1.00425485406505      0.23696550789629
  H   -0.71930327339304     -2.04940610019922      0.14388904708695
  H   -1.14081752100199     -0.77844741596527      1.30129388040479
  H   -1.99109348643943     -0.88582227942088     -0.24507551167253
