15

C	0.0	0.0	0.0
C	-0.500438	-0.093367	-1.460564
F	1.348141	0.0	0.0
H	-1.105602	-0.984956	-1.571537
C	-0.456718	1.181988	0.728985
N	-0.530337	2.197258	1.318631
N	-0.370529	-1.260449	0.768485
O	-0.418911	-1.154315	1.985804
O	-0.42755	-2.302087	0.128135
N	0.718344	-0.29508	-2.363023
O	0.982754	-1.459047	-2.655618
O	1.3517	0.695565	-2.711729
C	-1.21017	1.088561	-1.92687
N	-1.692066	2.028103	-2.44175
F	-2.234971	0.0	0.0
