16

C	0.0	0.0	0.0
C	-0.564906	-0.183278	-1.431008
Br	1.955211	0.0	0.0
H	-1.656479	-0.078211	-1.278617
C	-0.483051	1.294647	0.64062
H	-0.14011	2.144375	0.046792
H	-0.090035	1.386027	1.654435
H	-1.576092	1.261587	0.661657
C	-0.372169	-1.170758	0.797945
N	-0.587627	-2.134651	1.435526
N	-0.312595	-1.457691	-2.06962
H	-0.915075	-2.153392	-1.646431
H	0.654531	-1.734975	-1.944142
C	-0.103506	0.914581	-2.288198
N	0.261736	1.7949	-2.974791
Cl	-3.616445	0.0	0.0
