16

C	0.0	0.0	0.0
C	-0.400508	-0.321759	-1.475171
Br	1.955081	0.0	0.0
H	0.329176	0.20839	-2.099049
C	-0.532048	1.355707	0.441747
H	-1.624001	1.30883	0.47583
H	-0.230026	2.120367	-0.275543
H	-0.139956	1.601252	1.430404
C	-0.408033	-1.053461	0.92629
N	-0.680805	-1.905529	1.689665
N	-1.701876	0.198485	-1.793997
H	-1.973575	-0.080202	-2.728756
H	-2.462035	-0.0689	-1.15159
C	-0.185369	-1.765166	-1.750206
N	-0.046502	-2.889907	-2.063563
Cl	-4.25687	0.0	0.0
