16

C	0.0	0.0	0.0
C	-0.56517	-0.445383	-1.372649
Br	1.957488	0.0	0.0
H	-1.655267	-0.296997	-1.251426
C	-0.479072	1.393462	0.385171
H	-0.128955	2.11611	-0.355106
H	-0.089164	1.670965	1.366006
H	-1.57238	1.369358	0.407634
C	-0.374079	-1.000295	1.001569
N	-0.596049	-1.830582	1.80355
N	-0.333688	-1.822711	-1.753459
H	0.627571	-2.088146	-1.569516
H	-0.95094	-2.414111	-1.209413
C	-0.081186	0.458988	-2.42193
N	0.305	1.184802	-3.260979
Cl	-3.613234	0.0	0.0
