16

C	0.0	0.0	0.0
C	-0.568142	-0.208368	-1.408042
Br	1.965377	0.0	0.0
H	-1.662991	-0.19411	-1.235877
C	-0.486772	1.30316	0.618405
H	-0.115387	1.395977	1.639606
H	-0.128293	2.151478	0.030714
H	-1.580902	1.272406	0.620929
C	-0.3611	-1.147871	0.836098
N	-0.552243	-2.031427	1.586566
N	-0.186704	-1.496761	-1.955404
H	0.720083	-1.443567	-2.402335
H	-0.875112	-1.79156	-2.636781
C	-0.211329	0.926021	-2.277115
N	0.104587	1.780225	-3.019786
Cl	-3.648168	0.0	0.0
