17

C	0.0	0.0	0.0
C	-0.40236	-0.018579	-1.484018
F	1.416863	0.0	0.0
H	-1.496742	-0.069585	-1.412857
N	-0.534171	1.083599	0.738497
H	-1.559752	0.820778	0.690742
H	-0.443907	1.883169	0.116126
C	-0.379839	-1.273488	0.659488
N	-0.524612	-2.292974	1.222051
C	0.203061	-1.194177	-2.243491
H	-0.065198	-2.151803	-1.788688
H	1.29547	-1.115775	-2.255142
H	-0.152323	-1.199095	-3.279214
N	-0.022116	1.285702	-2.04396
H	0.972624	1.28464	-2.2473
H	-0.519281	1.425166	-2.915194
F	-2.761844	0.0	0.0
