17

C	0.0	0.0	0.0
C	-0.404208	0.319362	-1.490001
F	1.387232	0.0	0.0
H	0.546025	0.182287	-2.021571
N	-0.549303	0.89203	0.954628
H	-0.34389	0.536171	1.884093
H	-1.577814	0.751257	0.777937
C	-0.32135	-1.435223	0.290461
N	-0.466618	-2.572845	0.546411
C	-0.86367	1.762606	-1.638986
H	-0.178121	2.46461	-1.16175
H	-0.948307	1.987912	-2.705003
H	-1.846937	1.844693	-1.176601
N	-1.395028	-0.548114	-2.106369
H	-2.196809	-0.502415	-1.451957
H	-1.047741	-1.501544	-2.096972
F	-2.835241	0.0	0.0
