17

C	0.0	0.0	0.0
C	-0.419002	-0.258417	-1.476568
F	1.399033	0.0	0.0
H	0.530843	-0.514376	-1.961305
N	-0.532588	1.202874	0.537522
H	-1.560212	1.013717	0.446456
H	-0.30883	1.231083	1.528217
C	-0.310178	-1.183306	0.865486
N	-0.421967	-2.018321	1.6841
C	-1.001611	0.987733	-2.144047
H	-0.373754	1.870435	-2.002227
H	-1.987442	1.154429	-1.709779
H	-1.102286	0.793741	-3.219055
N	-1.289694	-1.427868	-1.551558
H	-1.541284	-1.562252	-2.526063
H	-2.133321	-1.129845	-1.029652
F	-2.840897	0.0	0.0
