17

C	0.0	0.0	0.0
C	-0.50002	0.281313	-1.45151
F	1.418028	0.0	0.0
H	0.38223	0.055946	-2.069
N	-0.482171	0.882702	0.9834
H	-0.181721	0.621172	1.910847
H	-0.25027	1.840964	0.770317
C	-0.352504	-1.382727	0.39677
N	-0.527703	-2.49506	0.725505
C	-0.902341	1.743837	-1.593364
H	-0.129149	2.446729	-1.264061
H	-1.122944	1.937835	-2.644219
H	-1.817399	1.85625	-1.009562
N	-1.624006	-0.509702	-1.887208
H	-2.4099	-0.358037	-1.152312
H	-1.369637	-1.491808	-1.908987
F	-3.237651	0.0	0.0
