17

C	0.0	0.0	0.0
C	-0.410107	-0.31697	-1.467637
F	1.410635	0.0	0.0
H	0.540562	-0.600559	-1.934944
N	-0.532427	1.221395	0.487521
H	-0.320656	1.282563	1.478821
H	-1.560775	1.026837	0.400804
C	-0.30353	-1.151231	0.907126
N	-0.424523	-1.968402	1.7427
C	-0.978726	0.903401	-2.189853
H	-1.96144	1.106699	-1.764623
H	-0.343199	1.786203	-2.091392
H	-1.085553	0.662727	-3.254038
N	-1.291568	-1.482126	-1.503199
H	-2.134456	-1.156376	-0.996239
H	-1.539931	-1.645936	-2.474136
F	-2.836572	0.0	0.0
