17

C	0.0	0.0	0.0
C	-0.17893	-0.178843	-1.544708
F	1.426942	0.0	0.0
H	0.266027	0.765598	-1.89902
N	-0.609871	1.172405	0.478129
H	-0.456221	1.221954	1.482745
H	-1.65103	0.888018	0.336879
C	-0.33345	-1.233031	0.761618
N	-0.534099	-2.168483	1.442384
C	-1.542459	-0.334921	-2.186502
H	-1.406913	-0.229392	-3.273472
H	-2.270553	0.365779	-1.795987
H	-1.942466	-1.324778	-1.963803
N	0.62349	-1.348192	-1.939543
H	1.608066	-1.140073	-1.844952
H	0.431718	-1.546577	-2.913677
F	-2.853529	0.0	0.0
