17

C	-0.465768	0.023289	-1.425648
C	0.0	0.0	0.0
F	0.14889	0.983771	-2.111732
H	1.090654	0.0	0.0
N	-0.180325	-1.281249	-2.186207
O	-1.108182	-2.066188	-2.31648
O	0.95445	-1.37938	-2.623061
N	-1.977982	0.225395	-1.577265
O	-2.347694	0.792588	-2.595784
O	-2.670865	-0.248146	-0.690183
N	-0.345809	-1.210864	0.734422
O	-0.948481	-1.149863	1.805131
O	0.094305	-2.243514	0.211143
N	-0.381952	1.214847	0.68591
O	-1.014496	2.081204	0.054921
O	0.09068	1.35781	1.818342
H	2.306602	0.0	0.0
