17

C	-0.478022	-0.00968	-1.422321
C	0.0	0.0	0.0
F	0.05282	-1.038623	-2.085156
H	1.090654	0.0	0.0
N	-1.999264	-0.079775	-1.57059
O	-2.645165	0.481094	-0.698807
O	-2.424171	-0.642538	-2.569475
N	-0.072797	1.241992	-2.2236
O	1.093381	1.258284	-2.575949
O	-0.946847	2.057635	-2.4781
N	-0.413837	-1.209688	0.682386
O	-1.175823	-1.994925	0.094204
O	0.120873	-1.418282	1.775073
N	-0.3345	1.208276	0.736769
O	-0.813002	1.140636	1.866698
O	0.003533	2.24898	0.157803
H	2.306793	0.0	0.0
