17

C	-0.466939	-0.005469	-1.425969
C	0.0	0.0	0.0
F	-0.014415	1.081692	-2.056452
H	1.090652	0.0	0.0
N	0.067161	-1.196525	-2.237877
O	-0.733663	-2.055822	-2.582502
O	1.256301	-1.126102	-2.504579
N	-1.986603	-0.060186	-1.604737
O	-2.594959	-0.73035	-0.784136
O	-2.44371	0.531896	-2.571872
N	-0.345279	-1.187754	0.751297
O	-0.809909	-1.08905	1.8878
O	-0.025656	-2.243549	0.187679
N	-0.444442	1.217272	0.6654
O	-1.342383	1.892409	0.135531
O	0.169096	1.52045	1.691471
H	2.318586	0.0	0.0
