17

C	-0.471199	-0.002685	-1.424859
C	0.0	0.0	0.0
F	-0.004557	1.073594	-2.063375
H	1.090674	0.0	0.0
N	0.039572	-1.204983	-2.233142
O	-0.779109	-2.041061	-2.589309
O	1.231561	-1.164307	-2.487094
N	-1.992387	-0.033943	-1.593314
O	-2.604603	-0.689752	-0.763911
O	-2.446598	0.558676	-2.560817
N	-0.339701	-1.189103	0.749066
O	-0.024789	-2.243903	0.180463
O	-0.794855	-1.095382	1.89019
N	-0.43398	1.216001	0.670363
O	0.172386	1.499829	1.706154
O	-1.31427	1.910436	0.137111
H	2.313788	0.0	0.0
