17

C	-0.477617	-0.013256	-1.422178
C	0.0	0.0	0.0
F	0.055695	-1.039661	-2.085925
H	1.090675	0.0	0.0
N	-2.000126	-0.087554	-1.569318
O	-2.422065	-0.64681	-2.570999
O	-2.647919	0.464569	-0.693257
N	-0.079604	1.241387	-2.220219
O	-0.95268	2.068646	-2.440146
O	1.079361	1.252602	-2.599582
N	-0.413498	-1.206649	0.686145
O	0.112428	-1.401017	1.786089
O	-1.162632	-2.004433	0.095269
N	-0.325285	1.212318	0.736846
O	0.054987	2.246898	0.173268
O	-0.838901	1.150991	1.85228
H	2.308842	0.0	0.0
