16

C	0.0	0.0	0.0
C	-0.43515	-0.003898	-1.512308
Br	1.953633	0.0	0.0
H	0.446705	0.135844	-2.145721
H	-0.254357	-0.963238	0.442745
N	-0.562056	1.01646	0.827892
H	-0.52996	1.874396	0.283257
H	-1.565221	0.736802	0.815946
N	-1.326421	1.133727	-1.748284
H	-1.55758	1.135638	-2.737439
H	-2.180818	0.885294	-1.21207
C	-1.083748	-1.355169	-1.82151
H	-0.411211	-2.19218	-1.595645
H	-1.353442	-1.413754	-2.883189
H	-1.987649	-1.403178	-1.20818
F	-2.964462	0.0	0.0
