16

C	0.0	0.0	0.0
C	-0.481396	0.012163	-1.460706
Br	1.970915	0.0	0.0
H	-1.570821	0.016212	-1.308595
H	-0.226065	-0.990567	0.412764
N	-0.579385	1.084782	0.718312
H	-1.609448	0.864857	0.543955
H	-0.405446	0.949568	1.710158
N	-0.132953	-1.189586	-2.218859
H	-0.619566	-1.975216	-1.799554
H	0.86283	-1.364988	-2.117215
C	-0.048501	1.253977	-2.218528
H	-0.617814	1.319008	-3.149459
H	1.016338	1.218977	-2.472272
H	-0.233856	2.142898	-1.613769
F	-2.859054	0.0	0.0
