15

C	0.0	0.0	0.0
C	-0.46571	0.039	-1.441709
F	1.410181	0.0	0.0
H	-0.165302	-0.92282	-1.870621
H	-1.563668	0.068795	-1.380126
C	-0.320206	1.287843	0.695722
N	-0.498524	2.297581	1.270815
N	-0.547866	-1.13505	0.651879
H	-1.582282	-0.993158	0.514541
H	-0.375685	-1.057762	1.650165
C	0.099322	1.207342	-2.237815
H	1.191708	1.211829	-2.228357
H	-0.251311	2.159924	-1.832749
H	-0.233245	1.148679	-3.278058
H	-3.040153	0.0	0.0
