15

C	0.0	0.0	0.0
C	-0.22132	-0.049605	-1.534941
F	1.387609	0.0	0.0
H	0.445864	0.732375	-1.915542
H	0.240518	-1.006671	-1.802467
C	-0.341693	1.343486	0.557864
N	-0.466401	2.416512	1.0204
N	-0.599713	-1.091319	0.668252
H	-1.62971	-0.916029	0.48617
H	-0.479553	-0.969911	1.670822
C	-1.568818	0.080652	-2.22386
H	-2.058564	1.020162	-1.980146
H	-2.265092	-0.693612	-1.9202
H	-1.386641	0.028858	-3.308001
H	-3.06336	0.0	0.0
