15

C	0.0	0.0	0.0
C	-0.235024	-0.019488	-1.540643
F	1.391043	0.0	0.0
H	-0.014758	-1.056128	-1.83175
H	0.574006	0.591214	-1.956585
C	-0.368917	1.320325	0.569691
N	-0.581457	2.373579	1.040514
N	-0.598533	-1.024892	0.776607
H	-0.519129	-1.893908	0.255788
H	-1.618898	-0.781721	0.765409
C	-1.554469	0.440959	-2.136998
H	-2.409847	-0.053784	-1.675866
H	-1.708671	1.505652	-1.945483
H	-1.525223	0.285903	-3.223177
H	-3.285949	0.0	0.0
