15

C	0.0	0.0	0.0
C	-0.277707	-0.071533	-1.524075
F	1.3812	0.0	0.0
H	-0.098939	-1.124357	-1.76782
H	0.552357	0.497173	-1.955401
C	-0.328167	1.360903	0.531048
N	-0.458147	2.445596	0.963441
N	-0.593055	-1.070131	0.713217
H	-1.619561	-0.927817	0.531527
H	-0.4577	-0.917841	1.710541
C	-1.572585	0.42022	-2.157095
H	-1.441967	0.395343	-3.247508
H	-1.79689	1.444201	-1.854119
H	-2.432303	-0.164461	-1.840442
H	-3.17513	0.0	0.0
