12

C	-0.357933	-0.050372	-1.492863
C	0.0	0.0	0.0
Cl	-2.109124	-0.320201	-1.772791
H	1.09818	0.0	0.0
H	0.17095	-0.90195	-1.926074
C	0.047121	1.172941	-2.178516
N	0.321941	2.164135	-2.745382
C	-0.451843	-1.213999	0.674633
N	-0.802848	-2.198871	1.20946
C	-0.532282	1.189839	0.652963
N	-0.965345	2.1512	1.170395
Cl	3.111118	0.0	0.0
