12

C	-0.494959	-0.032817	-1.462753
C	0.0	0.0	0.0
Cl	0.129502	1.374449	-2.354479
H	1.096645	0.0	0.0
H	-1.585638	0.040235	-1.485995
C	-0.108314	-1.272613	-2.132536
N	0.124429	-2.275462	-2.697708
C	-0.491819	-1.18505	0.701357
N	-0.909364	-2.141411	1.241306
C	-0.49256	1.206412	0.662479
N	-0.907895	2.172084	1.186561
Cl	3.131151	0.0	0.0
