12

C	-0.408001	0.018656	-1.486962
C	0.0	0.0	0.0
Cl	0.175485	-1.452731	-2.30053
H	1.096539	0.0	0.0
H	0.102484	0.867153	-1.951308
C	-1.854695	0.142646	-1.670719
N	-3.018455	0.240896	-1.807838
C	-0.523007	-1.172976	0.692875
N	-0.941854	-2.119373	1.248477
C	-0.464295	1.23092	0.637502
N	-0.824094	2.238842	1.122148
Cl	3.14336	0.0	0.0
