12

C	-0.395102	0.012841	-1.491084
C	0.0	0.0	0.0
Cl	0.147935	-1.48431	-2.281224
H	1.096521	0.0	0.0
H	0.151355	0.835715	-1.958367
C	-1.831599	0.186841	-1.697105
N	-2.985316	0.334944	-1.862435
C	-0.533575	-1.163718	0.699095
N	-0.966573	-2.103359	1.254954
C	-0.458283	1.238991	0.626825
N	-0.816382	2.252196	1.101685
Cl	3.129037	0.0	0.0
