12

C	-0.49506	-0.027394	-1.462845
C	0.0	0.0	0.0
Cl	0.129634	1.383086	-2.34937
H	1.096593	0.0	0.0
H	-1.585724	0.045974	-1.485836
C	-0.108657	-1.264701	-2.137317
N	0.123887	-2.265315	-2.706486
C	-0.490656	-1.187996	0.697029
N	-0.895669	-2.153032	1.231061
C	-0.49254	1.204117	0.66673
N	-0.908027	2.168043	1.193893
Cl	3.13063	0.0	0.0
