12

C	-0.402523	0.008895	-1.488725
C	0.0	0.0	0.0
Cl	0.163403	-1.476839	-2.284397
H	1.096404	0.0	0.0
H	0.123964	0.843285	-1.958626
C	-1.844198	0.154217	-1.683556
N	-3.00287	0.27539	-1.836721
C	-0.527169	-1.165831	0.701131
N	-0.957617	-2.102486	1.263967
C	-0.461808	1.236925	0.62773
N	-0.823947	2.24917	1.101556
Cl	3.131211	0.0	0.0
