12

C	-0.494793	-0.028435	-1.462893
C	0.0	0.0	0.0
Cl	0.129097	1.381972	-2.35009
H	1.096629	0.0	0.0
H	-1.585502	0.044129	-1.486103
C	-0.107342	-1.265882	-2.136499
N	0.125823	-2.266747	-2.704922
C	-0.491757	-1.187247	0.697661
N	-0.909138	-2.145393	1.234558
C	-0.492701	1.204337	0.666119
N	-0.90826	2.168375	1.193021
Cl	3.130551	0.0	0.0
