12

C	-0.405637	0.018792	-1.487984
C	0.0	0.0	0.0
Cl	0.170145	-1.454921	-2.299434
H	1.096516	0.0	0.0
H	0.112306	0.861878	-1.952293
C	-1.849592	0.153469	-1.676914
N	-3.010953	0.262084	-1.821238
C	-0.524353	-1.171668	0.693191
N	-0.947466	-2.11474	1.250882
C	-0.462579	1.231803	0.637002
N	-0.825964	2.240541	1.117368
Cl	3.140789	0.0	0.0
