16

C	-0.53873	0.004276	-1.404854
C	0.0	0.0	0.0
F	-1.94762	0.081051	-1.353751
H	1.090159	0.0	0.0
H	-0.308987	0.978667	0.390044
N	0.012797	1.001486	-2.206927
H	-0.539166	1.198569	-3.027839
H	0.309	1.817451	-1.696159
N	-0.345035	-1.301323	-2.188815
O	-0.838503	-1.303661	-3.315077
O	0.280227	-2.222621	-1.682919
C	-0.558812	-1.082334	0.916842
H	-0.246635	-0.868925	1.94138
H	-1.651018	-1.110746	0.888504
H	-0.16683	-2.060685	0.648661
Cl	3.520687	0.0	0.0
