16

C	-0.36918	0.142348	-1.461728
C	0.0	0.0	0.0
F	-1.687127	0.503877	-1.602067
H	1.093014	0.0	0.0
H	-0.384516	-0.943546	0.393687
N	0.415398	1.03414	-2.245553
H	0.319333	1.954994	-1.834548
H	1.390013	0.762237	-2.140381
N	-0.270137	-1.243157	-2.110919
O	0.701275	-1.479453	-2.814387
O	-1.175709	-2.028238	-1.843673
C	-0.500277	1.177333	0.830048
H	-0.116525	2.125507	0.444228
H	-0.127553	1.080173	1.851492
H	-1.590755	1.228124	0.855192
Cl	3.447865	0.0	0.0
