12
Coordinates from ORCA-job run
  C   0.86886453521282      0.36297127262739     -0.50691661499266
  C   -0.54717558795563     -0.03729362775590     -0.07168986836245
  F   0.79813599466170      1.14350255282663     -1.63942959885248
  H   -0.96443382008689     -0.66792752719799     -0.86231933983058
  H   1.34998906293413      0.94848727320232      0.28299723673959
  C   1.66594838728778     -0.83792261405183     -0.78524560868314
  N   2.30855803806428     -1.78577128490078     -1.04081730531060
  C   -1.38075039810768      1.17431397737584      0.03882656840672
  N   -2.04178281742067      2.13114721389203      0.20255653001778
  N   -0.44186661339622     -0.81540416523884      1.14826489699484
  H   -0.35992771310128     -0.21175265478879      1.95698536211201
  H   -1.25455906809234     -1.40335041599007      1.27478774176097
