12
Coordinates from ORCA-job run
  C   0.77706701923971     -0.44762461053032     -0.35913666998630
  C   -0.59594657936734      0.19005469602107     -0.07373320074170
  F   1.25428046649756     -1.00026875622931      0.81220973257200
  H   -0.96295419167033      0.62007575375386     -1.01270240439858
  H   0.64874684687222     -1.25988108165428     -1.08186306655820
  C   1.74075512045636      0.52728591763040     -0.88210245766018
  N   2.48105831117217      1.31891569173627     -1.33298723331542
  C   -0.42368153308670      1.28881765129793      0.88848598536589
  N   -0.27151637059881      2.15596966858988      1.66401262298886
  N   -1.58531081334613     -0.74210465332105      0.42798364611935
  H   -1.84019969024214     -1.41361377267600     -0.28534928684581
  H   -1.22329858592657     -1.23662650461843      1.23418233246008
