12
Coordinates from ORCA-job run
  C   0.55311539000806     -0.08161391760249     -0.94460880737660
  C   -0.66847055870435      0.10874971670509     -0.04193345790798
  F   0.43504570001983     -1.33086140003057     -1.53153542799318
  H   -1.54679238438009      0.04502557609367     -0.70406559018217
  H   0.56136362207507      0.66510734079581     -1.74341216624065
  C   1.80864597518304     -0.01514526718253     -0.18762956190457
  N   2.83474364166294      0.06373436688689      0.37571767011809
  C   -0.63364089509824      1.45811316942175      0.53066363133115
  N   -0.61860904511645      2.54510542611131      0.97272378417727
  N   -0.62582579492918     -0.89089776781682      1.01040645819830
  H   -1.38520265710841     -0.75519308276665      1.66537491534353
  H   -0.71537299361221     -1.81212416061546      0.59929855243681
