12
Coordinates from ORCA-job run
  C   0.95131874742424      0.36148547657804     -0.33073397518655
  C   -0.53392970698630      0.02689547733782     -0.13859881420174
  F   1.08321359378482      1.32641872597282     -1.30457984092003
  H   -0.88982785652208     -0.42056883465718     -1.07128706630235
  H   1.36822514641122      0.75627918510025      0.60123305164162
  C   1.68783507424155     -0.84449762711521     -0.72873862023146
  N   2.28488953637932     -1.79268014654318     -1.07669728466856
  C   -1.28729795804680      1.27380454337307      0.09051453268101
  N   -1.89780029876902      2.24412622188520      0.34572476583781
  N   -0.64166654588259     -0.95192473209932      0.92683767578244
  H   -1.50361490036780     -1.47525002870271      0.85300645175637
  H   -0.62134483166655     -0.50308826112960      1.83431912381143
