18
Coordinates from ORCA-job run
  C   -0.68749061975600      0.19084474915389     -0.36633411996554
  C   0.60881400381289     -0.05215232650323      0.42994312850931
  Br  -0.38351062445508      1.47771211860243     -1.78954565553305
  H   0.30451701218009     -0.73566055594927      1.23018567538803
  C   -1.83615308758508      0.66954762169354      0.49844999835470
  H   -2.74111932984959      0.79187036319587     -0.09938902217993
  H   -2.02025826819733     -0.06211491036666      1.28671269555097
  H   -1.55790513593469      1.62063114635183      0.94721731011678
  N   -1.07397039529379     -1.15752861595794     -0.97171242303814
  O   -1.34464092661546     -2.01018581009170     -0.12721627251663
  O   -1.06385412579681     -1.33002679307885     -2.18168169534969
  N   0.99366985293731      1.20316675709090      1.06230511305161
  H   1.61143640082387      1.01126264043546      1.84125977304496
  H   1.50091422761144      1.78023534638614      0.40082054325106
  C   1.70566794047970     -0.72416086510642     -0.39223658643111
  H   1.39861788797525     -1.69739964425714     -0.78246292394960
  H   2.00576522980176     -0.09351230822480     -1.23197484323490
  H   2.57849995786151     -0.88352891337403      0.24565930493118
