18
Coordinates from ORCA-job run
  C   -0.65431207296405      0.18806444242446     -0.42410865526220
  C   0.57969526526105     -0.04017130313537      0.46971660761767
  Br  -0.19911925620417      1.31172307595548     -1.94236062502528
  H   0.19288740375076     -0.62458457641332      1.31179118450166
  C   -1.82071162005538      0.80721723361290      0.31932681876577
  H   -2.09153103207027      0.16534346609102      1.15909261704741
  H   -2.68160829220239      0.91932768430873     -0.34216623928179
  H   -1.51296105198095      1.78104162174018      0.69401904519533
  N   -1.08121252790346     -1.19224452712152     -0.92100180791250
  O   -1.01236896687333     -1.48287630179190     -2.10621360068419
  O   -1.44643632872317     -1.94306647924831     -0.01745650357809
  N   0.99868208481810      1.25044422532550      1.00146533941480
  H   1.56256748453230      1.10475745879003      1.82980994962665
  H   1.57224353556225      1.73340437014518      0.31900489419125
  C   1.68136636992738     -0.84460642021802     -0.21561544549630
  H   2.50586090200081     -0.98629918415035      0.48747247722347
  H   2.06458565458793     -0.31442594366075     -1.09026440506280
  H   1.34237244853660     -1.83404884265393     -0.53151165128086
