18
Coordinates from ORCA-job run
  C   -0.77692901164477      0.35819555509291     -0.26017530909264
  C   0.70351381555406      0.52714703101684      0.12781449042204
  Br  -1.42825071599533      1.95920458353212     -1.16083991668674
  H   0.67142298189615      1.30121171543714      0.90381251981478
  C   -1.67498126711454      0.07929329226925      0.92992325038330
  H   -1.51633691000790      0.85454878195055      1.68129566459292
  H   -1.44879098122813     -0.89672007869116      1.36196657814715
  H   -2.72014241031385      0.08324454723241      0.63094539361539
  N   -0.95199895975021     -0.77083298936002     -1.27286517954957
  O   -0.01969692930423     -0.99360054276124     -2.04167604880857
  O   -2.01990165213816     -1.37268028691663     -1.26666957292735
  N   1.51483981150266      1.06928878700378     -0.94764383975605
  H   2.38377769302893      1.42006420485733     -0.56580816794296
  H   1.72188832821406      0.35023296105595     -1.62731625557456
  C   1.26579489538663     -0.75550487678091      0.75886295716865
  H   1.30142786710420     -1.56656199333809      0.02872645419058
  H   0.70434675644692     -1.08867068243904      1.63390261425463
  H   2.29001668836351     -0.55786000916121      1.08374436774901
