14

C	-0.519129	-0.015132	-1.4464
C	0.0	0.0	0.0
Cl	0.065789	1.403184	-2.365028
H	1.095732	0.0	0.0
H	-1.61156	0.056166	-1.442942
C	-0.155316	-1.23585	-2.164544
N	0.063508	-2.223203	-2.760714
C	-0.495668	-1.209646	0.654144
N	-0.940681	-2.153603	1.195201
C	-0.463965	1.236672	0.772344
H	-1.554491	1.334355	0.770134
H	-0.015689	2.129426	0.336963
H	-0.117983	1.159216	1.804009
Br	3.441485	0.0	0.0
