14

C	-0.37349	-0.020612	-1.484403
C	0.0	0.0	0.0
Cl	-2.142364	-0.251058	-1.752903
H	1.097591	0.0	0.0
H	0.122055	-0.86686	-1.964517
C	0.028093	1.211426	-2.159275
N	0.313375	2.200605	-2.724244
C	-0.453471	-1.236913	0.629474
N	-0.837531	-2.215395	1.153994
C	-0.506943	1.226471	0.751719
H	-1.597802	1.288147	0.739482
H	-0.085011	2.127904	0.303028
H	-0.164427	1.177456	1.78643
Br	3.406665	0.0	0.0
