14

C	-0.372508	-0.020588	-1.484838
C	0.0	0.0	0.0
Cl	-2.140273	-0.252836	-1.7553
H	1.097586	0.0	0.0
H	0.124583	-0.866114	-1.964307
C	0.02884	1.21191	-2.159203
N	0.313911	2.201574	-2.723592
C	-0.453786	-1.237085	0.628808
N	-0.838066	-2.215419	1.153474
C	-0.5076	1.226279	0.751551
H	-1.598249	1.289429	0.735904
H	-0.168678	1.175772	1.787271
H	-0.083083	2.127506	0.305208
Br	3.406079	0.0	0.0
