14

C	-0.515239	0.00178	-1.447928
C	0.0	0.0	0.0
Cl	0.065814	1.436672	-2.342001
H	1.095689	0.0	0.0
H	-1.608103	0.068063	-1.447763
C	-0.142357	-1.206269	-2.183139
N	0.08382	-2.184102	-2.793573
C	-0.494215	-1.218038	0.639218
N	-0.933063	-2.168368	1.173775
C	-0.469075	1.227407	0.783162
H	-1.560047	1.320663	0.779833
H	-0.12456	1.141973	1.814772
H	-0.024139	2.125921	0.356608
Br	3.437631	0.0	0.0
