14

C	-0.508557	-0.003845	-1.451983
C	0.0	0.0	0.0
Cl	0.064672	1.432725	-2.35322
H	1.095744	0.0	0.0
H	-1.601921	0.054299	-1.45884
C	-0.120819	-1.210829	-2.181828
N	0.120391	-2.190537	-2.787885
C	-0.491597	-1.221447	0.636764
N	-0.919875	-2.180164	1.165553
C	-0.47607	1.223736	0.782834
H	-0.036378	2.125801	0.357513
H	-0.131378	1.139602	1.814562
H	-1.568123	1.310751	0.779047
Br	3.385117	0.0	0.0
