14

C	-0.423048	0.024144	-1.470922
C	0.0	0.0	0.0
Cl	0.152557	-1.419673	-2.34636
H	1.09553	0.0	0.0
H	0.062681	0.881865	-1.941704
C	-1.872716	0.13607	-1.63632
N	-3.035287	0.247485	-1.751771
C	-0.513915	-1.188095	0.674924
N	-0.940605	-2.121355	1.247407
C	-0.45335	1.276092	0.714136
H	-1.542587	1.360235	0.764074
H	-0.043346	2.146548	0.194955
H	-0.047537	1.277553	1.726996
Br	3.414349	0.0	0.0
