14

C	-0.518739	-0.005399	-1.446386
C	0.0	0.0	0.0
Cl	0.069612	1.418222	-2.353914
H	1.09575	0.0	0.0
H	-1.610963	0.069961	-1.442521
C	-0.159343	-1.221908	-2.174394
N	0.056596	-2.205967	-2.7784
C	-0.496428	-1.211224	0.650341
N	-0.940445	-2.15522	1.191833
C	-0.464431	1.234985	0.774589
H	-0.116758	1.157355	1.805748
H	-1.555076	1.330759	0.773938
H	-0.018484	2.128696	0.339103
Br	3.440619	0.0	0.0
