14

C	-0.518291	-0.007883	-1.446764
C	0.0	0.0	0.0
Cl	0.06679	1.414791	-2.357864
H	1.095791	0.0	0.0
H	-1.610721	0.063488	-1.443619
C	-0.153894	-1.22454	-2.171825
N	0.065606	-2.20884	-2.773398
C	-0.495629	-1.212139	0.649158
N	-0.937928	-2.157359	1.189873
C	-0.465247	1.23334	0.776656
H	-0.118754	1.15328	1.808
H	-1.555816	1.329237	0.774912
H	-0.018889	2.128024	0.343908
Br	3.442656	0.0	0.0
