15

C	0.0	0.0	0.0
C	-0.26878	-0.104952	-1.552025
F	1.404779	0.0	0.0
H	0.497579	0.512147	-2.027766
C	-0.420999	1.320995	0.506062
N	-0.509195	2.400448	0.960351
N	-0.469042	-1.021058	0.843095
H	-0.192756	-1.920178	0.461817
H	-1.513215	-0.867281	0.736621
N	-1.56009	0.444615	-2.109653
O	-2.304536	-0.321018	-2.701065
O	-1.650352	1.662284	-2.059342
C	-0.085964	-1.48899	-1.966772
N	0.121458	-2.609175	-2.2516
F	-2.53895	0.0	0.0
