15

C	0.0	0.0	0.0
C	-0.259108	-0.26456	-1.535863
F	1.404685	0.0	0.0
H	0.494387	0.322009	-2.068238
C	-0.423749	1.366459	0.359881
N	-0.508419	2.493017	0.681288
N	-0.471957	-0.92945	0.94074
H	-1.516428	-0.784648	0.816853
H	-0.195528	-1.86239	0.65249
N	-1.561401	0.191251	-2.14938
O	-1.676182	1.404863	-2.243025
O	-2.294834	-0.653914	-2.639173
C	-0.040025	-1.679	-1.808057
N	0.194276	-2.817826	-1.974909
F	-2.542724	0.0	0.0
