15

C	0.0	0.0	0.0
C	-0.515711	0.552843	-1.356288
F	1.400676	0.0	0.0
H	-1.478639	0.046375	-1.517725
C	-0.365723	0.900652	1.120177
N	-0.497867	1.548031	2.092732
N	-0.452408	-1.336484	0.144848
H	-1.487802	-1.182791	0.168188
H	-0.13305	-1.684415	1.042973
N	0.480395	0.171661	-2.421482
O	1.369702	0.97303	-2.702277
O	0.341907	-0.947451	-2.911253
C	-0.737763	1.992612	-1.3952
N	-0.9831	3.13774	-1.496066
F	-2.604757	0.0	0.0
