15

C	0.0	0.0	0.0
C	-0.220966	-0.058997	-1.565348
F	1.404751	0.0	0.0
H	0.462313	0.680205	-1.989074
C	-0.433583	1.313605	0.511956
N	-0.525784	2.400744	0.946958
N	-0.487057	-1.04054	0.799792
H	-1.534303	-0.864157	0.69155
H	-0.221543	-1.929291	0.386957
N	-1.566274	0.31835	-2.135641
O	-2.244943	-0.562269	-2.641447
O	-1.779195	1.522013	-2.169008
C	0.163691	-1.386387	-2.029585
N	0.498284	-2.460043	-2.368507
F	-2.560316	0.0	0.0
