16

C	-0.465157	0.001286	-1.410053
C	0.0	0.0	0.0
F	-0.208856	1.167284	-2.022254
H	1.092545	0.0	0.0
H	-0.308388	0.978401	0.386561
N	0.115889	-1.094798	-2.299014
O	0.592435	-2.081085	-1.75846
O	0.0298	-0.886274	-3.505425
N	-1.976337	-0.217887	-1.508618
O	-2.679132	0.779215	-1.381911
O	-2.367463	-1.379317	-1.60139
C	-0.537271	-1.113162	0.887783
H	-0.310084	-2.093453	0.474012
H	-0.032927	-1.037467	1.853811
H	-1.616896	-1.041214	1.056184
H	2.798302	0.0	0.0
