16

C	-0.538866	0.00377	-1.379669
C	0.0	0.0	0.0
F	-1.87989	0.228965	-1.445527
H	1.089131	0.0	0.0
H	-0.304895	0.971202	0.407662
N	0.115672	1.119714	-2.190253
O	-0.294736	2.246516	-1.941225
O	1.008324	0.809864	-2.966191
N	-0.292627	-1.25463	-2.192211
O	0.564971	-2.032523	-1.794714
O	-0.974753	-1.368885	-3.208495
C	-0.531984	-1.129815	0.872449
H	-0.156758	-2.093153	0.528544
H	-0.154573	-0.980265	1.886699
H	-1.625315	-1.158081	0.9111
H	2.833654	0.0	0.0
