16

C	0.0	0.0	0.0
C	-0.341903	0.009491	-1.524808
F	1.385742	0.0	0.0
H	0.500614	-0.508958	-1.985375
N	-0.453686	1.208101	0.611354
H	-0.172268	1.182113	1.587645
H	-1.484416	1.077542	0.554851
N	-0.452011	-1.265118	0.504636
H	-1.480037	-1.112606	0.503717
H	-0.128507	-1.344657	1.465019
N	-0.247735	1.416965	-2.05054
O	0.88823	1.813326	-2.304321
O	-1.276619	2.068186	-2.172122
C	-1.563119	-0.625522	-2.018631
N	-2.299212	-1.224475	-2.711605
F	-2.689713	0.0	0.0
