16

C	0.0	0.0	0.0
C	-0.165227	-0.125509	-1.569451
F	1.428565	0.0	0.0
H	0.278765	0.785087	-1.972389
N	-0.498944	1.268405	0.381409
H	-0.301961	1.355605	1.375387
H	-1.530906	1.103294	0.290117
N	-0.465441	-1.072113	0.788685
H	-0.198794	-1.96695	0.392449
H	-1.495558	-0.943227	0.728236
N	-1.551336	-0.191143	-2.152132
O	-2.021598	0.871053	-2.537896
O	-2.048025	-1.302254	-2.291304
C	0.566947	-1.292175	-2.054896
N	1.200382	-2.200066	-2.447339
F	-2.735929	0.0	0.0
