16

C	0.0	0.0	0.0
C	-0.490932	-0.067569	-1.479473
F	1.371375	0.0	0.0
H	-1.592169	-0.132689	-1.34873
N	-0.487821	1.257516	0.477076
H	-1.513955	1.124511	0.421823
H	-0.24337	1.285642	1.463482
N	-0.456152	-1.087803	0.804581
H	-0.18891	-1.977188	0.398263
H	-1.482619	-0.992767	0.739664
N	0.023414	-1.313292	-2.123606
O	1.037712	-1.243923	-2.816703
O	-0.588913	-2.353936	-1.875529
C	-0.066228	1.079546	-2.265813
N	0.248304	2.004157	-2.919196
F	-2.800424	0.0	0.0
