16

C	0.0	0.0	0.0
C	-0.511258	0.000292	-1.454462
F	1.389358	0.0	0.0
H	-1.61383	0.018703	-1.329852
N	-0.461238	1.238946	0.562519
H	-1.486736	1.097372	0.558274
H	-0.139829	1.280593	1.525386
N	-0.447634	-1.229719	0.590868
H	-1.474822	-1.115843	0.564354
H	-0.14532	-1.231914	1.56034
N	-0.124961	-1.276158	-2.138636
O	1.047242	-1.398778	-2.490726
O	-1.006065	-2.116045	-2.293503
C	0.017963	1.11699	-2.220352
N	0.41446	2.009548	-2.871729
F	-2.792593	0.0	0.0
