16

C	0.0	0.0	0.0
C	-0.506117	-0.040285	-1.470148
F	1.370817	0.0	0.0
H	-1.608269	-0.047481	-1.341805
N	-0.464617	1.179602	0.667293
H	-0.165765	2.01387	0.171737
H	-1.490755	1.077645	0.6069
N	-0.480531	-1.196805	0.61136
H	-1.506679	-1.088529	0.533134
H	-0.241732	-1.116901	1.595615
N	-0.077725	-1.300015	-2.157152
O	1.093571	-1.371549	-2.529675
O	-0.921097	-2.183349	-2.281838
C	-0.018086	1.097903	-2.232301
N	0.343158	2.045865	-2.824511
F	-2.807533	0.0	0.0
