14
Coordinates from ORCA-job run
  C   1.12857416096044      0.02820639537249      0.27130250663721
  C   -0.18338851940203      0.22477476889101      0.07370296391498
  H   1.78223365254324      0.74566248304326      0.75070005254572
  N   1.87111357905907     -1.12981831975962     -0.19907394331200
  O   1.26818931303596     -2.17385929085073     -0.44891370883893
  O   3.08902269532869     -0.97433429271656     -0.30128144029675
  C   -0.80042903269875      1.48154922478931      0.61968049425131
  H   -1.22494700259664      2.07734017196298     -0.19416296626650
  H   -1.62522982088520      1.22817960068198      1.29307352333727
  H   -0.08397604047559      2.09773569657673      1.16516204576700
  C   -1.11987047505675     -0.71501226816021     -0.63124424329419
  H   -0.65482874258679     -1.20371042284152     -1.48562841078606
  H   -2.00848009550490     -0.17323189086956     -0.96127249150666
  H   -1.43698367172073     -1.51048185611957      0.04895561784760
