14
Coordinates from ORCA-job run
  C   0.79672411762431     -0.77061518372644      0.34130174565116
  C   -0.29010954489144     -0.07376342032274     -0.02280283926138
  H   0.77130872881359     -1.80132469901079      0.67114609756010
  N   2.14152410292107     -0.22462493482502      0.42402580749084
  O   2.41596258971607      0.80383450927211     -0.19469199263129
  O   2.93179446304245     -0.86205752580416      1.12185719418286
  C   -1.61198486568290     -0.78805330016171     -0.04691755868433
  H   -2.30924514589370     -0.31229102155262      0.64954701686872
  H   -2.05641227565023     -0.71383544177132     -1.04431010962798
  H   -1.52325815623388     -1.84322015461058      0.21631057664801
  C   -0.31353494033244      1.37013442336019     -0.43864514694737
  H   0.02058934787740      1.46952939830388     -1.47492164838898
  H   0.35504951816721      1.98472985648535      0.16206227192972
  H   -1.33040793947752      1.76055749436384     -0.36596141479008
