14
Coordinates from ORCA-job run
  C   1.00971138736329     -0.20696412220881      0.53247907578461
  C   -0.18218372302963      0.22077358409730      0.09015917136127
  H   1.52201308313393      0.21106400377301      1.38957181985531
  N   1.74122565906238     -1.33559664120184     -0.01929167852872
  O   2.59742657450406     -1.82571026544488      0.71874590742549
  O   1.48583603124089     -1.72277981760075     -1.15980478543524
  C   -0.95502698834380     -0.35859539822587     -1.06103018805391
  H   -0.90069614497763     -1.44568146873326     -1.09144790317585
  H   -1.99997595369737     -0.04862777347760     -0.99926777514694
  H   -0.54521642420281     -0.00049630220941     -2.00932085383114
  C   -0.80989231551438      1.39998490850125      0.77823241135696
  H   -1.77418464445291      1.11433139048278      1.20964521143673
  H   -0.18054682751849      1.80675221163177      1.57132519453256
  H   -1.00848971356754      2.19254569061633      0.05000439241887
