14
Coordinates from ORCA-job run
  C   1.08438875149813     -0.02803907435915      0.41191628596603
  C   -0.17892462399314      0.23669658812686      0.04713544296934
  H   1.68780421131516      0.62974507421672      1.02432108135071
  N   1.79113761630962     -1.26263679433836      0.11043275666898
  O   1.40660772665988     -1.96656675251032     -0.82358833506387
  O   2.75962840855827     -1.50982059221377      0.83062708680992
  C   -1.07122377806439     -0.66708089063158     -0.75605574047817
  H   -0.95762099101888     -1.71411539109035     -0.47945694160002
  H   -2.11352658513427     -0.36914501249387     -0.62674268183261
  H   -0.82256061780878     -0.59753132202004     -1.81843149133348
  C   -0.76895380238582      1.55880348537268      0.44930693640840
  H   -0.05726329728632      2.19060223927952      0.98304563780727
  H   -1.64361743243423      1.40171030803691      1.08792951862411
  H   -1.11487558621522      2.09737813462475     -0.43843955629661
