14
Coordinates from ORCA-job run
  C   0.79413724528409     -0.83659164974802      0.12515703817963
  C   -0.28658383714775     -0.06465178256424     -0.06262066406477
  H   0.77423349990705     -1.91884636120286      0.11253722857519
  N   2.12029254094463     -0.33786663101759      0.45256314145310
  O   2.88203930210629     -1.15520120272822      0.97166328871485
  O   2.40781973076399      0.83064565530818      0.19240709530263
  C   -1.59036704045365     -0.73910006702290     -0.38372923634277
  H   -1.49285246046986     -1.82276643848857     -0.46562444309094
  H   -1.98638008165061     -0.35294328919814     -1.32812139041229
  H   -2.33134703525032     -0.51269998271899      0.38908729878557
  C   -0.31759119652420      1.43651917194568     -0.00221285212979
  H   0.06253489997024      1.86066138039151     -0.93544474035431
  H   -1.34403141889634      1.78062930800323      0.13881391689301
  H   0.30909585141645      1.83221188904093      0.79552431849090
