14
Coordinates from ORCA-job run
  C   0.76770267242828     -0.82797956449622      0.26579021505980
  C   -0.28240656857649     -0.06687679083631     -0.07652932148946
  H   0.74947037424947     -1.91014481273420      0.28524512601767
  N   2.09234342650666     -0.31783722222452      0.57988318758574
  O   3.01078478875315     -1.13437572168175      0.49224709804830
  O   2.22279953495364      0.85896510352465      0.91760191226984
  C   -1.58387144465608     -0.75392584910940     -0.38020241458385
  H   -2.37097075585709     -0.36508719755622      0.27340244097729
  H   -1.52724967044733     -1.83572044646426     -0.24960304748485
  H   -1.89019330723549     -0.54206826439866     -1.40920143509342
  C   -0.29176412121767      1.43297859678621     -0.16717370148630
  H   -0.38055866208355      1.87124401002924      0.83057234896981
  H   -1.14411117474317      1.76272521095815     -0.76433535295451
  H   0.62702490792567      1.82810294820329     -0.59769705583606
