14
Coordinates from ORCA-job run
  C   1.09022897561244     -0.04762224301403      0.39505021721056
  C   -0.18839970703503      0.21642120162885      0.08747918733060
  H   1.69568414153289      0.57079213071925      1.04527609651541
  N   1.86527060687963     -1.14443391931686     -0.16110254110243
  O   3.08895997012384     -1.02125540618087     -0.08740710749027
  O   1.28038276565658     -2.11169915192300     -0.64918434343385
  C   -0.84421833150624      1.39834802619667      0.74386334765520
  H   -0.18485826370513      1.90575176405655      1.44978251659542
  H   -1.16500447053011      2.11938968882498     -0.01430715946697
  H   -1.74366743607569      1.07539689681054      1.27735844318712
  C   -1.05250087049256     -0.58015323374461     -0.84886457024879
  H   -1.42569343701507     -1.47713579358298     -0.34716190597811
  H   -0.50731929779734     -0.92213940949426     -1.72722937416366
  H   -1.90886464564821      0.01933944901977     -1.16355280661023
