14
Coordinates from ORCA-job run
  C   0.80603139756731     -0.82738213565144      0.11378294386614
  C   -0.29139224411835     -0.06783672302029     -0.02024928205403
  H   0.79334051148809     -1.90960941559400      0.13448875562418
  N   2.16537640635540     -0.31501789496198      0.16528475987680
  O   3.05067117409856     -1.12970323020913     -0.10034988026397
  O   2.35683617882881      0.86178572526370      0.47252635990360
  C   -0.32026684595212      1.43202189760685     -0.10701042897338
  H   -1.27126073713372      1.76065082345656     -0.53055663761858
  H   0.49891137037826      1.82913215998513     -0.70446637219644
  H   -0.21744498948024      1.86983733534073      0.88963565165148
  C   -1.62635288441875     -0.75594710690110     -0.06790557564580
  H   -2.12409755453558     -0.54539554630307     -1.01950749066326
  H   -2.27388538107417     -0.36595697043077      0.72363247269958
  H   -1.54546640200350     -1.83757891858120      0.05069472379368
