14
Coordinates from ORCA-job run
  C   1.02936167492831     -0.12665626481015      0.51975139283351
  C   -0.16741939434642      0.24564243972707      0.04193123819739
  H   1.63815442219194      0.48764923419561      1.17075233683207
  N   1.71171356722862     -1.36224930274920      0.17160890641779
  O   2.92652970987382     -1.37430703808342      0.37679137445907
  O   1.06230794471801     -2.30455575545779     -0.28257046559649
  C   -1.02509245544923     -0.54843544605858     -0.90249040152730
  H   -1.76392759532060      0.10493521012764     -1.37054952991499
  H   -0.44045622252620     -1.04561700715948     -1.67493380790728
  H   -1.55609290678455     -1.33535326530044     -0.36007797390458
  C   -0.73196357932636      1.56172546214004      0.49709350339616
  H   -0.08746801077780      2.06814518555233      1.21728195610166
  H   -1.71295394361880      1.40589617770610      0.95680945808932
  H   -0.88369321079073      2.22318037017029     -0.36139798747632
