14
Coordinates from ORCA-job run
  C   0.76457742521845     -0.83326857815715      0.25844074090989
  C   -0.28392314045290     -0.06514514286982     -0.07298143732506
  H   0.73790631262131     -1.91517754710016      0.28217918943974
  N   2.09740335095506     -0.33258672197409      0.55235329793870
  O   2.24212570275925      0.84480564567072      0.88211336345393
  O   3.00776619849162     -1.15729590624392      0.45691612244340
  C   -1.59526790652014     -0.74248651545478     -0.35501115104466
  H   -1.91546616701581     -0.53066406560732     -1.37978258444400
  H   -1.54578684761882     -1.82434754387303     -0.22221501399318
  H   -2.36895647607102     -0.34500503457308      0.30935118423880
  C   -0.28231562346769      1.43446719985562     -0.16918023735979
  H   -0.35272002534957      1.87728789362263      0.82799686968707
  H   -1.14048312374182      1.76916042887724     -0.75516702055200
  H   0.63314032019209      1.82025588782713     -0.61501332339284
