17

C	0.0	0.0	0.0
C	-0.544944	0.011898	-1.454405
Cl	1.791757	0.0	0.0
H	-0.14188	0.893429	-1.961975
C	-0.420558	1.231337	0.668318
N	-0.774343	2.22346	1.192011
C	-0.457402	-1.228455	0.785953
H	-1.540901	-1.190881	0.918351
H	-0.216426	-2.111406	0.192757
H	0.034503	-1.245293	1.762436
N	-2.020416	0.019495	-1.378867
H	-2.226551	-0.93524	-1.729773
H	-2.415753	0.733811	-1.981405
N	-0.204726	-1.133638	-2.293952
O	0.990948	-1.142314	-2.809642
O	-0.876644	-2.253748	-1.952779
H	-2.926154	0.0	0.0
