16
Coordinates from ORCA-job run
  C   0.74719939735191     -0.30291066683082     -0.48591919538818
  C   -0.36603943662505      0.19949072276688      0.45216384394029
  H   0.41889266373931     -0.14327529431855     -1.52208051968617
  H   -0.16894337629224     -0.22413440738178      1.44602166103561
  C   0.88868634047044     -1.76195572449812     -0.30128810786699
  N   1.03924013740642     -2.91650393081308     -0.14455772116068
  N   1.98625486563738      0.43743107268171     -0.28791381623277
  H   2.12557223397742      0.62583722334565      0.69659199600195
  H   2.77814443724797     -0.08320039298650     -0.64337200396206
  C   -1.72551200527630     -0.30472578446701     -0.02828625541517
  H   -1.95489627177044      0.10945646137038     -1.01483005103431
  H   -2.51061067262442      0.01412025850430      0.66262848448410
  H   -1.76004783107321     -1.39624679017741     -0.08877022910192
  N   -0.25266716252194      1.64887665104690      0.57817865510483
  H   -0.15741493607597      2.07912791301868     -0.33445895832143
  H   -1.08785838357129      2.01861268873877      1.01689221760287
