16
Coordinates from ORCA-job run
  C   0.92035663464041     -0.47533853080684      0.13622649308668
  C   -0.25590229027595      0.47947522526220      0.43191311875969
  H   1.14683257398403     -1.06046191587422      1.03330184034062
  H   0.08502313381735      1.19935624864639      1.18606901163530
  C   2.10724416147604      0.35161542526266     -0.17384179951948
  N   3.03846371112323      1.01862634252932     -0.43119189488486
  N   0.53435291082580     -1.38125978872401     -0.92998068076067
  H   1.29276756328713     -2.01249700112521     -1.15492614852631
  H   0.32806012237500     -0.81469309821148     -1.74562622840403
  C   -1.45466848197750     -0.28596996872916      0.97212456354451
  H   -1.82271945322963     -0.97641387542106      0.21141155550637
  H   -2.24910929790217      0.41173078887440      1.24858330570930
  H   -1.19037882549222     -0.87146977239016      1.85587250999633
  N   -0.58217904765320      1.17322545430222     -0.81734438172102
  H   -0.33492056953285      2.15245869444139     -0.78374638287787
  H   -1.56422284546546      1.09161577196355     -1.03884488188454
