16
Coordinates from ORCA-job run
  C   0.72870762933772     -0.19483906762741     -0.43321310711089
  C   -0.44999548255758      0.23097882103144      0.47250878039363
  H   0.49483654458128      0.13481390049965     -1.45239830466926
  H   -0.18244415268599     -0.06688656975483      1.49589625443137
  C   0.87959828120498     -1.66249390097313     -0.45244899052061
  N   1.02989251566544     -2.82777242345389     -0.42201977324844
  N   1.94133556278684      0.50119091629021     -0.00736847426081
  H   2.27112473649703      0.10192294190814      0.86500817547733
  H   2.67830315535342      0.37963410656876     -0.69189846410613
  C   -1.74367382876777     -0.46243571001491      0.08036852883252
  H   -2.00342814325933     -0.22830283141461     -0.95796890522990
  H   -1.67184981762576     -1.54685230604474      0.17634287739695
  H   -2.55186232261347     -0.10530949518872      0.72014153454404
  N   -0.64027203006226      1.67206419298668      0.47320917682671
  H   0.26864088945167      2.11696403815922      0.54591894361769
  H   -1.04891353730621      1.95732338702812     -0.41107825237418
