15

C	-0.45912	-0.050038	-1.443477
C	0.0	0.0	0.0
F	-1.839169	-0.348825	-1.47414
H	1.093577	0.0	0.0
H	-0.317446	-0.953605	0.445429
C	-0.321701	1.262907	-2.101861
N	-0.249705	2.276836	-2.688238
C	0.280731	-1.119781	-2.221462
H	1.352201	-0.908719	-2.196497
H	0.106287	-2.08633	-1.742995
H	-0.077895	-1.161394	-3.251763
N	-0.525652	1.167517	0.695752
H	0.20614	1.562461	1.270689
H	-1.30491	0.920254	1.288353
Cl	3.464855	0.0	0.0
