15

C	-0.428443	-0.070801	-1.453622
C	0.0	0.0	0.0
F	-0.139206	-1.356967	-1.931014
H	1.093673	0.0	0.0
H	-0.345734	0.955142	0.407915
C	-1.890108	0.105934	-1.596425
N	-3.03839	0.312346	-1.731733
C	0.334538	0.922621	-2.305541
H	1.400583	0.759213	-2.14093
H	0.085114	0.781217	-3.358785
H	0.083809	1.943491	-2.013148
N	-0.616185	-1.09569	0.750808
H	-0.127238	-1.942013	0.485801
H	-0.417064	-0.952944	1.733839
Cl	3.529583	0.0	0.0
