15

C	-0.434069	0.019721	-1.452483
C	0.0	0.0	0.0
F	-0.143619	-1.23341	-2.012473
H	1.100961	0.0	0.0
H	-0.342712	0.929137	0.467335
C	-1.898338	0.197503	-1.576675
N	-3.048254	0.398892	-1.704658
C	0.320108	1.070374	-2.244371
H	0.064942	0.992204	-3.302818
H	0.065634	2.071177	-1.886786
H	1.389575	0.901503	-2.096995
N	-0.617007	-1.138055	0.684964
H	-0.365473	-1.075855	1.665355
H	-0.157911	-1.971704	0.335199
Cl	3.53324	0.0	0.0
