18

C	0.0	0.0	0.0
C	-0.635505	-0.080386	-1.393447
Cl	1.754833	0.0	0.0
H	-1.664404	0.290193	-1.255871
N	-0.334195	1.456332	0.583693
O	0.575348	2.241975	0.801968
O	-1.517551	1.641181	0.797912
N	-0.580156	-0.879938	0.953878
H	-1.59849	-0.731094	0.913813
H	-0.375532	-1.839835	0.70487
C	-0.661678	-1.485594	-1.949144
H	0.321381	-1.958066	-1.917052
H	-0.998426	-1.462769	-2.985249
H	-1.389597	-2.062952	-1.378954
N	0.057375	0.867829	-2.322012
O	-0.089534	2.065562	-2.088603
O	0.740168	0.40591	-3.235764
Cl	-3.870157	0.0	0.0
