18

C	0.0	0.0	0.0
C	-0.625726	0.050613	-1.39991
Cl	1.754817	0.0	0.0
H	-1.656503	0.404736	-1.24079
N	-0.33853	1.393114	0.716134
O	0.57052	2.145613	1.031978
O	-1.524916	1.563132	0.923041
N	-0.583771	-0.964422	0.864071
H	-1.603375	-0.821096	0.832136
H	-0.36599	-1.897938	0.53789
C	-0.640086	-1.295726	-2.08733
H	-1.365541	-1.930257	-1.577764
H	-0.972422	-1.177454	-3.118487
H	0.347305	-1.761757	-2.09497
N	0.070365	1.08519	-2.227826
O	0.754347	0.717522	-3.183196
O	-0.075743	2.254364	-1.874239
Cl	-3.88755	0.0	0.0
