12

C	-0.596616	0.018166	-1.396992
C	0.0	0.0	0.0
Cl	-0.029021	-1.374467	-2.385999
H	1.098642	0.0	0.0
H	-1.679503	-0.109769	-1.321351
H	-0.349236	0.91347	0.496678
C	-0.324743	1.260842	-2.115891
N	-0.146555	2.289321	-2.653527
N	-0.552353	-1.167699	0.71344
H	0.060238	-1.946326	0.482319
H	-0.388003	-1.002369	1.700777
H	2.959257	0.0	0.0
