12

C	-0.437787	0.006018	-1.447908
C	0.0	0.0	0.0
Cl	-2.206606	0.397205	-1.628508
H	1.094302	0.0	0.0
H	0.094017	0.794355	-1.986155
H	-0.315897	0.954043	0.442129
C	-0.20042	-1.269215	-2.117795
N	0.00145	-2.283632	-2.672728
N	-0.494987	-1.172692	0.704849
H	-1.255516	-0.939432	1.327876
H	0.270688	-1.5473	1.253467
H	2.895519	0.0	0.0
