11

C	0.0	0.0	0.0
C	-0.53377	0.385748	-1.380567
Br	1.947493	0.0	0.0
H	-1.633729	0.362196	-1.285514
H	-0.341288	0.709036	0.754568
H	-0.216939	-0.353818	-2.120963
C	-0.402452	-1.356974	0.365207
N	-0.58804	-2.481116	0.649762
C	-0.087635	1.710892	-1.790213
N	0.264491	2.778526	-2.129214
Br	-3.579565	0.0	0.0
