15

C	0.0	0.0	0.0
C	-0.637686	0.437007	-1.298428
F	1.395308	0.0	0.0
H	-0.246144	1.385452	-1.667234
H	-1.740773	0.475259	-1.038396
C	-0.377706	1.039557	0.996386
N	-0.520707	1.906203	1.778329
C	-0.494576	-1.349548	0.497788
H	-0.141258	-1.495862	1.521021
H	-1.592432	-1.280773	0.474917
H	-0.105891	-2.145963	-0.132488
N	-0.509608	-0.5282	-2.420726
O	-1.257003	-0.335413	-3.376838
O	0.317968	-1.435579	-2.367832
F	-2.891213	0.0	0.0
