15

C	0.0	0.0	0.0
C	-0.243589	-0.058662	-1.518883
F	1.392194	0.0	0.0
H	0.292036	-0.93995	-1.87007
H	0.200311	0.837924	-1.953773
C	-0.489499	1.245439	0.6043
N	-0.651031	2.282	1.136397
C	-0.420815	-1.225456	0.784448
H	-0.003253	-1.147087	1.792714
H	-1.514618	-1.213923	0.782728
H	-0.007334	-2.112458	0.294842
N	-1.60865	-0.175164	-2.100815
O	-2.019149	-1.31142	-2.310939
O	-2.122033	0.854731	-2.518045
F	-2.537485	0.0	0.0
