15

C	0.0	0.0	0.0
C	-0.555398	-0.066839	-1.414977
F	1.385933	0.0	0.0
H	-0.152951	0.747579	-2.018101
H	-1.659096	-0.062594	-1.242244
C	-0.426626	1.289945	0.579437
N	-0.583009	2.338234	1.084759
C	-0.47178	-1.156549	0.861025
H	-0.042766	-2.084625	0.475747
H	-1.565787	-1.140944	0.792107
H	-0.124767	-1.00449	1.88594
N	-0.111744	-1.324441	-2.067973
O	-0.860948	-2.300635	-2.011233
O	0.990489	-1.324763	-2.624259
F	-2.799086	0.0	0.0
