15

C	0.0	0.0	0.0
C	-0.623549	-0.043458	-1.374458
F	1.386013	0.0	0.0
H	-1.751781	-0.071111	-1.105249
H	-0.362506	0.83544	-1.961223
C	-0.377139	1.32176	0.564131
N	-0.5231	2.38896	1.032084
C	-0.460502	-1.09568	0.941153
H	-0.070095	-0.89019	1.940535
H	-1.556885	-1.076557	0.941033
H	-0.091608	-2.055573	0.586713
N	-0.23479	-1.202206	-2.178073
O	-0.411396	-2.334557	-1.715897
O	0.199497	-0.985864	-3.318282
H	-3.013514	0.0	0.0
