15

C	0.0	0.0	0.0
C	-0.63805	-0.000721	-1.355578
F	1.389053	0.0	0.0
H	-1.76836	0.11674	-1.070401
H	-0.482636	-0.943916	-1.876768
C	-0.377124	1.185971	0.807934
N	-0.532397	2.075762	1.558606
C	-0.467062	-1.250047	0.727069
H	-1.56414	-1.215393	0.749273
H	-0.114361	-2.129304	0.181716
H	-0.058108	-1.260703	1.739331
N	-0.168102	1.057429	-2.247342
O	-0.073291	0.785764	-3.452489
O	0.063471	2.171244	-1.768744
H	-2.985142	0.0	0.0
