15

C	0.0	0.0	0.0
C	-0.674627	-0.283609	-1.320849
F	1.385933	0.0	0.0
H	-0.462885	0.480018	-2.067743
H	-1.833137	-0.238993	-0.953031
C	-0.367355	1.403289	0.318607
N	-0.526258	2.536937	0.580509
C	-0.445049	-0.899207	1.14513
H	-0.065031	-1.903303	0.976412
H	-1.540523	-0.900589	1.162239
H	-0.046055	-0.495657	2.079627
N	-0.34282	-1.555016	-1.924451
O	-0.386272	-2.577312	-1.2298
O	-0.082888	-1.570241	-3.137011
H	-2.945068	0.0	0.0
