15

C	0.0	0.0	0.0
C	-0.579544	-0.057837	-1.398947
F	1.385603	0.0	0.0
H	-1.691608	-0.087424	-1.209949
H	-0.258238	0.796629	-1.988401
C	-0.38675	1.319869	0.559321
N	-0.528591	2.383362	1.036656
C	-0.493987	-1.105706	0.902695
H	-0.108845	-0.945295	1.911872
H	-1.5925	-1.047173	0.884155
H	-0.152658	-2.068639	0.524469
N	-0.122725	-1.255161	-2.127251
O	0.71347	-1.096896	-3.024253
O	-0.606945	-2.346717	-1.814845
H	-3.068054	0.0	0.0
