15

C	0.0	0.0	0.0
C	-0.565561	-0.034858	-1.405074
F	1.385884	0.0	0.0
H	-1.677232	-0.058439	-1.246853
H	-0.218602	0.823103	-1.981674
C	-0.382922	1.310227	0.58063
N	-0.514648	2.377524	1.053143
C	-0.498639	-1.131857	0.868528
H	-1.598287	-1.071648	0.850015
H	-0.112307	-1.006503	1.882025
H	-0.157908	-2.084857	0.459482
N	-0.098088	-1.235412	-2.130344
O	0.859143	-1.100129	-2.901966
O	-0.692627	-2.298482	-1.931417
H	-3.10737	0.0	0.0
