13
Coordinates from ORCA-job run
  C   -1.05764412356509     -0.12995931156822     -0.22072602935026
  C   0.23096116880225      0.18987364266880      0.08764769962371
  H   -1.74584554164761      0.70586276735137     -0.31655087675674
  N   -1.63121614783500     -1.34808188325309     -0.36463953151725
  H   -2.52871630337719     -1.39647936007709     -0.81189580970034
  H   -1.01527974185192     -2.14280644279211     -0.42824003148768
  N   1.23026834593818     -0.83294092607119      0.21720647718276
  O   2.38327316104191     -0.47376264656809      0.47221244359790
  O   0.90196066846405     -2.02274304727778      0.06786253658118
  C   0.71397037127262      1.59121185372247      0.28472971592024
  H   1.49602703433345      1.84566113588027     -0.43371309230159
  H   1.13859362009471      1.72456298527931      1.28205842987807
  H   -0.11535251167035      2.29060123270536      0.16304806833000
