13
Coordinates from ORCA-job run
  C   -1.05184457274848     -0.15294070699162      0.23372000927082
  C   0.23615964161267      0.19900346664118     -0.04028949162293
  H   -1.69072220398911      0.63881703953145      0.61628715518635
  N   -1.68057205324081     -1.33636704433866      0.03950412060832
  H   -1.10438034330623     -2.13457312381645     -0.17469217676142
  H   -2.55800901200276     -1.48564045290514      0.50394741628753
  N   1.17417067717573     -0.77177315148445     -0.52944646039097
  O   2.33137217565667     -0.39364448724741     -0.73281801894701
  O   0.79183636769002     -1.93860098275480     -0.72451988504223
  C   0.78159952375627      1.57625270098228      0.16359522951433
  H   1.16652488722550      1.98951040807027     -0.77117896612701
  H   1.60781270713238      1.57369796558916      0.87765594295981
  H   -0.00394779496184      2.23525836872418      0.53823512506441
