13
Coordinates from ORCA-job run
  C   -1.01955017203788     -0.16401228480013     -0.34285147468192
  C   0.23463508574621      0.19943884553727      0.04828235344346
  H   -1.70428163626270      0.65071273545491     -0.56379540172783
  N   -1.52795759599120     -1.39929723554043     -0.56371697859589
  H   -0.98664451525622     -2.18533131784619     -0.24098387966263
  H   -2.52510137265712     -1.49482965611235     -0.63026018711530
  N   1.21482379701498     -0.79381087854124      0.38568012928256
  O   0.91466776378857     -1.99678605726035      0.29316075102328
  O   2.32302538157683     -0.39726869761105      0.75737779755154
  C   0.68155749727034      1.61957651006487      0.18797638508124
  H   0.99181240925596      1.83812463687358      1.21191223445848
  H   1.53687348861012      1.82858125688868     -0.45820127647229
  H   -0.13286013105788      2.29390214289242     -0.08358045258468
