13
Coordinates from ORCA-job run
  C   -1.05382352057017     -0.13336793163366     -0.23628051586752
  C   0.22895444170575      0.19101732350231      0.09096402378040
  H   -1.73992061823719      0.70089957339608     -0.35776894040100
  N   -1.62718210533678     -1.35351081435562     -0.36762445317449
  H   -1.00882507589352     -2.14785231872325     -0.41167776998374
  H   -2.51310564467893     -1.40769066900956     -0.83706145151780
  N   1.22561697942096     -0.82996410545647      0.25292761524834
  O   0.89989785189120     -2.02190340330717      0.11585901984517
  O   2.37433183461719     -0.46673889800808      0.52143055504442
  C   0.70966648323308      1.59533941694643      0.27101320021457
  H   1.11710199134557      1.74646351550455      1.27297535675919
  H   -0.11690231796345      2.29281292403997      0.12253996487017
  H   1.50418970046630      1.83649538710447     -0.43829660481770
