13
Coordinates from ORCA-job run
  C   -0.99842983175136     -0.19994838537625     -0.38428416175260
  C   0.22600936724583      0.20733782156771      0.05472381355489
  H   -1.69722183568036      0.59049105301434     -0.64574967848764
  N   -1.45966029790751     -1.45316380577698     -0.60789596770831
  H   -2.44986050923435     -1.57971697143800     -0.71447042265836
  H   -0.90945262997695     -2.21754304465843     -0.25009333639209
  N   1.22035266235718     -0.75079909296227      0.44859740656919
  O   0.96089180835369     -1.96355442653794      0.36152898902232
  O   2.29878900395455     -0.31536084084410      0.86188867990422
  C   0.62367826463356      1.64213227135543      0.19264774627281
  H   -0.19747682706859      2.28748530496379     -0.12515130767575
  H   0.88072429264491      1.88441156223145      1.22596893761189
  H   1.50065653242939      1.86822855446127     -0.41771069826058
