13
Coordinates from ORCA-job run
  C   -1.07542154856500     -0.15479164483738      0.06141535225147
  C   0.24172302665902      0.19459879438393      0.02696658312973
  H   -1.78236478822824      0.66486866894557      0.16081461114769
  N   -1.64011431142386     -1.38538185437226      0.05419483115671
  H   -2.62208029240735     -1.45249392383083     -0.14364873773101
  H   -1.04457559013460     -2.16360680017537     -0.17992908158993
  N   1.26218681212098     -0.80403572981841     -0.12348688938577
  O   2.43368670566470     -0.41876255379923     -0.17299783798625
  O   0.93205540512079     -2.00035763743689     -0.19897257547223
  C   0.72829115137107      1.60600432181816      0.11158776442950
  H   1.39621316528956      1.74168626155855      0.96498278172366
  H   -0.11921030660439      2.28525780247347      0.22140569467212
  H   1.28961057113730      1.88601429509068     -0.78233249634570
