13
Coordinates from ORCA-job run
  C   -0.73209694489029     -0.81988195731139     -0.26206214339985
  C   0.37814706610373     -0.10768713959187      0.03035712131328
  H   -0.60971455413772     -1.86132140977832     -0.53854825901130
  N   -2.02673578645762     -0.38037648356000     -0.16591386997095
  H   -2.70981968378450     -0.91369656322334     -0.67541724872801
  H   -2.18787411591596      0.61279986046158     -0.18872551730161
  N   1.65152112729383     -0.80018839077826     -0.10407581207358
  O   2.66290519456282     -0.12374161900706      0.10593032610975
  O   1.67017329151016     -1.99135225855562     -0.41671484921383
  C   0.45771408351362      1.31798874001915      0.46405009377455
  H   1.03775334950477      1.40816172668935      1.38372334396963
  H   0.94714145997753      1.94027909822291     -0.28847573359395
  H   -0.53911448728037      1.72001639641288      0.65687254812587
