13
Coordinates from ORCA-job run
  C   -1.07041371501782     -0.13156606415305     -0.14452988683902
  C   0.24625180261513      0.19125043877626     -0.00329393939983
  H   -1.75574478247526      0.70424824876997     -0.25946966981808
  N   -1.65372446159109     -1.35066439016722     -0.23105020446283
  H   -1.08951214804663     -2.14883605365965      0.01323512064540
  H   -2.64794981589798     -1.40676800524235     -0.10312167451134
  N   1.23725215852333     -0.83193077278492      0.17864933215009
  O   2.40780533367862     -0.47081955368365      0.32941995273009
  O   0.88390247359752     -2.02386633568862      0.17942445703733
  C   0.76017922165488      1.59538161871841      0.00847748531445
  H   1.48897918502065      1.75457693079680     -0.78918214608488
  H   -0.06637359843713      2.29476326412161     -0.13090992383589
  H   1.26034834637578      1.82623067419639      0.95135109707450
