13
Coordinates from ORCA-job run
  C   -0.72972424226022     -0.86258991497136     -0.02224903641872
  C   0.34655861694758     -0.06971944924724      0.17492067014296
  H   -0.65012078416426     -1.90616389459338      0.26174525420617
  N   -1.95875236568333     -0.46442363575412     -0.47789721132591
  H   -2.01317598261317      0.39461094453322     -0.99913539317354
  H   -2.55750538915568     -1.19228602524014     -0.82705417061587
  N   1.53961223149872     -0.71134228471018      0.70736558308324
  O   2.53797278713861      0.00639136918026      0.82036251967178
  O   1.50934195003813     -1.90453269320443      1.01124075765046
  C   0.46867278944186      1.38973398303201     -0.11132685912703
  H   1.18636642861267      1.58251014789131     -0.91174938602776
  H   -0.49728775022190      1.81078043874805     -0.39794584090915
  H   0.81804171042098      1.92703101433600      0.77172311284339
