13
Coordinates from ORCA-job run
  C   -0.74548117142819     -0.85006681620247     -0.01226690073731
  C   0.38443237523000     -0.11039704310941      0.03287873856211
  H   -0.66222187017297     -1.93081719619086     -0.02484603938293
  N   -2.02068997968949     -0.35110332441906      0.02410451830858
  H   -2.16561216001901      0.60477551480052     -0.25209515927096
  H   -2.75818999174426     -0.97873254986530     -0.24222740749144
  N   1.64297808970999     -0.83533544819344      0.00917640026048
  O   1.63757121710844     -2.06683682185173     -0.02514149146878
  O   2.66975977298662     -0.14917825936097      0.02018104582474
  C   0.47898588543269      1.37834388274821      0.09646736090459
  H   0.81092076270725      1.80468517340642     -0.85368911331265
  H   -0.48326096229562      1.81036517010448      0.37732458572442
  H   1.20980803217453      1.67529771813362      0.84913346207915
