13
Coordinates from ORCA-job run
  C   -0.79548433407456     -0.72335287649833     -0.34736844423972
  C   0.36636088531290     -0.06982625779368     -0.12692911309042
  H   -0.75744747558361     -1.65099622426996     -0.90772931527243
  N   -2.04867983248742     -0.29104000644747     -0.00154207086839
  H   -2.76626201516125     -0.99456059538432      0.02124054765517
  H   -2.12530036176982      0.39380249601673      0.73180840610707
  N   1.57654428728200     -0.70567358196629     -0.62685597052689
  O   2.63835166883982     -0.12975257430283     -0.37071555801941
  O   1.49809069835742     -1.75895362810657     -1.26043445483315
  C   0.56287209871489      1.22644685013879      0.58588241954360
  H   1.13347299900746      1.09366444948481      1.50763259846887
  H   -0.39820035762417      1.68304087153737      0.83158636150252
  H   1.11668173918635      1.92920107759175     -0.03857540642683
