13
Coordinates from ORCA-job run
  C   -1.04841504228558     -0.17659181096360     -0.23204995194819
  C   0.24348196417471      0.19469013720503     -0.00587682039309
  H   -1.72528657277710      0.61733087781876     -0.53704492234077
  N   -1.60803770972442     -1.40893440724160     -0.19960876186069
  H   -2.60955157418242     -1.47261120281085     -0.17371218782263
  H   -1.06435836407658     -2.15152421532262      0.21023470621530
  N   1.21926162272759     -0.76782496749663      0.42193145674469
  O   2.36446120642448     -0.36096701266187      0.63741796165597
  O   0.87860276339881     -1.95570705879568      0.55877282789474
  C   0.74034027252991      1.59832536997966     -0.14313724242779
  H   -0.07396142451919      2.25118733319117     -0.46325470308578
  H   1.54619562527266      1.66125504366832     -0.87759107630966
  H   1.13826723303712      1.97137191342992      0.80291871367790
