13
Coordinates from ORCA-job run
  C   -0.73505472827591     -0.74725258038856     -0.42327801437568
  C   0.38191202132376     -0.08986273850288     -0.04151784195259
  H   -0.61772070099487     -1.64893375525075     -1.01415293268106
  N   -2.02099837529650     -0.43469786363985     -0.06805316195869
  H   -2.74520789777623     -0.83391912494129     -0.63947847442937
  H   -2.21064681873568      0.50732782160814      0.23083250934710
  N   1.64928900316178     -0.63073403844051     -0.51040308902808
  O   2.65896694698732      0.01503794002209     -0.21349739386956
  O   1.66470136564925     -1.67301699132072     -1.16649750361869
  C   0.47226434065838      1.14382075336542      0.79325463284353
  H   1.15579468931585      0.99215782260939      1.62996332528245
  H   -0.50506471735757      1.40644575946848      1.20360474472544
  H   0.84976487134043      1.99162699541103      0.21722319971519
