13
Coordinates from ORCA-job run
  C   -1.01806953625459     -0.19602846412590     -0.33065036736954
  C   0.22631931911698      0.20768439503155      0.05235897414567
  H   -1.74063438232839      0.59516493179937     -0.51322463817387
  N   -1.47810961959326     -1.44439001432584     -0.58157761476482
  H   -0.89888737569725     -2.21644622887288     -0.29266861142223
  H   -2.47151422547577     -1.57939982010270     -0.63397969688275
  N   1.25392802285357     -0.75318334167784      0.33849016714796
  O   2.35185413820959     -0.32217677627517      0.70228758256816
  O   1.00221389456591     -1.96436161743784      0.21361712653447
  C   0.61654917623623      1.64047738192674      0.22790734910883
  H   -0.23064841926790      2.28779478169977     -0.00662277060992
  H   1.44920082434312      1.90551744182397     -0.42723549882154
  H   0.93779818329175      1.84034733053675      1.25229799853959
