15
Coordinates from ORCA-job run
  C   0.80234647236705      0.35810138499870      0.06552869593062
  C   -0.61747502219493     -0.21220050377259      0.21832166619898
  Br  1.40380882558711      1.03864700127090      1.80091480826696
  H   -0.57743799602183     -1.01883986433987      0.96070877340741
  H   0.76760374052199      1.23600800960936     -0.58482941850096
  C   1.81220654261549     -0.65470816621265     -0.44387077947554
  H   1.85972267694540     -1.51868923632819      0.22289966882487
  H   2.80633848197841     -0.21002321690375     -0.49982837197054
  H   1.52873403615198     -0.99612648562170     -1.44253829158626
  C   -1.01116360907539     -0.81027458144668     -1.06277162649229
  N   -1.32387549368872     -1.26196257970419     -2.10090907072405
  C   -1.66693062803545      0.82094865649860      0.63983089576850
  H   -2.65832576155059      0.36547735572842      0.66436715834991
  H   -1.43797817950843      1.21113896813476      1.63074021999561
  H   -1.68857408609207      1.65150325808885     -0.06956432799322
