15
Coordinates from ORCA-job run
  C   0.80271293169127      0.35741880457345      0.07377306484119
  C   -0.61451527795969     -0.22218153482954      0.21716815437585
  Br  1.41818006520386      0.97068320499120      1.82979784436932
  H   -0.56649152274844     -1.05210403931143      0.93268153661209
  H   0.76055369611967      1.26039789609189     -0.54084173504478
  C   1.81035295682834     -0.63206820495644     -0.48361679648823
  H   1.86437211652482     -1.52235763375652      0.14688063142967
  H   2.80313259645991     -0.18345048592327     -0.52882752533625
  H   1.51995503173658     -0.93294457295313     -1.49315666693605
  C   -1.01706418379534     -0.77682035152014     -1.08070081136339
  N   -1.34379379813998     -1.19311319671771     -2.12922766980523
  C   -1.66358164394638      0.79375938653610      0.68005681974895
  H   -2.65123605118228      0.33055830176507      0.71007384454965
  H   -1.70261282108219      1.63976629098460     -0.00989698419326
  H   -1.42096409571015      1.16245613502586      1.67583629324047
