15
Coordinates from ORCA-job run
  C   0.83522417793422     -0.55169938504879      0.06096173352128
  C   -0.57348815499677     -0.16904832498996      0.54291268757445
  Br  0.74103856342646     -1.68459769560497     -1.53072757664009
  H   -0.41816323039118      0.41574669209983      1.46067813143721
  H   1.29593240776789     -1.18989794357176      0.81803551373461
  C   1.71763343710047      0.65228070973452     -0.21816800292246
  H   1.35442265970742      1.22766358630686     -1.07002230544387
  H   1.74574828998711      1.30256113296742      0.66231607215958
  H   2.73580999856946      0.33062025354755     -0.44024239508199
  C   -1.32457551339025     -1.36522595587708      0.93393005906750
  N   -1.93874744024475     -2.31363112148322      1.25339992032454
  C   -1.38771716082486      0.67721018426613     -0.43913708828632
  H   -1.54645020106276      0.13789423838974     -1.37306042788681
  H   -2.36155350866094      0.91284212634900     -0.00668649416268
  H   -0.87611432492152      1.61628150291472     -0.65418982739494
