19

C	0.0	0.0	0.0
C	-0.562272	0.295884	-1.415298
F	1.364809	0.0	0.0
H	-1.293267	-0.486424	-1.597751
N	-0.319634	1.116589	0.991539
O	-0.837114	0.831421	2.062024
O	0.099317	2.232535	0.6819
C	-0.470532	-1.323878	0.52823
H	-0.160988	-2.084014	-0.19401
H	-0.005197	-1.522836	1.495355
H	-1.56244	-1.234816	0.587924
N	0.579681	0.063309	-2.366421
O	1.255061	1.02719	-2.72323
O	0.783208	-1.100229	-2.723405
C	-1.246613	1.61537	-1.694527
H	-0.595988	2.473155	-1.554649
H	-2.103441	1.597402	-1.016604
H	-1.612722	1.595374	-2.726001
F	-2.74837	0.0	0.0
