19

C	0.0	0.0	0.0
C	-0.557638	0.278339	-1.42012
F	1.364739	0.0	0.0
H	-1.296801	-0.49795	-1.586935
N	-0.332997	1.102344	0.99798
O	-0.726509	0.781796	2.110015
O	-0.03751	2.246334	0.656894
C	-0.451655	-1.336662	0.5212
H	-0.143699	-2.08323	-0.21571
H	0.033733	-1.545118	1.474929
H	-1.541836	-1.26421	0.597793
N	0.583918	0.005601	-2.365751
O	0.759145	-1.16679	-2.709039
O	1.282272	0.94843	-2.735307
C	-1.213272	1.600212	-1.750618
H	-2.075707	1.638485	-1.081785
H	-0.548335	2.449806	-1.638514
H	-1.570789	1.546974	-2.784493
F	-2.703151	0.0	0.0
