19

C	0.0	0.0	0.0
C	-0.51794	0.18893	-1.459907
F	1.364668	0.0	0.0
H	-1.047469	-0.728611	-1.70494
N	-0.3087	1.247698	0.836535
O	0.158213	2.296454	0.395482
O	-0.90425	1.127263	1.899203
C	-0.553097	-1.221576	0.656868
H	-1.649532	-1.071368	0.629548
H	-0.168297	-1.309582	1.674121
H	-0.242492	-2.086398	0.064836
N	0.700622	0.173362	-2.346723
O	1.090204	-0.931016	-2.735659
O	1.242065	1.241194	-2.621003
C	-1.413766	1.362458	-1.79337
H	-1.708378	1.278023	-2.84476
H	-2.288296	1.199515	-1.14093
H	-0.911256	2.311954	-1.638242
F	-2.909622	0.0	0.0
