19

C	0.0	0.0	0.0
C	-0.320025	-0.093625	-1.510593
F	1.369072	0.0	0.0
H	0.345581	0.648182	-1.96123
N	-0.335264	1.380373	0.549339
O	0.00229	2.32333	-0.162186
O	-0.783396	1.476533	1.683107
C	-0.46374	-1.094299	0.91427
H	-0.077978	-0.896141	1.91567
H	-1.561607	-1.045123	0.869223
H	-0.05391	-2.042656	0.55987
N	-1.674219	0.321676	-2.053706
O	-1.883504	1.526188	-2.119683
O	-2.353586	-0.539455	-2.601531
C	0.00606	-1.486796	-2.018774
H	0.015469	-1.496871	-3.10934
H	-0.75122	-2.193046	-1.679482
H	0.989806	-1.791409	-1.655646
F	-2.596209	0.0	0.0
