13

C	-0.516018	-0.049245	-1.428728
C	0.0	0.0	0.0
Cl	0.213133	1.2633	-2.365076
H	1.091342	0.0	0.0
H	-0.308208	0.96468	0.41623
N	-0.129531	-1.376261	-2.122326
O	0.603214	-2.132383	-1.507003
O	-0.604499	-1.537841	-3.239279
C	-1.972665	0.045914	-1.518038
N	-3.143225	0.152093	-1.540393
C	-0.572019	-1.064451	0.812807
N	-1.075886	-1.892274	1.47533
Cl	3.25107	0.0	0.0
