13

C	-0.478911	0.010474	-1.44888
C	0.0	0.0	0.0
Cl	0.120181	-1.376512	-2.337051
H	1.092837	0.0	0.0
H	-0.342217	0.92028	0.481406
N	-2.034877	0.00398	-1.425549
O	-2.523191	1.038624	-0.985952
O	-2.631275	-0.999845	-1.775087
C	-0.09803	1.24675	-2.125691
N	0.178434	2.241872	-2.68672
C	-0.532494	-1.152601	0.712179
N	-0.974733	-2.071859	1.293973
Cl	3.221953	0.0	0.0
