14

C	-0.240845	0.108201	-1.501405
C	0.0	0.0	0.0
F	-1.579988	0.393141	-1.82585
H	1.09373	0.0	0.0
H	-0.407641	-0.923117	0.418065
C	0.673332	1.172155	-2.081531
H	0.6339	1.178186	-3.172432
H	0.355117	2.146877	-1.701952
H	1.677962	0.946302	-1.699015
C	0.049989	-1.204403	-2.113077
N	0.249593	-2.255148	-2.596887
C	-0.53067	1.152674	0.699334
N	-0.955597	2.085886	1.274003
F	2.589706	0.0	0.0
