14

C	-0.453551	0.003854	-1.455858
C	0.0	0.0	0.0
F	0.004758	-1.158597	-2.078037
H	1.093266	0.0	0.0
H	-0.306416	0.938703	0.473202
C	-1.96001	0.043971	-1.660621
H	-2.200369	0.009767	-2.72475
H	-2.377804	0.955864	-1.226161
H	-2.400033	-0.825772	-1.164824
C	0.167779	1.159575	-2.139249
N	0.584029	2.129121	-2.654734
C	-0.586871	-1.116314	0.713861
N	-1.081785	-2.012896	1.291783
F	2.537879	0.0	0.0
