14

C	-0.296492	0.081145	-1.488863
C	0.0	0.0	0.0
F	-1.617461	0.50922	-1.738992
H	1.093502	0.0	0.0
H	-0.317022	0.949001	0.445787
C	0.687331	1.055089	-2.11418
H	0.617652	1.047349	-3.203509
H	0.453225	2.057233	-1.744834
H	1.683463	0.775207	-1.747707
C	-0.18213	-1.243245	-2.12844
N	-0.103868	-2.290886	-2.65193
C	-0.638661	-1.101624	0.688111
N	-1.15951	-1.985197	1.262308
F	2.599779	0.0	0.0
