14

C	-0.2429	0.084616	-1.502331
C	0.0	0.0	0.0
F	-1.586731	0.341446	-1.826354
H	1.093654	0.0	0.0
H	-0.406965	-0.917294	0.430003
C	0.651738	1.155003	-2.09412
H	0.619146	1.144685	-3.184563
H	0.314836	2.126165	-1.726616
H	1.655322	0.954861	-1.70783
C	0.069645	-1.227869	-2.101675
N	0.295945	-2.277413	-2.57578
C	-0.534318	1.161162	0.68283
N	-0.960318	2.099937	1.247378
F	2.589808	0.0	0.0
