14

C	-0.2919	0.103206	-1.487554
C	0.0	0.0	0.0
F	-1.612276	0.527476	-1.738569
H	1.093857	0.0	0.0
H	-0.316397	0.942307	0.459909
C	0.68788	1.093642	-2.093337
H	0.612578	1.11045	-3.182742
H	0.45151	2.086457	-1.700222
H	1.686639	0.808477	-1.737848
C	-0.161988	-1.211292	-2.146862
N	-0.073908	-2.256691	-2.673811
C	-0.639443	-1.111851	0.669958
N	-1.166517	-2.004365	1.224519
F	2.60114	0.0	0.0
