14

C	-0.286398	0.096484	-1.489694
C	0.0	0.0	0.0
F	-1.609094	0.512925	-1.745626
H	1.093609	0.0	0.0
H	-0.320017	0.943663	0.45506
C	0.693431	1.085083	-2.097103
H	1.689536	0.801657	-1.733291
H	0.627733	1.093291	-3.186673
H	0.45168	2.080987	-1.71208
C	-0.14162	-1.219085	-2.144812
N	-0.007573	-2.254661	-2.681872
C	-0.638927	-1.110887	0.671617
N	-1.155717	-2.005722	1.23176
F	2.600475	0.0	0.0
