14

C	-0.242271	0.107381	-1.500905
C	0.0	0.0	0.0
F	-1.582498	0.391778	-1.818166
H	1.093706	0.0	0.0
H	-0.40841	-0.921873	0.417895
C	0.670348	1.169616	-2.080462
H	0.351184	2.142101	-1.700041
H	1.672036	0.946301	-1.696134
H	0.635816	1.174323	-3.170755
C	0.045777	-1.205134	-2.115082
N	0.24216	-2.256591	-2.600505
C	-0.530225	1.153884	0.698778
N	-0.949834	2.088459	1.275169
F	2.591565	0.0	0.0
