14

C	-0.434238	0.003886	-1.459282
C	0.0	0.0	0.0
F	-0.005749	-1.202069	-2.017495
H	1.093143	0.0	0.0
H	-0.359518	-0.93379	0.445848
C	-1.93486	0.085281	-1.689917
H	-2.330967	1.025703	-1.304377
H	-2.156604	0.008027	-2.756817
H	-2.411312	-0.745337	-1.163597
C	0.232659	1.094788	-2.202783
N	0.660173	1.981494	-2.842127
C	-0.553552	1.131492	0.712026
N	-1.008276	2.052824	1.285366
F	2.529745	0.0	0.0
