18
Coordinates from ORCA-job run
  C   0.49490628748119     -0.13487778454683     -0.45443374196070
  C   -0.97350373992230      0.25790093392217     -0.21000949506280
  F   0.47779976028652     -0.64402756382020     -1.77260493678718
  H   -1.21790926259585      1.10733404840193     -0.85748799578621
  C   1.42010562819506      1.06163481923111     -0.45683877000351
  H   1.50211770492178      1.50470676196112      0.53589783951727
  H   1.05945806113433      1.82524308044913     -1.14818107608780
  H   2.41193167019197      0.73892277227718     -0.77910303645267
  C   0.97314325275460     -1.24993417934054      0.45009404391218
  H   0.27485405328748     -2.08572513473950      0.44415555149029
  H   1.94803175737910     -1.59031977933470      0.09532481681189
  H   1.07468754545039     -0.90224599017713      1.47834675068685
  N   -1.07897888798639      0.85156501620475      1.18503678278440
  O   -0.95546479782554      2.07546475627430      1.24878975247372
  O   -1.25083284472762      0.09771573313232      2.13506357368073
  N   -1.82900147268995     -0.87884155322930     -0.32211840897765
  H   -2.79238596783399     -0.60080127138120     -0.45542288418526
  H   -1.53795874750079     -1.43471466528461     -1.11550876605356
