18
Coordinates from ORCA-job run
  C   0.45495811329443     -0.29724658208282     -0.17881942135857
  C   -0.87629189195712      0.44116596145006      0.07293372367230
  F   0.12869283143573     -1.51086482792265     -0.80468347057784
  H   -0.66753214131016      1.47058793267691      0.36636553006378
  C   1.29045159248207      0.49702789356129     -1.16367828930631
  H   0.72291725177111      0.70360046254084     -2.07243676236293
  H   2.17263795013100     -0.08362200754883     -1.43877477328575
  H   1.61796759589271      1.44183987697742     -0.72378580160870
  C   1.21458137737110     -0.63180907895775      1.08673908069485
  H   0.64958304063558     -1.33922510475004      1.69477452128754
  H   1.40497504017612      0.26357959762835      1.68144435617661
  H   2.16803260816963     -1.09360342382292      0.82378986601005
  N   -1.52384535150941     -0.17182530867358      1.29217696081520
  O   -2.12412872269329     -1.22745848547470      1.12875674046345
  O   -1.34929420149347      0.40623043867516      2.36431377412176
  N   -1.81536818846601      0.40368479789427     -1.00007433956584
  H   -1.71653012611993      1.19374270423132     -1.61841646188480
  H   -1.75280677781010     -0.46580484640233     -1.51062523335481
