18
Coordinates from ORCA-job run
  C   0.62062048193530      0.26360691440609      0.08793184999300
  C   -0.89022119603941      0.54799403905757     -0.01074442299243
  F   1.15031915242163      1.30830517241667      0.85787077838398
  H   -1.00928007090168      1.57283611126052     -0.36588862564748
  C   0.98554201348392     -1.03377417940146      0.77908653349054
  H   0.65676402508272     -1.02991972139179      1.81716688341274
  H   0.54211700612783     -1.89620577711948      0.27753754909440
  H   2.07102287976593     -1.14954759310725      0.75806825964520
  C   1.23816348017692      0.37048237244608     -1.29395627055387
  H   0.95210121790310      1.30985116663580     -1.77359123293437
  H   2.32524784435086      0.35599226675938     -1.19701183033073
  H   0.93914879992482     -0.46323303032813     -1.93118013824625
  N   -1.47026049831060      0.55784526095165      1.37821369042519
  O   -1.58987358442324      1.64254884441701      1.93811718953241
  O   -1.76019617658317     -0.53896585092468      1.85237530159279
  N   -1.68764128082329     -0.33832986552468     -0.80423100655182
  H   -1.55492149301705     -0.17061783240117     -1.79056697952128
  H   -1.51965260107460     -1.30886829815213     -0.58019752879201
