18
Coordinates from ORCA-job run
  C   0.64788945602741      0.27438726285398      0.09532875729782
  C   -0.85760588717186      0.45092313425836     -0.15159643042048
  F   1.01163525051286      1.28449003964399      0.99465510278263
  H   -1.02515567571843      1.41209245687506     -0.63990221557307
  C   1.01415815922204     -1.05073127357091      0.73172348308970
  H   0.47767629119251     -1.20156915435906      1.66822482979999
  H   0.80312900108476     -1.88169550919619      0.05639015612038
  H   2.08527842332207     -1.04725291580690      0.94185386146755
  C   1.39630546024894      0.52030799582801     -1.19843695918629
  H   1.19245253913278      1.52999898310073     -1.56171900807100
  H   1.09280954930341     -0.19909633767468     -1.95854601154248
  H   2.46983854336286      0.43049575797442     -1.02078334680070
  N   -1.55309714343990      0.61371545203642      1.19920089468672
  O   -1.83903841943686     -0.42217359839283      1.80049130711557
  O   -1.76367276708106      1.75568452575036      1.59217441610478
  N   -1.38872761971540     -0.61833098839779     -0.92597566021411
  H   -1.44694892429068     -1.45806694869031     -0.36253827396662
  H   -2.31692623655545     -0.39517888223267     -1.26154490269037
