18
Coordinates from ORCA-job run
  C   0.53500715533633     -0.24085348683562     -0.19387965213632
  C   -0.84862968569823      0.40362726323033     -0.01231807567863
  F   0.31008287480719     -1.49286131343760     -0.79049989020258
  H   -0.73223300585164      1.44195519082079      0.30344813977669
  C   1.34992411737717      0.58526658709759     -1.16857825015879
  H   2.27806647104483      0.05713886382647     -1.39531799578737
  H   0.78953340144880      0.74035498445587     -2.08950370510762
  H   1.59940423128563      1.55608956689118     -0.73381909023885
  C   1.26449812616871     -0.49201245393544      1.10841306568514
  H   2.25973336162937     -0.88144755548918      0.88734268265538
  H   0.73563889477164     -1.23037130307586      1.71181976085400
  H   1.36299547024109      0.42605438299218      1.69014306798526
  N   -1.52826219940855     -0.25620458785041      1.18997722942836
  O   -1.37676177822095      0.28999985495522      2.28125306242710
  O   -2.14761083050187     -1.29619778178472      0.98336997351107
  N   -1.60686916520174      0.30537977784048     -1.20491776249621
  H   -1.73291399354384     -0.66704961725007     -1.45379653181487
  H   -2.50960344568395      0.75113162754878     -1.11313602870174
