18
Coordinates from ORCA-job run
  C   0.61072293010177      0.28225495150341      0.09134430866621
  C   -0.90581606387679      0.51702738455277     -0.03752070849515
  F   1.09409219086542      1.35814935136020      0.84908302590833
  H   -1.05084148537559      1.52583819008314     -0.42709883109175
  C   1.00464016512527     -0.98871189545273      0.81491534670553
  H   2.09384397525809     -1.06362885119682      0.82191270691124
  H   0.65017741401890     -0.97877403503127      1.84453738563945
  H   0.60634295646234     -1.87604818830270      0.31887043340531
  C   1.24809382490494      0.38145257659761     -1.28211433633163
  H   0.97564987241544     -0.46754295227129     -1.91111272280372
  H   0.94959575863145      1.30750780099695     -1.77958952490673
  H   2.33366551267170      0.39102642401080     -1.16929497224580
  N   -1.50553113913553      0.55333509177836      1.34283854200760
  O   -1.68464596555774      1.65209967179647      1.85757750840437
  O   -1.76133053506782     -0.53647680623399      1.85130625181419
  N   -1.66367999506918     -0.41827080957910     -0.81309608813739
  H   -1.45526873072528     -1.37648378854231     -0.57103105605822
  H   -1.53871068564737     -0.26375411606952     -1.80252726939182
