18
Coordinates from ORCA-job run
  C   0.49422281918804     -0.27630237407552     -0.24873946825459
  C   -0.80577995281723      0.47714033689479      0.07520147243409
  F   0.11041869454716     -1.46626162477308     -0.88887695627093
  H   -0.56886762222831      1.48134991331089      0.43130663897433
  C   1.30788438725275      0.52968066560006     -1.24118176690997
  H   1.67977941801987      1.44677549936891     -0.77822370543892
  H   2.16235914090739     -0.06561612800724     -1.56869254682307
  H   0.69708764848965      0.78831922377735     -2.10506098724968
  C   1.29148364861421     -0.66592714004465      0.97772844438323
  H   2.22826900781038     -1.12700624368847      0.66014949395254
  H   0.74275893042793     -1.38960430409895      1.58124259530285
  H   1.51567458942450      0.20444879556360      1.59671265540170
  N   -1.45154933204908     -0.18647032426789      1.29362917296533
  O   -1.17283796614608      0.28355502132654      2.39529239806739
  O   -2.17593929265601     -1.15617696708418      1.08550610944012
  N   -1.65780822203909      0.51490411054303     -1.05603574427085
  H   -1.89512480209846     -0.42682310376505     -1.33953566045999
  H   -2.50403109464759      1.03601464341983     -0.87042214524350
