18
Coordinates from ORCA-job run
  C   0.46868259988517     -0.28100716923353     -0.17049077191594
  C   -0.89828088418149      0.39559009493462      0.06185985223559
  F   0.20369235239021     -1.54212487587921     -0.72643838147992
  H   -0.74292328816606      1.44898240973108      0.29803058174331
  C   1.24844373256623      0.50403815862393     -1.20701354681281
  H   0.65912796878421      0.63835739042752     -2.11547761445176
  H   2.15391909390202     -0.04657255679039     -1.46797460935105
  H   1.53567949110676      1.48376722649676     -0.81835859275639
  C   1.25939170570618     -0.50335825185190      1.10110872873377
  H   1.40004606146953      0.43156637858239      1.64678271567156
  H   0.74365805377929     -1.21104912255756      1.75120825549917
  H   2.23699031863381     -0.91975815414579      0.85128261846418
  N   -1.49677018546994     -0.18634623048115      1.32030111635263
  O   -2.03640871246878     -1.28199644987854      1.21979101753879
  O   -1.34617080324120      0.45685107889064      2.35828054338384
  N   -1.84812893707199      0.25004684338825     -0.99285352840672
  H   -1.79418951489738      1.00640779019501     -1.65738853022511
  H   -1.74675905272658     -0.64339456045213     -1.45364985422313
