18
Coordinates from ORCA-job run
  C   0.63721403159533      0.20503587286095      0.11062252146099
  C   -0.85096994545166      0.59962278483536      0.07864034214452
  F   1.24240495778082      1.09538729036520      1.00891612568507
  H   -0.90479420344542      1.66718848275548     -0.14009626985684
  C   0.92010090969917     -1.19672061834059      0.61009140326808
  H   0.41967972164317     -1.95222768527930      0.00126438756518
  H   0.59787195778616     -1.31461022798632      1.64349302434376
  H   1.99573571086991     -1.37677232844759      0.55812034333480
  C   1.24966762251135      0.46240038954366     -1.25342916831568
  H   2.33342200982228      0.35507608956751     -1.18100542804064
  H   1.02984674791716      1.47852565340963     -1.59006364006532
  H   0.88317049676074     -0.24828235286729     -1.99595384885343
  N   -1.41429802220692      0.47098679809245      1.46975791930061
  O   -1.76295556140009     -0.65735628238491      1.81133010457401
  O   -1.46551820403965      1.48413211819606      2.15904344985852
  N   -1.71573553368295     -0.12283959538232     -0.80509505924719
  H   -1.59609089071650      0.17434406894638     -1.76213090170131
  H   -1.59975180544293     -1.12289045788438     -0.72350530545512
