18
Coordinates from ORCA-job run
  C   0.48488202060457     -0.12143502198814     -0.46313554827784
  C   -0.97829641383963      0.34519561045043     -0.28489253410309
  F   0.49587890973298     -0.56975039869237     -1.80078261737971
  H   -1.15266604087131      1.14508264168204     -1.00628954747611
  C   1.46848023948969      1.02473212446684     -0.36631092228533
  H   2.44700005600980      0.68259860292891     -0.70894656960068
  H   1.56467545888643      1.38189533269250      0.66002520079137
  H   1.15272734909830      1.86040916507881     -0.99358446997445
  C   0.87035376610557     -1.30017537921261      0.40169672249702
  H   0.20082615411798     -2.14340918517248      0.22814192704677
  H   1.88153034561382     -1.61680890588975      0.13938005027207
  H   0.84487907390400     -1.04237917328242      1.46085680389230
  N   -1.11419064080119      0.98324764493716      1.06365751699623
  O   -0.95848914808864      2.20002278970264      1.13361095490656
  O   -1.33618582393776      0.23121165190689      2.01107330625821
  N   -2.01048569167064     -0.64228602867164     -0.41500712290975
  H   -1.90221927712613     -1.36889599790214      0.28078266541677
  H   -1.95870033722784     -1.05125547303467     -1.33927581607029
