17
Coordinates from ORCA-job run
  C   -0.76041703497932      0.25101651767755     -0.07398417213069
  C   0.72293319681521      0.61858638334839     -0.04040026088886
  Cl  -1.56950409668989      1.48391885274664     -1.06823195215431
  H   0.86793319516567      1.66919746310634      0.19461559908577
  C   -1.12325412031459     -1.12531775525329     -0.56874916396073
  H   -0.81322886052778     -1.23667682333301     -1.60666271403598
  H   -0.64261030126810     -1.88837771928162      0.03993372977987
  H   -2.20335326002733     -1.24328940830479     -0.50846574839845
  N   -1.28024576195954      0.47510257765082      1.35627653258245
  O   -2.23375471893071     -0.19823094879551      1.71212741726463
  O   -0.71877556101266      1.35311526844955      2.00086703138210
  N   1.37126594437328      0.35337131084648     -1.36814835038594
  O   1.53308533769376      1.32648376568601     -2.09476613551592
  O   1.67484102072188     -0.81212190111103     -1.60299337662962
  N   1.52170112436974     -0.16312568880668      0.96919334175943
  O   2.69178304261398      0.18515682563743      1.05838639513281
  O   0.96160085395641     -1.04980872026326      1.60200182711345
