17
Coordinates from ORCA-job run
  C   -0.70312370661675      0.35985103170619      0.08670835920112
  C   0.78843152998828      0.41117099732621     -0.24140380006700
  Cl  -1.17094799776995      2.01604714658703      0.48006808279468
  H   0.94216282603699      1.08692010422046     -1.08177682908698
  C   -1.56846348778627     -0.16201080717791     -1.04554939301706
  H   -1.40934469660290      0.43317834022461     -1.94480219132925
  H   -2.61331619591144     -0.07193754278547     -0.74273245026141
  H   -1.33405787347933     -1.20321423307948     -1.25707971259387
  N   -0.95910402834154     -0.56383059601368      1.28390080618887
  O   -0.45490943999719     -1.67226921599878      1.14300234379774
  O   -1.66937861218945     -0.18171353780307      2.19384426221102
  N   1.40369646509192     -0.90816703051360     -0.66061172887555
  O   1.02962058252334     -1.31002478696534     -1.75456783697920
  O   2.22484656045885     -1.42102482070288      0.08250570559118
  N   1.61987540604150      0.94085486926082      0.88725941326576
  O   1.26852144991553      0.66335137730059      2.02676090296781
  O   2.60649121863842      1.58381870441429      0.54547406619214
