17
Coordinates from ORCA-job run
  C   -0.76321798963673      0.24222196396477     -0.07303954083959
  C   0.71586876900204      0.62684557843080     -0.04074142646460
  Cl  -1.58689658023672      1.46625319854703     -1.06606070753741
  H   0.84868019250148      1.67901168128926      0.19438913404308
  C   -1.11145102514176     -1.13789474755380     -0.56786184172011
  H   -0.62282817197301     -1.89578097128466      0.04086879239474
  H   -2.19027879768957     -1.26701694799412     -0.50774004564398
  H   -0.80011709186106     -1.24624584257920     -1.60569398916822
  N   -1.28402096045689      0.45969237323056      1.35812003262716
  O   -0.73222647415352      1.34399193343429      2.00243938970039
  O   -2.22986209706660     -0.22432461066932      1.71407943715946
  N   1.36582425800256      0.37013624719063     -1.36962156436716
  O   1.68059265209167     -0.79203902129248     -1.60631909038060
  O   1.51727400096197      1.34580621031471     -2.09499399568048
  N   1.52503431570321     -0.14616153897293      0.96703509157413
  O   0.97638133650183     -1.04004148367553      1.59972964342562
  O   2.69124366345111      0.21554597762001      1.05441068087755
