15

C	-0.557237	0.011818	-1.405849
C	0.0	0.0	0.0
F	0.143532	-0.795858	-2.247996
H	1.085835	0.0	0.0
H	-0.376537	0.851247	0.562694
N	-1.912696	-0.335159	-1.471256
H	-2.312927	-0.094727	-2.367519
H	-2.454199	0.016059	-0.695663
N	-0.318969	1.425223	-2.02343
O	0.421285	2.213015	-1.450632
O	-0.914591	1.628216	-3.079924
N	-0.515817	-1.215153	0.679984
O	-1.499722	-1.063203	1.410702
O	0.042129	-2.28124	0.461021
Br	3.517745	0.0	0.0
