15

C	-0.445942	0.084608	-1.443654
C	0.0	0.0	0.0
F	-0.677479	1.439333	-1.708178
H	1.090944	0.0	0.0
H	-0.410771	0.80238	0.603343
N	0.417961	-0.484271	-2.352727
H	1.302445	-0.783382	-1.964632
H	-0.011303	-1.111762	-3.010604
N	-1.876059	-0.478208	-1.60497
O	-2.134568	-1.139162	-2.606292
O	-2.676525	-0.153757	-0.735427
N	-0.404865	-1.278221	0.632264
O	-0.570116	-1.265269	1.848569
O	-0.505594	-2.273014	-0.086513
Br	3.414643	0.0	0.0
