15

C	-0.55305	0.022537	-1.408478
C	0.0	0.0	0.0
F	-0.146347	-1.12388	-2.056663
H	1.08491	0.0	0.0
H	-0.389179	0.842651	0.567688
N	-1.939672	0.245366	-1.50833
H	-2.244963	0.070561	-2.457708
H	-2.429034	-0.344134	-0.847116
N	0.083214	1.175143	-2.182555
O	0.50884	2.120034	-1.536047
O	0.018375	1.087571	-3.403394
N	-0.488399	-1.238256	0.678177
O	0.333208	-2.053256	1.072043
O	-1.713892	-1.352384	0.821218
Br	3.516096	0.0	0.0
