15

C	-0.36262	-0.013638	-1.472987
C	0.0	0.0	0.0
F	-0.23032	1.233365	-1.979491
H	1.089021	0.0	0.0
H	-0.374443	-0.904407	0.479833
N	0.429726	-0.916606	-2.238195
H	1.410068	-0.724469	-2.026569
H	0.227076	-1.864783	-1.945004
N	-1.815507	-0.434945	-1.693269
O	-2.101134	-1.542383	-1.242786
O	-2.55859	0.311684	-2.306467
N	-0.595746	1.153323	0.714118
O	-1.793079	1.357854	0.497884
O	0.106851	1.79603	1.484168
Br	3.464363	0.0	0.0
