15

C	-0.565634	0.014261	-1.399323
C	0.0	0.0	0.0
F	-1.953906	0.250387	-1.308247
H	1.08869	0.0	0.0
H	-0.388547	-0.844443	0.558477
N	0.088423	0.848246	-2.284403
H	0.389944	1.707989	-1.846788
H	-0.417919	0.974968	-3.148395
N	-0.552349	-1.396581	-2.005425
O	-0.247359	-2.346616	-1.29492
O	-0.893127	-1.454147	-3.182679
N	-0.441435	1.222214	0.72104
O	-0.946327	1.074567	1.830698
O	-0.246733	2.311679	0.18058
Br	3.45114	0.0	0.0
