16

C	-0.456167	-0.050024	-1.455681
C	0.0	0.0	0.0
Br	0.409794	-1.506139	-2.40255
H	1.094892	0.0	0.0
C	-1.899715	-0.198061	-1.624125
N	-3.065841	-0.342447	-1.682848
N	-0.03403	1.279384	-2.103163
O	-0.916677	2.133327	-2.165939
O	1.136157	1.411297	-2.413384
C	-0.506153	-1.170064	0.684578
N	-0.917302	-2.107802	1.264914
C	-0.422697	1.289667	0.703227
H	-1.494626	1.50583	0.641081
H	0.146563	2.123662	0.289376
H	-0.135082	1.198624	1.752226
F	2.496131	0.0	0.0
