16

C	-0.454466	-0.062385	-1.455086
C	0.0	0.0	0.0
Br	0.410412	-1.524565	-2.392752
H	1.094837	0.0	0.0
C	-1.896759	-0.21405	-1.621413
N	-3.062391	-0.35699	-1.691651
N	-0.04304	1.26456	-2.115785
O	1.127338	1.406046	-2.420467
O	-0.936829	2.104921	-2.207011
C	-0.50222	-1.168334	0.693956
N	-0.91096	-2.097115	1.290232
C	-0.429768	1.292574	0.695852
H	-0.13305	1.215625	1.743446
H	-1.50465	1.493066	0.64092
H	0.123715	2.130858	0.269522
F	2.491516	0.0	0.0
