16

C	-0.384548	-0.023162	-1.469932
C	0.0	0.0	0.0
Br	0.498489	1.400162	-2.454601
H	1.095995	0.0	0.0
C	-0.030342	-1.283445	-2.112384
N	0.259916	-2.297044	-2.632091
N	-1.907946	0.164543	-1.614399
O	-2.570252	-0.869967	-1.659607
O	-2.350272	1.304038	-1.553781
C	-0.502151	-1.192674	0.65288
N	-0.896804	-2.138111	1.232802
C	-0.409718	1.259343	0.758748
H	-0.023699	2.138698	0.242419
H	-1.489978	1.365536	0.895386
H	0.074071	1.212779	1.736448
F	2.478163	0.0	0.0
