20

C	-0.078226	0.049189	-1.524565
C	0.0	0.0	0.0
F	-1.374616	0.390282	-1.997563
H	1.099696	0.0	0.0
N	0.840453	1.090006	-1.935332
H	1.058695	0.970934	-2.919631
H	1.703479	0.91262	-1.392386
C	0.271208	-1.290551	-2.153726
H	0.301303	-1.182766	-3.244674
H	1.265145	-1.556828	-1.782552
H	-0.452913	-2.071882	-1.903529
C	-0.597247	-1.241999	0.638198
H	-1.651323	-1.378648	0.35905
H	-0.552944	-1.151316	1.729034
H	-0.045559	-2.146124	0.370293
C	-0.555442	1.273414	0.619349
H	-0.167739	2.149669	0.098527
H	-0.259376	1.336887	1.672427
H	-1.652046	1.298748	0.568191
F	2.767168	0.0	0.0
