20

C	-0.284237	0.082913	-1.500727
C	0.0	0.0	0.0
F	-0.080119	-1.233382	-2.036571
H	1.096713	0.0	0.0
N	-1.625512	0.486226	-1.821497
H	-2.270716	-0.156717	-1.375587
H	-1.75549	0.403969	-2.825012
C	0.758619	0.946544	-2.187206
H	0.549835	2.004166	-2.007981
H	0.746308	0.759866	-3.266426
H	1.729065	0.684588	-1.74427
C	-0.562677	-1.252869	0.651775
H	-0.267681	-1.275533	1.706797
H	-0.163696	-2.147794	0.172302
H	-1.66341	-1.298053	0.618189
C	-0.462184	1.260977	0.72125
H	-1.553347	1.370323	0.728915
H	-0.105335	1.232755	1.756304
H	-0.036585	2.154972	0.259481
F	2.774473	0.0	0.0
