20

C	-0.288144	0.045858	-1.502361
C	0.0	0.0	0.0
F	-0.155196	-1.259556	-2.018847
H	1.097643	0.0	0.0
N	-1.661517	0.415543	-1.818203
H	-1.721688	0.578093	-2.818303
H	-1.867647	1.29641	-1.362621
C	0.795166	0.857648	-2.204704
H	0.758453	0.663121	-3.282373
H	0.637066	1.927888	-2.037955
H	1.762344	0.575223	-1.763874
C	-0.584565	-1.232498	0.668327
H	-1.671989	-1.289853	0.53806
H	-0.362465	-1.211304	1.740413
H	-0.13848	-2.136475	0.253612
C	-0.448434	1.277461	0.703804
H	-1.541103	1.355476	0.796952
H	-0.02881	1.291105	1.713951
H	-0.07126	2.171828	0.198245
F	2.781216	0.0	0.0
