20

C	-0.04861	0.037387	-1.532188
C	0.0	0.0	0.0
F	-1.339946	0.362705	-2.014385
H	1.098703	0.0	0.0
N	0.876777	1.036904	-2.054077
H	1.750027	0.846454	-1.532951
H	0.555057	1.944924	-1.734608
C	0.370092	-1.291334	-2.127669
H	0.453394	-1.176048	-3.209711
H	-0.344538	-2.083365	-1.895356
H	1.350321	-1.525194	-1.703414
C	-0.607699	-1.240329	0.635544
H	-1.658935	-1.374815	0.346365
H	-0.056191	-2.14342	0.367388
H	-0.572142	-1.1572	1.72728
C	-0.559673	1.264745	0.633033
H	-0.366256	1.25912	1.710615
H	-0.086197	2.164466	0.233715
H	-1.642609	1.350224	0.479595
F	2.765127	0.0	0.0
