20

C	-0.309163	0.076339	-1.501872
C	0.0	0.0	0.0
F	-0.165309	-1.226393	-2.016009
H	1.097176	0.0	0.0
N	-1.659471	0.466982	-1.895459
H	-2.317981	-0.049221	-1.31571
H	-1.781114	1.448019	-1.672701
C	0.736169	0.930668	-2.194524
H	0.698859	0.740888	-3.269961
H	0.550662	1.994506	-2.020402
H	1.706779	0.669067	-1.752798
C	-0.57085	-1.239183	0.667089
H	-0.302423	-1.241826	1.72874
H	-0.159503	-2.142053	0.214964
H	-1.669639	-1.289467	0.605598
C	-0.447367	1.268274	0.718392
H	-0.060854	1.257946	1.741366
H	-1.540928	1.368097	0.772031
H	-0.039945	2.163479	0.239604
F	2.765178	0.0	0.0
