20

C	-0.159179	-0.04794	-1.535791
C	0.0	0.0	0.0
F	-0.136146	1.297307	-1.988433
H	1.099833	0.0	0.0
N	0.984409	-0.685084	-2.144007
H	1.804718	-0.4918	-1.536077
H	0.840229	-1.687942	-2.151244
C	-1.456146	-0.616142	-2.080809
H	-1.580244	-1.666523	-1.808722
H	-1.442524	-0.525776	-3.167413
H	-2.309137	-0.055156	-1.692537
C	-0.451971	-1.30289	0.644698
H	0.002191	-2.163748	0.14513
H	-1.543192	-1.431102	0.637932
H	-0.116772	-1.330737	1.686558
C	-0.621741	1.209049	0.670283
H	-0.425484	1.180096	1.747256
H	-0.193293	2.129285	0.27519
H	-1.711193	1.248936	0.531476
F	2.770706	0.0	0.0
