15

C	-0.335747	-0.088259	-1.503994
C	0.0	0.0	0.0
F	0.042177	1.188999	-2.020758
H	1.094264	0.0	0.0
N	0.454889	-1.115266	-2.063909
H	1.421444	-0.994137	-1.762242
H	0.422377	-1.065841	-3.075272
N	-1.724883	-0.28934	-1.744725
H	-2.220066	0.574465	-1.557774
H	-1.8777	-0.549377	-2.711527
C	-0.483826	-1.180603	0.711155
N	-0.866926	-2.111207	1.315444
C	-0.547699	1.215006	0.591408
N	-1.035345	2.177729	1.054132
Cl	3.219502	0.0	0.0
