15

C	-0.353456	0.106428	-1.495371
C	0.0	0.0	0.0
F	0.0536	-1.152444	-2.041221
H	1.094492	0.0	0.0
N	-1.750609	0.27051	-1.714893
H	-2.226044	-0.576545	-1.417408
H	-1.930325	0.399557	-2.704093
N	0.404276	1.16013	-2.044174
H	1.383074	1.025943	-1.795096
H	0.321748	1.166542	-3.051347
C	-0.53159	-1.22845	0.578005
N	-0.993983	-2.213901	1.017548
C	-0.483265	1.165506	0.734782
N	-0.857335	2.089968	1.352558
Cl	3.206574	0.0	0.0
