15

C	-0.335491	0.15167	-1.498872
C	0.0	0.0	0.0
F	0.048984	-1.100725	-2.069526
H	1.094191	0.0	0.0
N	-1.725811	0.355867	-1.732092
H	-1.878861	0.658898	-2.686062
H	-2.2168	-0.517869	-1.58485
N	0.450134	1.205442	-2.013704
H	0.419327	1.197861	-3.026431
H	1.416967	1.078334	-1.715578
C	-0.546161	-1.239865	0.53885
N	-1.028952	-2.224704	0.958
C	-0.484661	1.148922	0.760548
N	-0.867057	2.053348	1.403702
Cl	3.219001	0.0	0.0
