15

C	-0.349831	-0.09505	-1.498945
C	0.0	0.0	0.0
F	-1.702133	0.268261	-1.678691
H	1.092929	0.0	0.0
N	0.437326	0.886636	-2.165101
H	0.309095	0.827991	-3.168069
H	1.418505	0.744893	-1.928438
N	-0.152313	-1.433925	-1.947953
H	-0.836012	-2.05917	-1.536845
H	-0.229272	-1.471726	-2.956734
C	-0.517695	-1.138824	0.750532
N	-0.95769	-2.067891	1.318509
C	-0.491644	1.252074	0.570994
N	-0.895783	2.238873	1.061049
Cl	3.214383	0.0	0.0
