13

C	-0.456618	-0.004299	-1.431689
C	0.0	0.0	0.0
F	-0.113759	-1.151084	-2.070824
H	1.09379	0.0	0.0
H	-0.070903	0.848739	-1.993393
H	-0.34224	0.934867	0.450621
N	-1.962613	0.114935	-1.502312
O	-2.412443	1.202529	-1.137437
O	-2.625093	-0.839569	-1.883629
N	-0.556624	-1.166942	0.695878
H	-0.845213	-0.893224	1.625208
H	0.203626	-1.828003	0.813349
H	2.958464	0.0	0.0
