13

C	-0.567151	-0.011349	-1.395254
C	0.0	0.0	0.0
F	-0.504635	1.217518	-1.981365
H	1.100217	0.0	0.0
H	-1.602491	-0.365342	-1.410709
H	-0.349816	0.939585	0.439928
N	0.175034	-0.981407	-2.294259
O	0.676226	-0.571567	-3.328844
O	0.162485	-2.147476	-1.908155
N	-0.571308	-1.118813	0.774404
H	-0.083806	-1.951525	0.462311
H	-0.263726	-0.978486	1.731335
H	2.981273	0.0	0.0
