13

C	-0.357203	0.044357	-1.467983
C	0.0	0.0	0.0
F	-0.041624	-1.131569	-2.077665
H	1.093132	0.0	0.0
H	0.122047	0.874067	-1.990625
H	-0.402463	-0.930894	0.413354
N	-1.842109	0.241699	-1.647737
O	-2.561255	-0.747441	-1.746786
O	-2.240086	1.410718	-1.609236
N	-0.40257	1.167666	0.773016
H	0.377242	1.810236	0.782969
H	-1.209952	1.641864	0.388519
H	2.868395	0.0	0.0
