13

C	-0.452288	-0.021832	-1.435537
C	0.0	0.0	0.0
F	-1.854949	-0.006633	-1.552428
H	1.092746	0.0	0.0
H	-0.373021	0.935138	0.442075
C	0.037614	1.165792	-2.164488
N	0.409311	2.103336	-2.764763
C	0.010132	-1.24177	-2.124363
N	0.324676	-2.228533	-2.6757
N	-0.462068	-1.214201	0.660542
H	-1.267629	-1.050114	1.249124
H	0.30265	-1.551711	1.231411
F	2.596962	0.0	0.0
