13

C	-0.464962	-0.038152	-1.444648
C	0.0	0.0	0.0
F	0.111893	0.989308	-2.168792
H	1.098922	0.0	0.0
H	-0.366249	-0.909028	0.494587
C	-0.103626	-1.319606	-2.086197
N	0.154154	-2.345865	-2.594437
C	-1.933408	0.127655	-1.553223
N	-3.10113	0.228936	-1.628665
N	-0.484622	1.23894	0.604721
H	-1.121153	1.057296	1.367325
H	0.328237	1.717211	0.97305
F	2.60839	0.0	0.0
