13

C	-0.475799	0.032877	-1.426813
C	0.0	0.0	0.0
F	-1.881245	-0.009669	-1.518922
H	1.092679	0.0	0.0
H	-0.366405	-0.938309	0.437912
C	-0.052791	1.272378	-2.105469
N	0.243541	2.267252	-2.653144
C	0.025433	-1.132175	-2.181276
N	0.403242	-2.058597	-2.79469
N	-0.460103	1.205963	0.681784
H	0.326604	1.560435	1.210743
H	-1.22215	1.016514	1.315749
F	2.597128	0.0	0.0
