13

C	-0.468092	-0.002068	-1.443739
C	0.0	0.0	0.0
F	0.11399	1.037488	-2.145862
H	1.098027	0.0	0.0
H	-0.367892	-0.918856	0.473943
C	-0.118097	-1.271191	-2.115508
N	0.131284	-2.290091	-2.642349
C	-1.935929	0.174823	-1.543845
N	-3.10532	0.271491	-1.593312
N	-0.480292	1.226169	0.634784
H	-1.109316	1.026679	1.399959
H	0.336219	1.693922	1.007577
F	2.60723	0.0	0.0
