16

C	-0.379302	-0.037905	-1.509406
C	0.0	0.0	0.0
Cl	0.040958	1.5333	-2.267588
H	1.096302	0.0	0.0
C	0.403172	-1.141403	-2.213388
H	1.467713	-0.978171	-2.023055
H	0.108001	-2.115568	-1.816891
H	0.202118	-1.122501	-3.285567
C	-1.824025	-0.235988	-1.658341
N	-2.976943	-0.456754	-1.733648
N	-0.406366	-1.181113	0.736481
H	-1.329012	-1.511049	0.484861
H	0.284426	-1.909297	0.62585
C	-0.549339	1.195549	0.646276
N	-1.024168	2.126736	1.181817
Br	3.451549	0.0	0.0
