16

C	-0.53599	0.047797	-1.452319
C	0.0	0.0	0.0
Cl	0.212755	-1.299759	-2.362907
H	1.100227	0.0	0.0
C	-2.050128	-0.116734	-1.499818
H	-2.302711	-1.058487	-1.01259
H	-2.395701	-0.135295	-2.534238
H	-2.530515	0.714882	-0.977017
C	-0.154596	1.303054	-2.103258
N	0.056898	2.325802	-2.642516
N	-0.431604	-1.236327	0.652823
H	0.395394	-1.693982	1.017338
H	-1.061658	-1.04933	1.420736
C	-0.480477	1.185055	0.714648
N	-0.932252	2.092725	1.310139
Br	3.410798	0.0	0.0
