16

C	-0.444925	-0.105078	-1.475444
C	0.0	0.0	0.0
Cl	-0.095612	1.445199	-2.310595
H	1.095014	0.0	0.0
C	0.325816	-1.224271	-2.162827
H	0.047927	-1.283672	-3.216629
H	1.393272	-1.013222	-2.062021
H	0.096776	-2.164795	-1.661454
C	-1.891976	-0.329579	-1.540308
N	-3.048327	-0.539039	-1.565412
N	-0.409835	-1.218032	0.692735
H	0.315227	-1.470602	1.353196
H	-1.283118	-1.088924	1.18749
C	-0.512493	1.215152	0.643057
N	-0.954126	2.133223	1.229582
Br	3.44095	0.0	0.0
