16

C	-0.4003	0.022568	-1.481998
C	0.0	0.0	0.0
Cl	-2.205884	0.147358	-1.620703
H	1.096599	0.0	0.0
C	0.24922	1.190886	-2.20695
H	0.004702	1.165394	-3.269843
H	-0.105339	2.130864	-1.780054
H	1.331701	1.115305	-2.065341
C	-0.022779	-1.248321	-2.102667
N	0.300761	-2.240789	-2.640571
N	-0.461318	-1.202555	0.662908
H	-1.366406	-1.068146	1.094097
H	0.215018	-1.468263	1.367404
C	-0.439185	1.243289	0.651946
N	-0.798908	2.20504	1.224286
Br	3.404091	0.0	0.0
