16

C	-0.442164	-0.07514	-1.478989
C	0.0	0.0	0.0
Cl	-0.105945	1.497088	-2.278287
H	1.095008	0.0	0.0
C	0.339178	-1.170958	-2.190211
H	0.061987	-1.21041	-3.245167
H	1.404186	-0.952377	-2.083687
H	0.119527	-2.124328	-1.709142
C	-1.886939	-0.310847	-1.551105
N	-3.041614	-0.527957	-1.58322
N	-0.408953	-1.233347	0.664576
H	0.306311	-1.489163	1.334887
H	-1.293429	-1.122447	1.145157
C	-0.51531	1.200583	0.668226
N	-0.957074	2.102135	1.279616
Br	3.441828	0.0	0.0
