16

C	-0.452386	-0.050721	-1.472639
C	0.0	0.0	0.0
Cl	0.06867	1.465308	-2.287194
H	1.095322	0.0	0.0
C	0.189979	-1.239908	-2.172843
H	1.273594	-1.160318	-2.053193
H	-0.07312	-1.238901	-3.232049
H	-0.162088	-2.156809	-1.699868
C	-1.91613	-0.110219	-1.54662
N	-3.08895	-0.160606	-1.606876
N	-0.431646	-1.223659	0.670942
H	0.316677	-1.53327	1.279481
H	-1.265831	-1.069342	1.223375
C	-0.488123	1.210111	0.672388
N	-0.892024	2.134087	1.276426
Br	3.459908	0.0	0.0
