20

C	-0.468109	-0.023617	-1.461272
C	0.0	0.0	0.0
Br	0.129422	1.681001	-2.315155
H	1.102709	0.0	0.0
C	0.229666	-1.132896	-2.234393
H	-0.150198	-2.105052	-1.904381
H	0.032718	-1.040254	-3.305232
H	1.307339	-1.093338	-2.057289
C	-1.979939	-0.062111	-1.613131
H	-2.358308	-1.023305	-1.250056
H	-2.265476	0.04312	-2.66257
H	-2.436721	0.736647	-1.028635
C	-0.43982	-1.253613	0.754319
H	0.001412	-1.221773	1.755167
H	-1.527047	-1.299065	0.862558
H	-0.073661	-2.165903	0.281906
N	-0.560789	1.161475	0.709353
H	-0.11552	1.990479	0.327166
H	-0.231882	1.099648	1.668481
Br	3.699499	0.0	0.0
