20

C	-0.43635	-0.011626	-1.485816
C	0.0	0.0	0.0
Br	0.209062	1.681195	-2.313886
H	1.096724	0.0	0.0
C	0.246622	-1.142248	-2.242905
H	1.317245	-1.144264	-2.022966
H	0.097967	-1.033696	-3.320136
H	-0.183367	-2.101548	-1.937839
C	-1.943777	-0.023099	-1.695559
H	-2.371701	-0.944819	-1.288967
H	-2.180126	0.024708	-2.761016
H	-2.423416	0.830831	-1.211595
C	-0.444416	-1.271616	0.723337
H	-0.043123	-1.216837	1.73602
H	-0.05332	-2.175613	0.254062
H	-1.535825	-1.349019	0.795195
N	-0.442315	1.142295	0.790986
H	-1.441775	1.286852	0.684112
H	0.033321	1.975037	0.462868
Br	3.715035	0.0	0.0
