15
Coordinates from ORCA-job run
  C   0.80476465583216     -0.05944079427934     -0.68431392200981
  C   -0.71609558962730     -0.08270574689086     -0.53997819849467
  F   1.13708613223795     -1.19566981909967     -1.41075519536729
  H   -1.18709342592749     -0.48749187849688     -1.43433573173995
  H   1.05843706913431      0.80755021999420     -1.29841228679471
  C   1.57111430485021     -0.05763343972080      0.61445494773873
  H   1.39302680434889     -0.98735977510688      1.15762364182573
  H   1.27993002399745      0.78788268306147      1.23650324116604
  H   2.63736364992876      0.01130259558458      0.39684990689900
  N   -1.30689675276913      1.26925711802944     -0.29511103645950
  O   -0.55044922943279      2.18475393016977      0.01612089819917
  O   -2.52504600363172      1.33373997846102     -0.42075581647488
  N   -1.12566337002863     -0.95627112752800      0.60836017073657
  O   -1.15628828819098     -2.15593792090001      0.36257792344836
  O   -1.31618998072170     -0.41297602327804      1.69017145732722
