15
Coordinates from ORCA-job run
  C   0.79863801255494     -0.35864610885511     -0.27576868343970
  C   -0.61913234404553     -0.21793160815679      0.23956122482661
  F   1.13222269913995     -1.68855674729544     -0.03373358027846
  H   -0.70789016205588     -0.40635077185204      1.30728905318896
  H   0.80459373726578     -0.20470081497945     -1.35470151548438
  C   1.77334873393248      0.54028131955654      0.44373739662294
  H   1.72849434647062      0.37121482916925      1.52158736280592
  H   1.56876599278758      1.58945700732938      0.22883998258023
  H   2.78370072688073      0.31114020500772      0.10268275128428
  N   -1.51994116163573     -1.20278684067776     -0.45453414326429
  O   -2.15050750353566     -1.96848702398454      0.26497421121521
  O   -1.53717839597024     -1.14506195614758     -1.67917145440852
  N   -1.19744327895291      1.13544309735587     -0.03374940599493
  O   -2.09166428693869      1.49586352818989      0.72718868693860
  O   -0.76400711589745      1.74912188534006     -1.00520188659247
