15
Coordinates from ORCA-job run
  C   0.75129058922090     -0.56134133274558      0.13491117558721
  C   -0.57197760286846     -0.10928254337620     -0.46146770479394
  F   0.52779155086445     -1.08761434423384      1.39220518819953
  H   -0.47184219233231      0.09926515483757     -1.52679758064431
  H   1.11136687754152     -1.37794175039530     -0.49551686076487
  C   1.75454682611612      0.56509235433030      0.22198906359054
  H   1.91396907587974      1.02985692620788     -0.75368372737110
  H   2.70604915043473      0.17073222431617      0.57943629994585
  H   1.41147602905668      1.32233660833319      0.92823803204080
  N   -1.08238393253529      1.13782787445256      0.17600141348133
  O   -1.26383269665214      2.09086804574304     -0.58090377427258
  O   -1.23768231358785      1.12099262215274      1.39104794777397
  N   -1.60705477751369     -1.20077953452771     -0.34161752939779
  O   -1.23470692815133     -2.28779220906195     -0.76443193126779
  O   -2.70900965547307     -0.91422009603286      0.10058998789314
