15
Coordinates from ORCA-job run
  C   0.82994362204926      0.21308893975697     -0.34698785682232
  C   -0.63009953472589      0.32084497052885      0.05935489090248
  F   0.92316976407099     -0.70168301804729     -1.38008598183947
  H   -0.76399898381262      0.88900377624176      0.97962213118038
  H   1.13071008724181      1.18652644093997     -0.74216337829450
  C   1.72843675168270     -0.22470718004835      0.78698912364356
  H   1.67262940722299      0.47356227614403      1.62461779027835
  H   1.45336408693127     -1.21811974842478      1.14025155541982
  H   2.75717143147619     -0.25391915476328      0.42618006841693
  N   -1.20048680072646     -1.04513922226961      0.30262119248842
  O   -1.70820340865474     -1.62423923821549     -0.64684302883764
  O   -1.05075249828775     -1.47179021723800      1.44403122552474
  N   -1.49622147506143      0.98457596772746     -0.97698252488780
  O   -2.67886235512805      1.07651321335389     -0.66807781273623
  O   -0.96680009427826      1.39548219431386     -2.00252739443672
