15
Coordinates from ORCA-job run
  C   0.79721077761868      0.21181829311131     -0.46655413515892
  C   -0.61674151242405      0.40951116124207      0.05482539244158
  F   0.76629041390011     -0.66032737851192     -1.53699859512197
  H   -0.65864227532028      1.22117053931458      0.78204501332786
  H   1.13167447375943      1.17954736117434     -0.84704644109287
  C   1.72476911261284     -0.32648948119060      0.59833779644924
  H   1.42184846061483     -1.33295968854030      0.89110773052567
  H   2.73708768415377     -0.37823884055877      0.19685918423953
  H   1.73023860303173      0.31440952810448      1.48256322891388
  N   -1.11356142086372     -0.81495854517516      0.74646631386601
  O   -1.25255883229630     -1.82329548553104      0.06568798264731
  O   -1.27950164094985     -0.71033997360141      1.96082162117887
  N   -1.56725975773183      0.78838396283080     -1.05340640926376
  O   -2.69353558867655      0.31430897436823     -1.02458647878474
  O   -1.12731849742882      1.60745957296339     -1.85012220416763
