15
Coordinates from ORCA-job run
  C   0.84261870818718     -0.38828503247320     -0.14717878713412
  C   -0.64652331786715     -0.31586253349692      0.11622748612520
  F   1.20496441910227     -1.69010399106846      0.17049657276037
  H   -0.91371954171793     -0.62777069473893      1.12352495822749
  H   1.02035668088341     -0.24264981301853     -1.21358910698351
  C   1.62513580683779      0.58395932665713      0.70250531218467
  H   1.42376474562921      1.61371379329555      0.40166219584805
  H   1.38212815311811      0.46891320228081      1.76031892296715
  H   2.69034127932875      0.39490926112102      0.56492523209623
  N   -1.44276446736815     -1.16976129484847     -0.83118170471948
  O   -0.95262253980891     -1.43738004218443     -1.92113651399923
  O   -2.55152973763518     -1.49905651585490     -0.41753518042618
  N   -1.12831387955974      1.08936401094030     -0.06026429390342
  O   -1.11934616723189      1.52265973982342     -1.20899657192392
  O   -1.43349014189779      1.69735058356558      0.96022147888070
