15
Coordinates from ORCA-job run
  C   0.78955183313195     -0.40592782963986     -0.29512594632647
  C   -0.63910431470836     -0.29650480624551      0.19596216365732
  F   1.13749550802464     -1.73767666281857     -0.10543224484311
  H   -0.76049098116631     -0.66745095725281      1.21134105148229
  H   0.81315148363348     -0.20689499287191     -1.36738249486216
  C   1.73608471032168      0.48120647468182      0.47716697183447
  H   1.55139525076925      1.53508874822523      0.26251611887977
  H   2.75750142623433      0.24610831016714      0.17571602469556
  H   1.64212025506726      0.31543449263513      1.55185037513472
  N   -1.60416812324313     -1.06309475692747     -0.66531766353409
  O   -2.65479075578446     -1.37203368478484     -0.10923259905979
  O   -1.29116478647874     -1.28684284905293     -1.82790245474563
  N   -1.07423542781743      1.13241582939459      0.17269164254677
  O   -1.15799278439570      1.69590951843886      1.25902249288828
  O   -1.24535329358843      1.62926316605112     -0.93687343774792
