15
Coordinates from ORCA-job run
  C   0.71262107812408     -0.03911182391067     -0.78063939678469
  C   -0.77829235226337      0.01327778769453     -0.45288284463479
  F   0.87651942032171     -1.11726181086731     -1.64091552283689
  H   -1.37828746647171     -0.27374800268758     -1.31499940489295
  H   0.95325196549940      0.86693551368686     -1.34127585354216
  C   1.62346979314781     -0.20972532911539      0.40894633412820
  H   1.46947695715501      0.58858246857299      1.13374916845488
  H   2.65891282518040     -0.18570625986098      0.06791424272681
  H   1.44328109918343     -1.17466456143742      0.88622170787541
  N   -1.24091374430794      1.36665655668601     -0.01512798293497
  O   -0.39125160671124      2.20337557182032      0.27771338400756
  O   -2.45769944033366      1.51379509581452      0.01755159441658
  N   -1.10981475392220     -0.94341659215292      0.65323710762479
  O   -1.25166111949730     -2.10942637681319      0.30523424215467
  O   -1.12861265510441     -0.49956223742974      1.79527322423752
