15
Coordinates from ORCA-job run
  C   0.82069026683943     -0.37304670783599     -0.23865447847492
  C   -0.62937207592682     -0.31284292688295      0.19419024843509
  F   1.23169350070382     -1.66928395312677      0.04668862323094
  H   -0.77058924891362     -0.60590107074887      1.23198247190088
  H   0.87375316606451     -0.23835314258007     -1.31978838543013
  C   1.68647961987465      0.61136506859540      0.50985521113608
  H   2.73021869877178      0.42229087502539      0.25632416374879
  H   1.56395169916589      0.50028344572046      1.58877872464208
  H   1.44831711830740      1.63848930664226      0.22822089706560
  N   -1.50718723026506     -1.20892133883458     -0.63415489402858
  O   -2.52076692766115     -1.60884247220018     -0.06688183768762
  O   -1.17045609744505     -1.43524362018288     -1.78983644764749
  N   -1.14495044072928      1.08086626765250      0.03708681925370
  O   -1.25979043702078      1.49182983490984     -1.11402355096172
  O   -1.35199161176576      1.70631043384642      1.07221243481730
