15

C	0.0	0.0	0.0
C	-0.358116	0.478716	-1.427672
Cl	1.783661	0.0	0.0
H	0.2471	-0.140378	-2.099142
H	-0.291432	0.758955	0.735037
N	-0.541011	-1.312449	0.224459
H	-0.290209	-1.61855	1.158173
H	-1.558729	-1.224049	0.204404
C	0.096751	1.862477	-1.598412
N	0.433917	2.976516	-1.75409
C	-1.827867	0.35671	-1.818957
H	-1.985114	0.823169	-2.793464
H	-2.117941	-0.691195	-1.889358
H	-2.501145	0.814249	-1.098117
Cl	-4.540573	0.0	0.0
