15

C	0.0	0.0	0.0
C	-0.288774	0.427055	-1.465503
Cl	1.831855	0.0	0.0
H	0.358207	-0.213311	-2.074234
H	-0.26964	0.797293	0.700222
N	-0.555252	-1.288983	0.26918
H	-1.571279	-1.191304	0.18732
H	-0.363887	-1.540096	1.23285
C	0.176684	1.804683	-1.656458
N	0.5088	2.919523	-1.815905
C	-1.717408	0.294927	-1.985235
H	-2.435867	0.872199	-1.410504
H	-1.734763	0.621367	-3.028837
H	-2.045823	-0.742044	-1.942504
Cl	-4.250551	0.0	0.0
