15

C	0.0	0.0	0.0
C	-0.292373	-0.278901	-1.513952
Cl	1.793785	0.0	0.0
H	0.298402	-1.170964	-1.760887
H	-0.316578	1.011121	0.258369
N	-0.573471	-0.913628	0.926644
H	-1.566528	-0.694493	1.017645
H	-0.486912	-1.866314	0.591662
C	0.24742	0.811483	-2.332648
N	0.630482	1.686717	-3.01611
C	-1.746396	-0.526739	-1.895197
H	-2.161785	-1.365596	-1.340599
H	-2.388148	0.320609	-1.669807
H	-1.80035	-0.748278	-2.965124
Cl	-4.303494	0.0	0.0
