15

C	0.0	0.0	0.0
C	-0.291267	0.003101	-1.555483
Cl	1.789193	0.0	0.0
H	0.524175	0.60152	-1.977663
H	-0.291148	0.970167	0.416653
N	-0.531933	-1.145126	0.668133
H	-1.554785	-1.025194	0.582563
H	-0.325936	-1.062248	1.663819
C	-1.460379	0.701258	-2.134128
N	-2.112197	1.374408	-2.843219
C	-0.187115	-1.407936	-2.149286
H	-0.19845	-1.352258	-3.23983
H	0.746339	-1.872287	-1.827873
H	-1.014754	-2.028799	-1.806027
Cl	-3.440078	0.0	0.0
