15

C	0.0	0.0	0.0
C	-0.450156	-0.008698	-1.463592
Cl	1.835449	0.0	0.0
H	-1.550577	-0.014467	-1.388809
H	-0.315513	0.925641	0.477322
N	-0.499429	-1.116537	0.680707
H	-0.13656	-1.988371	0.32149
H	-0.412526	-1.063047	1.682384
C	-0.014801	-1.254057	-2.09874
N	0.371471	-2.238397	-2.610666
C	0.044784	1.193918	-2.267991
H	1.130891	1.181075	-2.373881
H	-0.403442	1.191671	-3.263051
H	-0.24933	2.116289	-1.761925
Cl	-3.665908	0.0	0.0
