15

C	0.0	0.0	0.0
C	-0.495818	-0.368712	-1.412813
Cl	1.789095	0.0	0.0
H	-1.591727	-0.375733	-1.30707
H	-0.320919	1.023464	0.196966
N	-0.481564	-0.835819	1.059775
H	-1.500563	-0.726241	1.063418
H	-0.270545	-1.806224	0.848098
C	-0.059685	-1.717338	-1.767119
N	0.29957	-2.798132	-2.054441
C	-0.108611	0.642639	-2.491301
H	0.972371	0.698324	-2.621286
H	-0.488215	1.62685	-2.20493
H	-0.564908	0.370939	-3.446257
Cl	-3.548169	0.0	0.0
