17

C	-0.582676	0.014258	-1.400405
C	0.0	0.0	0.0
Br	0.200237	-1.367728	-2.556567
H	1.094512	0.0	0.0
C	-2.029094	-0.166398	-1.402973
N	-3.18254	-0.382808	-1.325073
N	-0.286494	1.341237	-2.104763
O	-1.106809	1.706504	-2.944104
O	0.755568	1.899446	-1.814274
C	-0.422003	-1.238905	0.771447
H	-0.148387	-2.154174	0.243407
H	0.126547	-1.231692	1.716411
H	-1.49852	-1.256261	0.976529
N	-0.469385	1.238399	0.627863
H	0.358477	1.762753	0.904194
H	-1.012246	1.032193	1.457265
H	2.773435	0.0	0.0
