17

C	-0.475568	0.025777	-1.403167
C	0.0	0.0	0.0
Br	-2.500089	-0.301974	-1.646436
H	1.100013	0.0	0.0
C	-0.238162	1.302382	-2.057875
N	-0.074592	2.327739	-2.612122
N	0.23101	-1.066275	-2.194119
O	-0.126953	-2.225213	-2.02729
O	1.19162	-0.693609	-2.860257
C	-0.388659	-1.217378	0.814287
H	-1.458837	-1.21749	1.045027
H	-0.143735	-2.151036	0.308658
H	0.186444	-1.176282	1.743475
N	-0.348935	1.268244	0.626038
H	0.494423	1.629884	1.062371
H	-1.061489	1.140573	1.334049
H	2.543955	0.0	0.0
