17

C	-0.403247	-0.011269	-1.469135
C	0.0	0.0	0.0
Br	0.467148	1.449334	-2.44355
H	1.10099	0.0	0.0
C	-0.041947	-1.252995	-2.140309
N	0.237198	-2.255175	-2.688527
N	-1.919906	0.155736	-1.597724
O	-2.558187	-0.881697	-1.409693
O	-2.391596	1.267829	-1.772505
C	-0.468527	-1.233417	0.746947
H	-0.149671	-2.148061	0.244915
H	0.016625	-1.220507	1.729047
H	-1.554298	-1.251774	0.877428
N	-0.547263	1.209805	0.62317
H	-0.446176	1.084435	1.62505
H	0.078607	1.975768	0.383804
H	2.734599	0.0	0.0
