17

C	-0.404592	0.011365	-1.474743
C	0.0	0.0	0.0
Br	0.039148	1.685393	-2.347933
H	1.095659	0.0	0.0
C	0.232039	-1.065953	-2.228644
N	0.708081	-1.933829	-2.861617
N	-1.919455	-0.191559	-1.568855
O	-2.636168	0.744996	-1.234297
O	-2.310308	-1.327863	-1.848111
C	-0.441207	-1.300032	0.661111
H	0.053157	-1.348754	1.635033
H	-1.52703	-1.346151	0.813396
H	-0.131404	-2.179982	0.091935
N	-0.428348	1.199547	0.675879
H	0.311598	1.465822	1.318551
H	-1.294021	1.064008	1.185161
H	2.703091	0.0	0.0
