17

C	-0.493843	-0.025296	-1.460821
C	0.0	0.0	0.0
Br	0.38356	-1.408827	-2.521417
H	1.09358	0.0	0.0
C	-1.932138	-0.246182	-1.556436
N	-3.088542	-0.46446	-1.541603
N	-0.189669	1.335546	-2.09688
O	-1.119445	2.142527	-2.081631
O	0.947902	1.550257	-2.476786
C	-0.485616	-1.223359	0.756673
H	0.020577	-1.20791	1.723445
H	-1.567808	-1.200194	0.925781
H	-0.219153	-2.151734	0.246584
N	-0.387616	1.217002	0.685594
H	0.312392	1.932654	0.518194
H	-1.307284	1.557212	0.436622
H	2.773946	0.0	0.0
