17

C	-0.463904	-0.023996	-1.454922
C	0.0	0.0	0.0
Br	0.337205	1.442001	-2.464184
H	1.100977	0.0	0.0
C	-0.130857	-1.267909	-2.138351
N	0.122998	-2.263948	-2.709303
N	-1.989619	0.127433	-1.503178
O	-2.485165	1.227255	-1.686036
O	-2.604747	-0.908923	-1.246328
C	-0.44966	-1.218953	0.784222
H	-0.229534	-2.146703	0.252298
H	-1.519117	-1.190895	1.016315
H	0.127902	-1.232025	1.715295
N	-0.48388	1.236075	0.621398
H	0.270545	1.916951	0.553068
H	-0.600887	1.056689	1.612499
H	2.731901	0.0	0.0
