17

C	-0.570413	0.009122	-1.408252
C	0.0	0.0	0.0
Br	0.223271	-1.383612	-2.541728
H	1.094444	0.0	0.0
C	-2.018476	-0.171023	-1.423227
N	-3.174512	-0.381839	-1.355096
N	-0.264626	1.334167	-2.112777
O	-1.069379	1.692344	-2.97041
O	0.772592	1.896344	-1.806557
C	-0.435114	-1.233914	0.771957
H	0.095305	-1.223196	1.728225
H	-0.152775	-2.151472	0.252607
H	-1.515909	-1.248411	0.957145
N	-0.473249	1.242637	0.617672
H	-0.9996	1.041055	1.458321
H	0.3515	1.779182	0.872544
H	2.780251	0.0	0.0
