18

C	0.0	0.0	0.0
C	-0.6228	-0.251315	-1.377993
F	1.385662	0.0	0.0
H	-1.734268	-0.213215	-1.118608
C	-0.476656	1.363228	0.467975
H	-0.091238	1.541871	1.475619
H	-0.101977	2.151783	-0.190633
H	-1.570095	1.31947	0.467603
C	-0.459179	-1.088347	0.955499
H	-1.552326	-1.089219	0.924579
H	-0.048487	-2.060086	0.668295
H	-0.096786	-0.845525	1.9588
N	-0.250745	-1.614685	-1.874676
O	0.863759	-1.753549	-2.383292
O	-1.064722	-2.519608	-1.702695
C	-0.201571	0.725179	-2.37074
N	0.10982	1.540173	-3.15735
F	-2.937394	0.0	0.0
