18

C	0.0	0.0	0.0
C	-0.650698	0.712626	-1.184968
F	1.396369	0.0	0.0
H	-1.77047	0.510479	-0.928933
C	-0.448723	0.732365	1.256462
H	-0.06694	1.75625	1.267457
H	-1.540707	0.711927	1.255693
H	-0.051412	0.204297	2.126665
C	-0.435436	-1.455358	0.058495
H	-0.024308	-2.021258	-0.77695
H	-1.52589	-1.460479	0.039055
H	-0.05986	-1.885	0.990713
N	-0.283325	0.094188	-2.495691
O	-0.824881	-0.973071	-2.780624
O	0.537627	0.672813	-3.21065
C	-0.342443	2.132796	-1.240742
N	-0.151013	3.292573	-1.240822
F	-2.92626	0.0	0.0
