18

C	0.0	0.0	0.0
C	-0.624099	-0.014395	-1.398362
F	1.396083	0.0	0.0
H	-1.737599	-0.051379	-1.123274
C	-0.468522	1.27156	0.685459
H	-0.08719	2.155752	0.168192
H	-1.562119	1.234684	0.6765
H	-0.086839	1.277068	1.710207
C	-0.452624	-1.22352	0.776193
H	-0.06075	-2.142921	0.335978
H	-1.545719	-1.20923	0.76071
H	-0.072001	-1.139495	1.798879
N	-0.219347	-1.240427	-2.15548
O	0.778193	-1.174449	-2.875326
O	-0.897019	-2.252425	-1.984998
C	-0.271242	1.151027	-2.194066
N	-0.042338	2.10864	-2.834747
F	-2.933026	0.0	0.0
