18

C	0.0	0.0	0.0
C	-0.617312	-0.021855	-1.402283
F	1.391374	0.0	0.0
H	-1.729245	-0.022205	-1.144707
C	-0.473231	1.270358	0.682363
H	-0.098742	2.154238	0.158621
H	-1.566806	1.228688	0.677511
H	-0.085748	1.283973	1.704981
C	-0.460794	-1.22756	0.764096
H	-1.553672	-1.221306	0.727468
H	-0.103947	-1.149448	1.794578
H	-0.048712	-2.140347	0.326605
N	-0.251247	-1.289083	-2.112901
O	-1.069133	-2.206178	-2.086504
O	0.860062	-1.348578	-2.641916
C	-0.186546	1.098088	-2.223915
N	0.13168	2.024554	-2.872722
F	-2.934729	0.0	0.0
