18

C	0.0	0.0	0.0
C	-0.339148	0.063818	-1.533763
Cl	1.793686	0.0	0.0
H	0.345638	0.824603	-1.932505
C	-0.466663	1.259433	0.710372
H	-1.559622	1.265849	0.72221
H	-0.096534	1.266224	1.739673
H	-0.096593	2.157487	0.206912
N	-0.517664	-1.219552	0.580064
H	-0.272962	-1.2513	1.564531
H	-1.53721	-1.152361	0.528004
N	-1.667799	0.491865	-1.908417
H	-2.414031	0.002706	-1.414717
H	-1.806479	1.473419	-1.698853
N	-0.019408	-1.225213	-2.130612
H	-0.205974	-1.948473	-1.44446
H	-0.656258	-1.339625	-2.909263
Cl	-4.167282	0.0	0.0
