18

C	0.0	0.0	0.0
C	-0.301801	-0.015448	-1.536231
Cl	1.808252	0.0	0.0
H	0.268631	-0.883192	-1.918004
C	-0.516255	1.240186	0.692125
H	-1.605321	1.261671	0.590604
H	-0.26304	1.192914	1.753503
H	-0.095134	2.135059	0.241289
N	-0.474743	-1.167347	0.68721
H	-1.472647	-1.043417	0.850579
H	-0.349654	-1.989028	0.104424
N	0.119445	1.244425	-2.141549
H	-0.240185	1.234625	-3.087822
H	1.128475	1.305794	-2.168359
N	-1.667904	-0.220243	-1.933911
H	-1.974	-1.155415	-1.700346
H	-2.319123	0.385752	-1.441316
Cl	-4.172027	0.0	0.0
