12

C	-0.509458	-0.004578	-1.437403
C	0.0	0.0	0.0
Cl	0.068379	-1.509261	-2.246359
H	1.092572	0.0	0.0
H	-1.603538	-0.10349	-1.465957
H	-0.345398	-0.89972	0.516501
N	0.006061	1.124299	-2.16833
H	-0.379272	1.150847	-3.105812
H	-0.217417	1.985622	-1.674717
C	-0.511956	1.174819	0.685853
N	-0.940927	2.138311	1.20402
Cl	3.022091	0.0	0.0
