15

C	-0.34071	0.053064	-1.48862
C	0.0	0.0	0.0
Br	-0.083871	-1.879537	-2.236345
H	1.093814	0.0	0.0
H	-0.292595	0.968797	0.424493
C	-1.783713	0.369838	-1.822823
H	-2.009134	1.368788	-1.435858
H	-2.452876	-0.360079	-1.366861
H	-1.945162	0.363253	-2.903955
N	0.56959	0.953363	-2.058716
H	1.519922	0.774822	-1.706779
H	0.54353	0.950163	-3.070192
C	-0.627324	-1.056827	0.762518
N	-1.166328	-1.880416	1.405364
H	2.787628	0.0	0.0
