15

C	-0.467122	-0.04029	-1.457182
C	0.0	0.0	0.0
Br	-0.049461	1.730681	-2.248944
H	1.092404	0.0	0.0
H	-0.377013	0.893096	0.503288
C	0.345753	-1.070831	-2.227145
H	0.099799	-2.065366	-1.837824
H	1.413155	-0.891176	-2.06546
H	0.103077	-1.038621	-3.293147
N	-1.909459	-0.17841	-1.54814
H	-2.170473	-0.295053	-2.522043
H	-2.173056	-1.024333	-1.050037
C	-0.480847	-1.186393	0.692922
N	-0.89342	-2.156085	1.215812
H	2.813091	0.0	0.0
