15

C	-0.220989	-0.029855	-1.508345
C	0.0	0.0	0.0
Br	-2.157731	-0.386857	-1.933836
H	1.096709	0.0	0.0
H	-0.333085	-0.935618	0.458599
C	0.175236	1.286888	-2.138951
H	0.092551	1.213146	-3.223965
H	1.220402	1.468203	-1.857758
H	-0.44062	2.109232	-1.772264
N	0.554283	-1.093382	-2.110304
H	1.521117	-0.907816	-1.803349
H	0.291185	-1.970308	-1.668017
C	-0.569705	1.13425	0.696483
N	-1.023898	2.061952	1.258097
H	2.759301	0.0	0.0
