15

C	-0.28594	0.067677	-1.506342
C	0.0	0.0	0.0
Br	-0.215926	-2.004821	-2.120905
H	1.093899	0.0	0.0
H	-0.397984	-0.899164	0.467172
C	-1.678629	0.465654	-1.944725
H	-1.773801	0.397418	-3.031309
H	-1.855566	1.499477	-1.631748
H	-2.426622	-0.184617	-1.489586
N	0.720753	0.808658	-2.083337
H	1.647059	0.616939	-1.66941
H	0.714052	0.831967	-3.092861
C	-0.497789	1.189989	0.670161
N	-0.912002	2.146575	1.214321
H	2.788836	0.0	0.0
