13

C	-0.575741	-0.083169	-1.389814
C	0.0	0.0	0.0
Cl	0.06826	1.174707	-2.473103
H	1.096196	0.0	0.0
H	-1.660872	0.009738	-1.357316
H	-0.281075	-1.043712	-1.819646
N	-0.533287	-1.098815	0.807738
H	0.071065	-1.17735	1.617312
H	-0.393012	-1.95949	0.288914
N	-0.472198	1.23706	0.712335
O	-1.398203	1.893902	0.235224
O	0.072874	1.463586	1.788134
Br	3.535447	0.0	0.0
