13

C	-0.574729	0.033099	-1.408846
C	0.0	0.0	0.0
Cl	-0.225381	-1.468883	-2.292836
H	1.090458	0.0	0.0
H	-1.662581	0.14632	-1.373207
H	-0.129813	0.855221	-1.963298
N	-0.473507	-1.074987	0.794713
H	-1.36106	-0.851022	1.223189
H	0.199805	-1.270858	1.521587
N	-0.383893	1.37133	0.585277
O	-1.040042	1.398884	1.629243
O	-0.02822	2.364754	-0.040695
Br	3.473281	0.0	0.0
