13

C	-0.525443	0.03992	-1.435827
C	0.0	0.0	0.0
Cl	-0.268604	-1.519236	-2.261255
H	1.089502	0.0	0.0
H	-1.601138	0.235924	-1.444653
H	0.002033	0.804041	-1.999609
N	-0.458755	-1.052764	0.829769
H	-1.327796	-1.466461	0.526008
H	0.260475	-1.755736	0.912577
N	-0.441485	1.350871	0.560279
O	0.000657	2.338771	-0.027251
O	-1.230741	1.385775	1.49967
Br	3.481744	0.0	0.0
