13

C	-0.590746	-0.01902	-1.387963
C	0.0	0.0	0.0
Cl	0.131729	1.181418	-2.484959
H	1.095751	0.0	0.0
H	-0.387678	-1.000166	-1.817784
H	-1.664671	0.152891	-1.343275
N	-0.518957	-1.161921	0.734126
H	-0.190345	-1.049018	1.68987
H	-0.003145	-1.96122	0.375983
N	-0.462258	1.195468	0.778871
O	-1.165097	2.041136	0.227471
O	-0.107052	1.236622	1.955404
Br	3.495247	0.0	0.0
