13

C	-0.403805	-0.021347	-1.449382
C	0.0	0.0	0.0
Cl	-2.174698	-0.080764	-1.698037
H	1.102492	0.0	0.0
H	0.025617	-0.908026	-1.914466
H	-0.026406	0.867325	-1.945683
N	-0.570454	-1.087586	0.768395
H	-0.26554	-1.949329	0.324214
H	-0.136577	-1.067218	1.684892
N	-0.403612	1.294378	0.644044
O	-0.609497	1.27651	1.854307
O	-0.432579	2.301201	-0.059868
Br	3.450302	0.0	0.0
