13

C	-0.394867	0.04328	-1.459643
C	0.0	0.0	0.0
Cl	-2.179488	-0.05738	-1.67758
H	1.092954	0.0	0.0
H	-0.060476	0.966193	-1.922681
H	0.040985	-0.81758	-1.962578
N	-0.446543	-1.108035	0.759603
H	-1.302301	-1.520213	0.423392
H	0.291674	-1.785673	0.870377
N	-0.457688	1.313458	0.624781
O	-1.148274	1.28955	1.636638
O	-0.095252	2.33454	0.040623
Br	3.4498	0.0	0.0
