13

C	-0.452117	-0.00927	-1.435715
C	0.0	0.0	0.0
Cl	-2.246317	-0.013944	-1.565471
H	1.093855	0.0	0.0
H	-0.090117	-0.925078	-1.895871
H	-0.087489	0.866669	-1.963288
N	-0.465232	-1.111833	0.747324
H	0.094588	-1.213136	1.582649
H	-1.43581	-1.001005	1.010207
N	-0.398223	1.348235	0.610058
O	-0.144935	2.356226	-0.043492
O	-0.927685	1.344801	1.721153
Br	3.452871	0.0	0.0
