15
Coordinates from ORCA-job run
  C   0.85257313474528     -0.08741752895666      0.62195582596128
  C   -0.64120390750397      0.25958131987188      0.59842708674268
  Cl  1.52243216415111      0.41555092458891      2.17965626125507
  H   -1.11391654889585     -0.15979989201156      1.48560002675919
  N   1.03189104094554     -1.61019868822984      0.55236007211682
  O   2.02994549303044     -2.02320143533887     -0.01347216532566
  O   0.17166075386146     -2.25864335388069      1.13044811034631
  C   1.58522344555818      0.54884817238946     -0.46090932935914
  N   2.13093890434394      1.15590299195102     -1.30681589042867
  N   -1.30421361362229     -0.47242287931379     -0.57193201444317
  O   -2.52894835122187     -0.47873245366745     -0.54548346255819
  O   -0.58471905433430     -0.92523605442472     -1.45972095781824
  N   -0.82999378625089      1.65928699829359      0.53892181266315
  H   -0.53891102363997      2.06082308666459     -0.34421158421906
  H   -1.78575865116679      1.91465879206412      0.74417620830761
