15
Coordinates from ORCA-job run
  C   0.77692259113965     -0.04171302614026      0.57349197125174
  C   -0.74269922639511      0.26402762812117      0.45089097935704
  Cl  1.42827078723505      0.92085470856063      1.91471443750407
  H   -1.22413552701629     -0.18529833135472      1.32276546440218
  N   1.03263665894162     -1.50689063759827      0.96299722186842
  O   0.29523244398829     -1.94327439705751      1.83218198337441
  O   1.96193363329259     -2.07068015714868      0.41197705246521
  C   1.48050796685757      0.28670033175252     -0.65464082326921
  N   1.97308276400186      0.65329800946345     -1.65753032081314
  N   -1.25147210954225     -0.53475616936877     -0.76160729572122
  O   -0.66052740197417     -1.59114385357913     -0.97685598085907
  O   -2.19916630384125     -0.09139887691419     -1.38557369864495
  N   -1.11379827109975      1.61087206356711      0.31011723948623
  H   -1.17263715842633      2.10669283285278      1.18468085934054
  H   -0.58215084716146      2.12370987484387     -0.37960908974226
