15
Coordinates from ORCA-job run
  C   0.78677359939440     -0.21348236904643      0.76550925423232
  C   -0.57079706997383      0.45735073188832      0.43886211471808
  Cl  0.80887347590599     -1.24697794798853      2.19204636726170
  H   -0.73477493440513      1.21837949397450      1.20413480686381
  N   1.20228302775303     -1.09123541044347     -0.42427133578241
  O   2.36374433526728     -1.02770804402284     -0.79283418166064
  O   0.31161307965932     -1.80342240376342     -0.86784014881543
  C   1.77061994262029      0.85196974023907      0.91841945623822
  N   2.52494768096248      1.73404321915628      1.10297003814998
  N   -1.77097559999968     -0.48840026507364      0.61289075366008
  O   -2.34639928615985     -0.85851309451475     -0.40246080435795
  O   -2.08674144014143     -0.74098335058254      1.76991239914848
  N   -0.47475416242930      1.02914699852469     -0.85085656255149
  H   -0.70325209287581      0.34792914948900     -1.56571980556197
  H   -1.08116055557777      1.83090355216379     -0.95176235154279
