15
Coordinates from ORCA-job run
  C   0.83339481661861     -0.07015588822422      0.68265676626325
  C   -0.66083704118301      0.28741104563048      0.58108181640807
  Cl  1.43019644398091      0.41616707114502      2.26817799345271
  H   -1.17124884258337     -0.11615620753780      1.45463430518684
  N   0.94996632998942     -1.60426614407788      0.58498822958017
  O   0.28655523532182     -2.22079888639233      1.40506826285035
  O   1.66811606992434     -2.05560452921610     -0.29610040912409
  C   1.63591204011646      0.55043552060583     -0.35907617660596
  N   2.27059541643708      1.12971266006494     -1.16150227540370
  N   -1.23666633461334     -0.49289982840681     -0.60488016868318
  O   -2.09456657889723     -1.33660800984021     -0.36132923663841
  O   -0.80994071605914     -0.17162782133217     -1.71258129473244
  N   -0.82024167213185      1.68381925474171      0.46235473625619
  H   -0.50937060356767      2.02515024282665     -0.43979477193094
  H   -1.77086456335306      1.97542152001289      0.64230222312114
