15
Coordinates from ORCA-job run
  C   0.55518973652639     -0.59142208126062      0.51972651921643
  C   -0.39199746035675      0.52689790103575      0.04588742719881
  Cl  -0.23261284586894     -2.15695491854409      0.47733397688163
  H   0.12994523683620      1.47662997001873      0.16914235516684
  N   1.72538580641127     -0.53953819394394     -0.51427105653727
  O   1.89912680302922     -1.49062165285568     -1.24643889873869
  O   2.34439189911936      0.51308243144024     -0.47236013097005
  C   1.14847902225326     -0.35244779152894      1.82650841989694
  N   1.66250582780920     -0.20073578464514      2.87314138291377
  N   -1.55694107225266      0.58777737402670      1.04487465780136
  O   -1.30041929814179      1.08381893265778      2.13735468605526
  O   -2.63676954630868      0.14483509876069      0.67066408189792
  N   -0.76565943731585      0.31271087197921     -1.29314745907175
  H   -1.16784443441914      1.14305597856120     -1.70502617471206
  H   -1.41478023732109     -0.45808813570188     -1.38538978699915
