15
Coordinates from ORCA-job run
  C   0.70046039486101     -0.41555838754648      0.51198000748573
  C   -0.50813787419910      0.41280405227209      0.03554907970862
  Cl  0.23957129162169     -2.06980155274169      0.86384142303626
  H   -0.17657986798968      1.44524268736105     -0.08219106704549
  N   1.67781578184882     -0.36653899704952     -0.70501632972739
  O   2.07154582991844      0.76451492615707     -0.94712918778293
  O   1.93392802802497     -1.39788933758630     -1.28960153859253
  C   1.41476249094641      0.16856947070029      1.63674640634832
  N   2.03237651102957      0.60446925147102      2.53750027403143
  N   -1.51434730423033      0.45340494173484      1.19633139047621
  O   -2.53588847025725     -0.21247597947491      1.07280598351333
  O   -1.20341400406284      1.15891824966154      2.15053920901549
  N   -1.01092461950733     -0.10874363555269     -1.16971536315364
  H   -1.62086911717588      0.54838385048063     -1.63550133628030
  H   -1.50029907082850     -0.98329953988696     -1.02913895103311
