15
Coordinates from ORCA-job run
  C   0.78740255777852     -0.20488343119887      0.77076571639201
  C   -0.56713938765630      0.46566272115913      0.42980832410388
  Cl  0.80566273412473     -1.20075372469979      2.22389233799126
  H   -0.72690783898172      1.24463033099272      1.17772435132376
  N   1.19424152935593     -1.11540918656303     -0.39704353843918
  O   0.29985969467090     -1.83763350609787     -0.81589109316421
  O   2.35312157125837     -1.06231387354761     -0.77520920172049
  C   1.77706627080481      0.85876665386403      0.89306706543654
  N   2.52864380119779      1.74951193857530      1.04430509977797
  N   -1.77227928719803     -0.46948508052067      0.62566627688549
  O   -2.34871712714595     -0.86089417546673     -0.38102167344644
  O   -2.08916714166797     -0.69394150448400      1.78811091708760
  N   -0.46855670536895      1.00608528117457     -0.87348938949409
  H   -1.06619781416929      1.81210528885599     -0.99162271907573
  H   -0.70703285700283      0.31055226795683     -1.57106247365838
