15
Coordinates from ORCA-job run
  C   0.66693290164874     -0.29564730098280      0.61164424442015
  C   -0.58679155656688      0.38781559557062     -0.01890894474448
  Cl  0.23491249604742     -1.74967041720985      1.48363470564179
  H   -0.24856159800554      1.32489030295939     -0.46193186376778
  N   1.52833227633213     -0.64627294147529     -0.63347028007895
  O   1.93642002268985      0.34258060667366     -1.22868270988321
  O   1.66953630557651     -1.81524006857447     -0.93972131702609
  C   1.46706053524066      0.58968709012634      1.44164874037256
  N   2.13729016980780      1.28595964975356      2.11199496064904
  N   -1.48282173454485      0.77855651514904      1.13985537823225
  O   -1.14213387278324      1.78498777547493      1.75607840089888
  O   -2.43969414497677      0.05400892842573      1.37783736740899
  N   -1.30609304684249     -0.37823925584681     -0.95399930606027
  H   -0.91921327668098     -0.34406719056999     -1.88439932259035
  H   -1.51517547694235     -1.31934928947405     -0.65458005347253
