15
Coordinates from ORCA-job run
  C   0.70941543528128     -0.34877771438152      0.56992273446998
  C   -0.51084296606635      0.37167276220552     -0.03500986041296
  Cl  0.24222167018677     -1.84768250969581      1.34952619632121
  H   -0.16906098920339      1.33142499531461     -0.42449168714341
  N   1.61414696057333     -0.63613425714404     -0.67064030193220
  O   1.81754188249956     -1.78835851075348     -0.99005755480660
  O   2.01308319959135      0.38546841909187     -1.20916635258967
  C   1.49860339903243      0.47527966177707      1.47248910859362
  N   2.17792126963326      1.10515411601064      2.19676927870800
  N   -1.44632905377117      0.73163212546860      1.13015825563760
  O   -2.48398060528233      0.08749400703202      1.23193815000560
  O   -1.06801573326835      1.64321672084346      1.85869136147687
  N   -1.09205503650258     -0.41787852392551     -1.04269793254685
  H   -1.58648019147780     -1.21475561399111     -0.66241725491166
  H   -1.71616924122602      0.12024432214767     -1.62701414086953
