15
Coordinates from ORCA-job run
  C   0.74723649565252     -0.26951479753897      0.56206491245765
  C   -0.54068886255968      0.31530995276337     -0.04842433412872
  Cl  0.39494777700678     -1.63686297396375      1.60113536550462
  H   -0.26573127825994      1.20955706845942     -0.60920922274316
  N   1.56649934180900     -0.72753009341207     -0.68625059234443
  O   1.88532344713087      0.20530185214555     -1.40810843328674
  O   1.78812374500871     -1.91038861312132     -0.83689097968341
  C   1.57065988945417      0.70631123964010      1.25924114971948
  N   2.27804175430952      1.46064024269746      1.81897834697970
  N   -1.39940594228211      0.83242402338192      1.11689211420749
  O   -2.40395574036741      0.18909809903240      1.39803529349974
  O   -1.00067908069112      1.85598379722786      1.66297462558502
  N   -1.16611351178543     -0.63797138347150     -0.87118833725374
  H   -1.60020059072630     -1.37723121367551     -0.33361873958177
  H   -1.85305744369958     -0.21412720016495     -1.47863116893175
