15
Coordinates from ORCA-job run
  C   0.79459250332279     -0.23656594429901      0.74727466078911
  C   -0.53635235998522      0.49501778846882      0.44103686802189
  Cl  0.81260616470472     -1.21762844900724      2.21066301176785
  H   -0.63271059754400      1.29120722035866      1.18161619413008
  N   1.11947192409505     -1.17797429890265     -0.42170716558643
  O   2.26792549927895     -1.18831591497115     -0.83391062386520
  O   0.17773510902733     -1.85851838123878     -0.80507760541821
  C   1.83778752748811      0.77899884345678      0.82632362539364
  N   2.63538916931584      1.63397725294735      0.94400191436167
  N   -1.77832194747938     -0.37671926782223      0.69055614074744
  O   -2.06446750090251     -0.57247054928317      1.86603483771896
  O   -2.40964652171618     -0.74870799398516     -0.29030179976629
  N   -0.45541209477243      1.01278777185088     -0.87257186986470
  H   -1.01788233523911      1.84467694852198     -0.98332470453889
  H   -0.74971453959396      0.32023497390493     -1.55161348389091
