15
Coordinates from ORCA-job run
  C   0.67745455362504     -0.34816491651180      0.62769545097205
  C   -0.48026313579691      0.37209491411315     -0.08952445581256
  Cl  0.09885966319221     -1.72562835689134      1.54516862302702
  H   -0.07065053852406      1.26306523613037     -0.56719779766057
  N   1.59571704328899     -0.81820455001256     -0.54486756321912
  O   1.73689539631012     -2.00775794504879     -0.73460274987159
  O   2.06957292244373      0.11532295768068     -1.17480908834693
  C   1.49058624725336      0.52039979111238      1.46469996896331
  N   2.18687702841345      1.18473628487358      2.14041663312157
  N   -1.42288756788636      0.90891623322202      0.99921472439589
  O   -1.00914363899913      1.86996160587799      1.63962951131472
  O   -2.50108716647855      0.34163357006054      1.13294065657472
  N   -1.08150306675117     -0.48637286833854     -1.02679716366459
  H   -1.65778694597831      0.02139004395799     -1.68326054769195
  H   -1.63264079411241     -1.20839200022565     -0.58070620210197
