15
Coordinates from ORCA-job run
  C   0.76658023603827     -0.24302324792618      0.74959576250498
  C   -0.56978584647917      0.49022199779054      0.51847217115763
  Cl  0.69334762320397     -1.11337834179435      2.27197767123768
  H   -0.77883361309383      1.05486618595093      1.42835301566772
  N   1.10451591690290     -1.23022074244337     -0.41318300063115
  O   1.38334986566094     -2.37738447650329     -0.13971330544736
  O   1.09233218291622     -0.70053552593601     -1.51537317547269
  C   1.85138788345962      0.72891966307210      0.76963224083021
  N   2.73756275199642      1.49982894091583      0.81782872606653
  N   -1.69645790835368     -0.54541901124076      0.47518366303661
  O   -1.49470313703713     -1.57818911915565     -0.15751762983769
  O   -2.74785663250875     -0.20586379749348      1.00883811434181
  N   -0.55555323440286      1.36021536624106     -0.59111660770824
  H   -1.35813168579337      1.97411787449575     -0.59974907151607
  H   -0.42775440250955      0.88684423402687     -1.47422857422997
