15
Coordinates from ORCA-job run
  C   0.85123331769097      0.03776955307942      0.48872443728527
  C   -0.67990714644163      0.31806745391417      0.58213249041717
  Cl  1.66841623098820      1.04575320877652      1.68213615791528
  H   -0.98317774914739      0.07208328585737      1.60058247921943
  N   1.07345535879477     -1.44344280068877      0.84955489219881
  O   1.35325439481292     -2.18599196665675     -0.08171300687873
  O   0.87960627009287     -1.73718358488967      2.01687901375031
  C   1.37590585341842      0.30814133926202     -0.83848123177998
  N   1.76680767949515      0.61361452890892     -1.90474997082727
  N   -1.35113238697593     -0.69321189359092     -0.31932444471371
  O   -1.45438852921024     -0.38158778367805     -1.50077594929156
  O   -1.71093187754296     -1.74337059339483      0.20443387668108
  N   -1.11465102504673      1.60942509116639      0.20509034148550
  H   -0.86631248197613      2.31071662124988      0.88745105898606
  H   -0.80817790895229      1.86921754068430     -0.72394014444765
