15
Coordinates from ORCA-job run
  C   0.79851005850102     -0.23557207462053      0.74162531819193
  C   -0.55955358102408      0.45687904801185      0.46312902765425
  Cl  0.84307323017154     -1.30277954752402      2.14258261307037
  H   -0.69687453673122      1.20181094048519      1.24913099373179
  N   1.17581986022056     -1.08859615341586     -0.47824083300420
  O   0.26784542175213     -1.78247366211673     -0.91540486642059
  O   2.32792667510228     -1.02532608435665     -0.87495850636506
  C   1.79597974251597      0.81680806919032      0.89571768699573
  N   2.55478598195656      1.69548799906786      1.07790609447461
  N   -1.76541336707350     -0.47993616076912      0.64492866698500
  O   -2.36882388355162     -0.82110341488780     -0.36432119676287
  O   -2.05610212815655     -0.75553002474759      1.80323820287657
  N   -0.48788445932355      1.05611048081968     -0.81564043291261
  H   -0.74434565998467      0.39456622579694     -1.53936071124615
  H   -1.08294335437485      1.86965435906647     -0.88333205726878
