15
Coordinates from ORCA-job run
  C   0.78822695951367     -0.16613227214109      0.77841470582907
  C   -0.57937234877285      0.46023901764678      0.40988944410316
  Cl  0.82654684623402     -1.10168041267645      2.27140027225303
  H   -0.75945357849503      1.25919809772829      1.13184177508167
  N   1.22349223597787     -1.11621019058241     -0.34688312755416
  O   0.33509569927648     -1.83504611349425     -0.78403008434199
  O   2.40006204566444     -1.09944916615857     -0.66999372356178
  C   1.75489062655507      0.92263017988944      0.85937618144196
  N   2.48838703070128      1.83299557395780      0.97854644930962
  N   -1.76574400719608     -0.49383040340337      0.63188261437048
  O   -2.34041808880785     -0.91572973989140     -0.36332126522843
  O   -2.07416850159504     -0.69838922605391      1.80028740255655
  N   -0.48759838390519      0.96309676175489     -0.90885796717828
  H   -0.70122018420990      0.24001766362316     -1.58625498911882
  H   -1.10772635094086      1.74729022980108     -1.05429768796207
