15
Coordinates from ORCA-job run
  C   0.60672988477867     -0.49995054579910      0.57944729516465
  C   -0.43171988807799      0.47222726849603     -0.01196819168646
  Cl  -0.09115978602698     -2.08307108942924      0.86149744774579
  H   0.03763495944696      1.45430454216255     -0.08345368103894
  N   1.70610918155799     -0.57595630463968     -0.52781505155548
  O   1.89139521891588     -1.63204914122059     -1.09457153811593
  O   2.26262640103073      0.49591408799826     -0.71306694548191
  C   1.26534561689436     -0.00821522138056      1.77968686676578
  N   1.83673320530805      0.35301942412001      2.74183793387495
  N   -1.54133897263553      0.64248283782586      1.03719011659255
  O   -1.24662873059012      1.30604952754509      2.02592871400031
  O   -2.61974072408359      0.11054270654353      0.80017223366308
  N   -0.86592310523169      0.01501862368653     -1.26883735224137
  H   -1.47227684731971     -0.79134602199284     -1.19048800797971
  H   -1.33578641396705      0.74202930608415     -1.78955983970732
