15
Coordinates from ORCA-job run
  C   0.70683149684983     -0.35495968203114      0.57288467357717
  C   -0.51527426759757      0.37312440593451     -0.01982811958988
  Cl  0.27997310222608     -1.95990730849701      1.13414538016506
  H   -0.20806504174229      1.39080080663508     -0.26439057292044
  N   1.69743247894289     -0.44119933122178     -0.63069079109217
  O   1.98645135585170     -1.53368858264349     -1.07136379258595
  O   2.06489228896399      0.65795693039216     -1.01805970466597
  C   1.39204791300669      0.39004868436843      1.61778916939975
  N   1.98703356089652      0.96441451665155      2.45375287312136
  N   -1.54013766950478      0.53323143499589      1.11376041851590
  O   -2.54694860265842     -0.16347404016605      1.05825887676430
  O   -1.25857109705010      1.35656499458253      1.97834591104640
  N   -0.98601309374191     -0.31062337360281     -1.15511332565506
  H   -1.60096908038502      0.26736627816660     -1.71023381112585
  H   -1.45968334405760     -1.17065573356446     -0.91025718495461
