15
Coordinates from ORCA-job run
  C   0.56316045976762     -0.45733442088380      0.62081468962546
  C   -0.50123774921778      0.49387419760633     -0.01052560502120
  Cl  -0.13696539453968     -1.99387189652050      1.07837760649805
  H   -0.00360880115897      1.44598172906781     -0.19626541481510
  N   1.58243278556682     -0.64900278632946     -0.53592316803820
  O   2.16984265803643      0.38239124735303     -0.83499674107413
  O   1.66692773248030     -1.73930325499133     -1.06956941442589
  C   1.29042543197613      0.13173710123367      1.73278614159147
  N   1.89379923827086      0.58601430786368      2.63444012295905
  N   -1.52241793234128      0.76895733594712      1.07464885552536
  O   -1.19820412563793      1.61217436964041      1.90715702292096
  O   -2.55918689865050      0.11957701602875      1.04532847546943
  N   -1.14079921719923      0.02586892930602     -1.17265311161709
  H   -0.61431936907581      0.18964456334870     -2.01678112989306
  H   -1.49084881827698     -0.91870843867043     -1.10883832970509
