15
Coordinates from ORCA-job run
  C   0.81134290147129     -0.02794518830372      0.73894569986995
  C   -0.68448390381017      0.28891690765030      0.52949786234570
  Cl  1.33440281960471      0.61531356943658      2.28760939957264
  H   -1.23719436534025     -0.13735983952825      1.36763595464840
  N   0.95783141026847     -1.56649663204123      0.76896395843748
  O   1.47867594541978     -2.07756595190642     -0.21260709755089
  O   0.49007204705415     -2.12047058044726      1.74818573981759
  C   1.62507080287494      0.51554635168286     -0.33747559763325
  N   2.24527102762374      1.02921246459716     -1.19432461004827
  N   -1.13558208694066     -0.52105411514548     -0.70143438963028
  O   -1.55630283424412     -1.65461980567239     -0.49049117794645
  O   -1.03430073203464      0.03843674945969     -1.78899029443983
  N   -0.88358456085887      1.67534258896670      0.39892535150340
  H   -0.55871425881637      2.01456352918088     -0.49916245824959
  H   -1.85250421227201      1.92917995207057      0.53172165930340
