15
Coordinates from ORCA-job run
  C   0.62475881401250     -0.57877273760157      0.38254638085991
  C   -0.45467728736576      0.50017425767910      0.17300998022605
  Cl  0.03455247288138     -2.16613955035158     -0.07019573439004
  H   -0.05917352275613      1.44332602951770      0.55231165363204
  N   1.77723263267202     -0.13043484266743     -0.57138128501334
  O   2.06828805652206     -0.84214362021975     -1.50932645329236
  O   2.25850468635232      0.94693307861736     -0.25419998855520
  C   1.18726370927991     -0.60362709816151      1.72397466813674
  N   1.68409687891842     -0.65186060415263      2.78865971649955
  N   -1.62321603953870      0.15975982785373      1.11135479113995
  O   -1.42676313481063      0.35948926141762      2.30565184669089
  O   -2.64612465532432     -0.27400840124118      0.59400863690609
  N   -0.79260203674686      0.59267251175629     -1.18887826204240
  H   -1.33911799743685     -0.20090731389660     -1.49827491217733
  H   -1.29302257665939      1.44653920145045     -1.39226103862055
