15
Coordinates from ORCA-job run
  C   0.71271690285366     -0.27222300370783      0.62530013052801
  C   -0.50756122843220      0.31553222445355     -0.10847346289405
  Cl  0.22859131935319     -1.47879362637747      1.80112493119673
  H   -0.15001603853116      1.11550526749591     -0.75803612857954
  N   1.54570838946386     -0.92873021755285     -0.52133414869249
  O   1.69089655288045     -2.13285349665253     -0.52113953436630
  O   1.95515406077802     -0.11208943444232     -1.33266349862661
  C   1.57453340714214      0.72622401964812      1.23929275335995
  N   2.31039293056638      1.49611131779765      1.73784527619763
  N   -1.37201505576680      1.02390106976674      0.94663481334704
  O   -2.42720070019531      0.48354674002863      1.25755451835748
  O   -0.92555356113743      2.07949732546329      1.38392917443891
  N   -1.16579326352897     -0.68883557360680     -0.84018264930245
  H   -1.79849883571228     -0.29874730320473     -1.52450589924407
  H   -1.67035487973355     -1.32704530910936     -0.23834627572022
