15
Coordinates from ORCA-job run
  C   0.76230015950738     -0.21741350303228      0.77324160768045
  C   -0.57621886778875      0.49364291431466      0.49252993804306
  Cl  0.68684139698501     -1.00747464236176      2.33885203901994
  H   -0.80758150601313      1.08480219995731      1.38004883159018
  N   1.11885307919860     -1.25896514885739     -0.33415030485152
  O   1.47134190943032     -2.36767976966354      0.00409318448061
  O   1.04737133792892     -0.80498610498281     -1.46750265234015
  C   1.84062800296489      0.76214638406016      0.75064673467575
  N   2.72335700688784      1.53841453617438      0.75805441564851
  N   -1.70081230824301     -0.54617692885650      0.45679781142296
  O   -2.79862565734464     -0.13072900946835      0.81390222861499
  O   -1.45057725256622     -1.65908838469801      0.00296373824791
  N   -0.54922367858170      1.33497795847745     -0.63984436868235
  H   -1.35638935862792      1.94193325846398     -0.67455330844341
  H   -0.41026426373760      0.83659624047269     -1.50707989510695
