15
Coordinates from ORCA-job run
  C   0.83766150668019     -0.00598283185235      0.67822017877180
  C   -0.66127477990885      0.32197692693350      0.55148224018815
  Cl  1.44015764364060      0.66316837251745      2.19441500516704
  H   -1.15881564292046      0.02635432662607      1.47406290068713
  N   0.97449019260073     -1.53878607025240      0.75587728159487
  O   1.72312231455421     -2.07677145734572     -0.04732482211652
  O   0.29740650108746     -2.06807992441868      1.62506565691466
  C   1.62677588622232      0.50196951789311     -0.43233416086853
  N   2.24871798463609      0.99591330285017     -1.29910291796870
  N   -1.24389739454362     -0.60231828276233     -0.52064414715898
  O   -0.79323060984928     -0.45354234174931     -1.65545469819457
  O   -2.13376398767607     -1.37449844942611     -0.17630013777133
  N   -0.83615709846188      1.69200958106295      0.26293335245820
  H   -1.78819614831579      1.99529766499296      0.41431914553605
  H   -0.53399636774567      1.92428966493071     -0.67621487723926
