14
Coordinates from ORCA-job run
  C   0.77696870575896      0.40889804205572      0.47782386902162
  C   -0.19866481208271     -0.35484617857208     -0.46395551937216
  Cl  0.38722783627918      2.15491312788028      0.50647133584563
  H   0.14109769934414     -1.39855285611763     -0.45683898944377
  C   0.65540289919437     -0.12799322942815      1.83568731168898
  N   0.53559082112644     -0.58477058436371      2.91213039653405
  C   2.15429261448259      0.24118168705537      0.00803592853511
  N   3.24985117343200      0.07926744831350     -0.38611217194101
  C   -0.04539291562626      0.15642936418848     -1.82657780310230
  N   0.04518979056599      0.56484674162339     -2.92377513531238
  C   -1.65451013472920     -0.28984717297806     -0.00067239399856
  H   -1.75338707714311     -0.70068008673205      1.00545294801891
  H   -2.02151113763141      0.73605705528967     -0.00927658964682
  H   -2.27115546297097     -0.88290335821473     -0.67739318682733
