14
Coordinates from ORCA-job run
  C   0.64286277510485      0.32019171270064      0.69779436449699
  C   -0.16138944560353     -0.00599995852076     -0.59411432491295
  Cl  -0.40504042950151      1.12207569322053      1.90641433904340
  H   0.56452781036793     -0.44561598089801     -1.29011956328576
  C   1.16048136558347     -0.92576573831712      1.26923709174193
  N   1.55979663389659     -1.94608259379687      1.69479253886850
  C   1.75934638833846      1.21201027871819      0.37527565229495
  N   2.65331871995983      1.91655299490011      0.08163450277923
  C   -0.64716476843825      1.24210973931223     -1.18370884750726
  N   -1.06651175091909      2.22650010859703     -1.66776471261111
  C   -1.30344770003632     -0.99497448135617     -0.35740149315746
  H   -1.79098088420039     -1.21078228190684     -1.30915202202626
  H   -2.04512093085141     -0.57877978566242      0.32377337506797
  H   -0.91967778370065     -1.93043970699055      0.05333909920783
