14
Coordinates from ORCA-job run
  C   0.98612753540113      0.05907080618030      0.43442350482129
  C   -0.01809021419406     -0.28888876743333     -0.69849605670904
  Cl  2.64210235293783      0.13836304917967     -0.23774241765187
  H   0.32966823395393     -1.23414038218607     -1.13069783695735
  C   0.64610265734856      1.34982736310118      1.03649579803944
  N   0.33583320238719      2.38133907658990      1.50714513152529
  C   0.94521561474756     -0.99074183362848      1.45570020423099
  N   0.88576721943423     -1.85531360225588      2.24979431226955
  C   0.04838319539138      0.74270988873886     -1.73431823771280
  N   0.05626219968801      1.57080555373305     -2.56696141148726
  C   -1.44705894898089     -0.43880277749491     -0.16953997319029
  H   -1.79801329991063      0.49507772771935      0.27353653064620
  H   -2.11146746378828     -0.69580494295900     -0.99585108156869
  H   -1.49983228441603     -1.23450115928470      0.57551153374449
