14
Coordinates from ORCA-job run
  C   1.04930025398770      0.01954540682469      0.25284645118988
  C   -0.17223528205839     -0.43806229630743     -0.59087754406290
  Cl  2.55676661543226     -0.29523302805894     -0.65775557515543
  H   -0.00418757455725     -1.49750953755818     -0.81568971936905
  C   0.95455898575783      1.45000726678904      0.55094862274327
  N   0.84130242899024      2.59650459686575      0.78434320289193
  C   1.08735575464596     -0.74711425351662      1.50082956274477
  N   1.08144657772964     -1.38761633959627      2.48631746965527
  C   -0.19086632658608      0.30277084130200     -1.85272889434598
  N   -0.25014423800293      0.90266905099016     -2.86057343722230
  C   -1.49032375398732     -0.25677359193846      0.16682713145809
  H   -1.66242685958425      0.79509529611055      0.40247261829757
  H   -1.48594838439029     -0.83783843900715      1.09048711307186
  H   -2.31459819737713     -0.60644497289913     -0.45644700189699
