14
Coordinates from ORCA-job run
  C   0.67291736390315      0.38232416647006      0.63375634618500
  C   -0.18122725965445     -0.07457184847381     -0.58420757569577
  Cl  -0.31265737308371      1.35840686006699      1.76422779911571
  H   0.50893528248614     -0.62185895224013     -1.23913488700943
  C   1.17476712841330     -0.80020741367932      1.33856397982623
  N   1.56081582295152     -1.77426403410672      1.87111677058403
  C   1.80312157631212      1.19274371969779      0.17375945512317
  N   2.70864575580404      1.82783194381201     -0.22452183744476
  C   -0.64738014073736      1.10596715883453     -1.31235241694562
  N   -1.05131613409800      2.03707891324947     -1.90303729200652
  C   -1.34397762420361     -0.98772394783599     -0.19337516580766
  H   -2.05215267808448     -0.46491123030842      0.44888383951555
  H   -0.97494754142898     -1.87565507742633      0.32281760934680
  H   -1.86654417857968     -1.30616025806013     -1.09649662478673
