14
Coordinates from ORCA-job run
  C   0.75420068373492     -0.10014260044019      0.70454466689749
  C   -0.25186358656926     -0.50107225517401     -0.41261543689902
  Cl  0.38236466945192     -1.03605843782155      2.18809559687141
  H   -0.15331942790179     -1.58641482494303     -0.53026109060788
  C   2.12259715301879     -0.42256653952187      0.29435937357604
  N   3.21044049419431     -0.70375640408119     -0.05137827745815
  C   0.64220060370392      1.32898561744694      1.00236557487431
  N   0.51740429173361      2.47712556912842      1.22131773852085
  C   0.16726431777120      0.13944989654132     -1.66126188818995
  N   0.47647900326996      0.66865278801175     -2.66346343832394
  C   -1.69762706907250     -0.13143495740408     -0.07711517583340
  H   -1.80572825979524      0.94913542590793      0.03137298444177
  H   -2.01682459187967     -0.62040444880218      0.84283083030566
  H   -2.34758828166015     -0.46149882884825     -0.88879145817519
