14
Coordinates from ORCA-job run
  C   1.02006195672214      0.03037215375402      0.34919508816855
  C   -0.09605561551212     -0.34577951433096     -0.66375459004807
  Cl  2.61487703097926     -0.06085304884926     -0.45733317533899
  H   0.15495301295366     -1.34742144871411     -1.03078245180322
  C   0.81222628248536      1.38843709581027      0.85557394508498
  N   0.60819377406397      2.47631353393907      1.25140981095720
  C   1.00394401989310     -0.92422571466867      1.46057793795508
  N   0.96208209693163     -1.71711514041710      2.32723073331696
  C   -0.05362441802755      0.58186690286376     -1.79437417654748
  N   -0.06172956935032      1.32565657705560     -2.70307594537077
  C   -1.48149765711767     -0.34867783169250     -0.01209399391515
  H   -1.51996420062650     -1.06925226959180      0.80622861363523
  H   -1.73495750007404      0.64271707715337      0.36738155260090
  H   -2.22850921332089     -0.63103837231168     -0.75518334869521
