14
Coordinates from ORCA-job run
  C   0.75854856886962     -0.11537339702087      0.69731219121190
  C   -0.25228332386829     -0.49018778264651     -0.42483799965046
  Cl  0.39901021314725     -1.09192242330875      2.15719540439580
  H   -0.14869134961754     -1.57125897992382     -0.57351248688958
  C   2.12523975565925     -0.42195763466953      0.26955636275321
  N   3.21061142929456     -0.69208534467834     -0.09234485547307
  C   0.64310120520799      1.30485593687509      1.03394753256995
  N   0.51768032805778      2.44584807517403      1.28719067774754
  C   0.15673786837839      0.18773653528721     -1.65701841654961
  N   0.45843645284311      0.74735724145864     -2.64486727072646
  C   -1.69797979450012     -0.13809922669911     -0.07091677904188
  H   -1.81072833277671      0.93809709815835      0.07136639598136
  H   -2.35049772375395     -0.44620844130107     -0.88914995514510
  H   -2.01018529694133     -0.65680165670532      0.83507919881639
