14
Coordinates from ORCA-job run
  C   1.04495379884705      0.01015345861990      0.26781914018127
  C   -0.17650378089759     -0.48061694285056     -0.55688258345173
  Cl  2.55603588274581     -0.41963368611307     -0.58863632373303
  H   -0.03526520461473     -1.55879629881217     -0.69366803056531
  C   0.98698538118470      1.46229255098712      0.44710603948885
  N   0.89924553296346      2.62664679161141      0.58275585154823
  C   1.04384232344147     -0.65183637971959      1.57484529920303
  N   1.01008824421141     -1.20541137490040      2.61115632759324
  C   -0.15494447285013      0.15745278237519     -1.87355817455915
  N   -0.18051039328492      0.68079855444705     -2.92450185214245
  C   -1.49980865925612     -0.20345516491118      0.16163614008198
  H   -2.32497377931474     -0.57649977783091     -0.44683038173405
  H   -1.52647044809487     -0.71113506858946      1.12724967177250
  H   -1.64367442508079      0.86804055568668      0.31250887631660
