14
Coordinates from ORCA-job run
  C   0.73060758623030     -0.12655761230294      0.72588116880020
  C   -0.23708796554915     -0.48438971511920     -0.43927302589574
  Cl  0.30914278398230     -1.11633320785013      2.15991306469327
  H   -0.13259263002034     -1.56430826655074     -0.59538964465047
  C   2.11144351761465     -0.43558838134278      0.34844033497462
  N   3.20877988636585     -0.70647796319612      0.02495159979816
  C   0.60785154246856      1.29068335290720      1.07219488290102
  N   0.47276899823277      2.42941438218885      1.33085464076729
  C   0.22304558525874      0.20478856117784     -1.64689414155860
  N   0.56526528014379      0.77401285147601     -2.61583940347637
  C   -1.69415685149235     -0.12910452281636     -0.13891636131398
  H   -2.04534293083593     -0.65808591579071      0.74666786645552
  H   -1.80729787476129      0.94568441117054      0.01337439517534
  H   -2.31442692763793     -0.42273797395145     -0.98696537667026
