14
Coordinates from ORCA-job run
  C   0.69754157598908      0.26323111541287      0.66826191547097
  C   -0.21118025568485      0.04857639189088     -0.57673521915690
  Cl  -0.24896380358878      0.93364414071526      2.03100854177838
  H   0.45621735835873     -0.31089317556542     -1.37046722105299
  C   1.26890203334613     -1.02336876351842      1.07466455133504
  N   1.70683577891423     -2.07356818986892      1.36903312845154
  C   1.77749104191949      1.19677777511222      0.33971421297586
  N   2.63974860603743      1.93655474182455      0.03793127585349
  C   -0.75610586393815      1.33897694127276     -1.00029695143972
  N   -1.22407624660100      2.35795508209944     -1.34952598459081
  C   -1.32054328595445     -0.97726620948998     -0.34087073342703
  H   -1.88936923821857     -1.10574313019677     -1.26285340785766
  H   -0.89468985836592     -1.94229234487850     -0.06085252942158
  H   -2.00180784221338     -0.64258437480996      0.44098842108141
