14
Coordinates from ORCA-job run
  C   0.71366880075299     -0.07094882196394      0.74859783764057
  C   -0.22004922509800     -0.51437140379300     -0.41458184027855
  Cl  0.27158788845113     -0.97941300366528      2.22996437104992
  H   -0.09951889384616     -1.60058721751828     -0.49871348837405
  C   2.10821235334231     -0.37945447411309      0.42484034322901
  N   3.21834983518885     -0.65035298719512      0.14888567945495
  C   0.56161882948357      1.36232463951308      1.00639528208307
  N   0.40417011598336      2.51149058656532      1.19647105455993
  C   0.26247778461075      0.10156461057826     -1.65257626158543
  N   0.62387132842776      0.60932691915567     -2.64839673664573
  C   -1.68790399083256     -0.15954551953917     -0.17227246741642
  H   -2.05258700179930     -0.63128864340685      0.73977462326352
  H   -2.28509670979245     -0.51922857775215     -1.01145201870416
  H   -1.81780111487227      0.92148389313455     -0.09693637827665
