14
Coordinates from ORCA-job run
  C   0.77276888213052     -0.31229920262184      0.68427565278908
  C   -0.46797390427720     -0.55144723084322     -0.21925952821464
  Cl  1.56321062822565     -1.87735944987576      1.04094127426321
  H   -1.10747159438397     -1.25521440755053      0.32564679873799
  C   1.72915271224593      0.56982767820599      0.01249319375879
  N   2.46918276869411      1.29077836810918     -0.54816424161888
  C   0.34145950489927      0.29172391059488      1.94755349785283
  N   -0.04569349283832      0.76828040466556      2.94982199859927
  C   -0.04041943351516     -1.18827708143736     -1.46547825330035
  N   0.27647649207630     -1.67174677278851     -2.48771052796628
  C   -1.22667641527194      0.74764570482449     -0.50368660097197
  H   -0.59500443531314      1.45775150155678     -1.04049485817518
  H   -2.09678547514476      0.52775641245459     -1.12395921906586
  H   -1.57222623752730      1.20258016470576      0.42602081331197
