14
Coordinates from ORCA-job run
  C   1.03145302831865      0.06551918284273      0.31171790644558
  C   -0.11431873411816     -0.42003880427182     -0.61818159220563
  Cl  2.60161077232692     -0.12306908005996     -0.52381334909237
  H   0.12490102636581     -1.45813937056508     -0.87592296647959
  C   0.83696289584456      1.47283812467079      0.66685526885147
  N   0.64048188521520      2.59662434111697      0.95001168379113
  C   1.04548935531089     -0.75380744269410      1.52647803276242
  N   1.02376590041908     -1.43536428262514      2.48376621321633
  C   -0.10540978503430      0.37248491640858     -1.84850473842483
  N   -0.13917173784700      1.00879069559633     -2.83499691551230
  C   -1.48010437482897     -0.34262101623344      0.06966646800453
  H   -1.72503965766523      0.68782048097757      0.33352320246603
  H   -2.24753588234277     -0.71236003241011     -0.61183643213396
  H   -1.49308469196467     -0.95867771275330      0.97023721831118
