14
Coordinates from ORCA-job run
  C   0.69724186950460      0.37659190234761      0.61151154728460
  C   -0.19443795044881     -0.08074445177608     -0.57936929070624
  Cl  -0.23447296767463      1.41036851690521      1.73613230946093
  H   0.46608420228927     -0.66102324196135     -1.23619469812164
  C   1.17410345364521     -0.80522552066154      1.33490920527780
  N   1.53800195068732     -1.77825769871495      1.88465935821201
  C   1.84345858197732      1.13892582186323      0.11063059291828
  N   2.76048142802373      1.73553827684101     -0.31938773355367
  C   -0.64255025018351      1.09736999678279     -1.32235911483373
  N   -1.03382707387047      2.02610641377536     -1.92510662775192
  C   -1.37420960112272     -0.95183334697660     -0.14571509536617
  H   -1.93204322074910     -1.26319481739082     -1.02981869105298
  H   -2.04675854152193     -0.39948187071521      0.50961537924743
  H   -1.01907188055627     -1.84513998031866      0.37049285898529
