14
Coordinates from ORCA-job run
  C   0.78434325915675      0.27884698634923      0.55630680048531
  C   -0.20704602746972     -0.32485100192228     -0.48058409341814
  Cl  0.70937792750359      2.06631002379663      0.53294441957745
  H   -0.05892252503407     -1.41134381007229     -0.43179931824289
  C   0.42572755935219     -0.19506755753604      1.89548653470662
  N   0.10587559009127     -0.59926194060351      2.95185205468143
  C   2.15145545831359     -0.14001731540637      0.23839563753250
  N   3.23526560241351     -0.50353523274879     -0.03553102391400
  C   0.17420909407052      0.11861182737197     -1.82200076821040
  N   0.44615276332453      0.47572842626177     -2.90714765218450
  C   -1.66906868760669      0.00392291827860     -0.17571759398544
  H   -1.84623220672284      1.07796450431021     -0.22540175354310
  H   -1.94402643323548     -0.36256582022250      0.81480935157650
  H   -2.30611137415716     -0.48574200785662     -0.91361259506134
