14
Coordinates from ORCA-job run
  C   0.74100157556121     -0.08845029491430      0.72078622159440
  C   -0.23240767985680     -0.50469150458052     -0.41993582516955
  Cl  0.35385151642934     -1.03432515504883      2.19362635126607
  H   -0.10920953439573     -1.58713962720748     -0.54063758798907
  C   2.12368238767637     -0.38491774239770      0.33965481517145
  N   3.22431936962543     -0.64554994883636      0.01931939847760
  C   0.59514412174246      1.33787961555892      1.01752249145660
  N   0.44281984675385      2.48315665232543      1.23368602611258
  C   0.20026057621640      0.15233735705518     -1.65535609202140
  N   0.51799293303213      0.69724764547013     -2.64635596090179
  C   -1.69239898691976     -0.16607341464271     -0.11456021341446
  H   -2.02194992585919     -0.66624027344975      0.79560456591083
  H   -1.82459357589209      0.91150939567058     -0.00328215127819
  H   -2.31751262411361     -0.50474270500259     -0.94207203921506
