14
Coordinates from ORCA-job run
  C   0.99609846938361      0.05403309861620      0.41030561130256
  C   -0.04472611589133     -0.34264661774332     -0.67235727247476
  Cl  2.63923829271815      0.01415782848741     -0.29625155527049
  H   0.25702708217715     -1.33253333568709     -1.03338780192634
  C   0.71849634000223      1.40111043219803      0.91281554759311
  N   0.45916400378743      2.47904272867467      1.30347397900353
  C   0.93769817228522     -0.90828136930073      1.51355928377599
  N   0.86203462443747     -1.69932069380326      2.37957461211965
  C   0.04038854355866      0.59851784762767     -1.78972978647261
  N   0.06867737136674      1.35274591233578     -2.68947307975949
  C   -1.46680155906537     -0.39239167373950     -0.10728842297706
  H   -1.77490785889418      0.58889390780423      0.25857735173014
  H   -2.15690208983097     -0.69541092617851     -0.89618927907731
  H   -1.53248527603483     -1.11791713929157      0.70537081243307
