14
Coordinates from ORCA-job run
  C   0.74966140300661     -0.10550846864868      0.70675992734539
  C   -0.23327606026989     -0.48819878186628     -0.43717356895967
  Cl  0.38592425110994     -1.10540747941462      2.15031897330306
  H   -0.09739720633989     -1.56293696836523     -0.60377750742460
  C   2.12977684731204     -0.37939814307383      0.29963196959016
  N   3.22643361821887     -0.62660726119576     -0.04375324664636
  C   0.59912816572440      1.30836231870003      1.05725997606392
  N   0.44734942994977      2.44337830912572      1.32251783692680
  C   0.17607013315801      0.22370878236935     -1.64970186348876
  N   0.47747251423858      0.80880063308471     -2.62269958314087
  C   -1.69339098514351     -0.18281584662376     -0.09982091677080
  H   -2.32337859500140     -0.47569534965440     -0.94055760858117
  H   -2.00990518172879     -0.74083786134959      0.78030869814597
  H   -1.83446833423474      0.88415611691235      0.07868691363692
