14
Coordinates from ORCA-job run
  C   1.04213419293651      0.03467889601373      0.27597627971498
  C   -0.15873197379823     -0.47568662700550     -0.56679115003987
  Cl  2.57093468855263     -0.33850626912854     -0.57541985088879
  H   0.01423502162642     -1.54673269369875     -0.72199844930644
  C   0.94306688122260      1.48153696848045      0.47838390226929
  N   0.82590396881971      2.64105147299768      0.63196718142855
  C   1.04979895881979     -0.64863824433830      1.57199601960166
  N   1.02721728954162     -1.21952178999296      2.59921003702830
  C   -0.14711341352185      0.18738201521932     -1.87130026454461
  N   -0.18321691913913      0.72935206465903     -2.91247506515372
  C   -1.49466319416692     -0.24931566403457      0.14630914091700
  H   -1.67033772513972      0.81480912853644      0.31499540535554
  H   -2.30412519852083     -0.63464264815506     -0.47542584154793
  H   -1.51410257723261     -0.77476660955298      1.10257265516605
