14
Coordinates from ORCA-job run
  C   0.77533308616971      0.44739987850392      0.44997867706451
  C   -0.19419897156843     -0.40751157986845     -0.41700476248571
  Cl  0.45543984722805      2.19233002289155      0.21878657283781
  H   0.10186366841765     -1.45075097743955     -0.24730238950916
  C   0.57874078022014      0.10913826324293      1.86201287213273
  N   0.39004033324359     -0.19443311230449      2.98160698935968
  C   2.16136448029470      0.16693188802288      0.06779495251466
  N   3.26353644191494     -0.08786341103605     -0.25143333908872
  C   0.03231045772337     -0.10455764673308     -1.83066081161251
  N   0.18005276011912      0.13047435228174     -2.97172824747762
  C   -1.66298920994613     -0.22648353403452     -0.03232441273890
  H   -2.27641336115903     -0.88697719379983     -0.64676162676874
  H   -1.98709981992732      0.80030070755781     -0.19987475923198
  H   -1.81798049273034     -0.48799765728487      1.01591028500395
