14
Coordinates from ORCA-job run
  C   0.76221790448495      0.33361802665648      0.55835345035004
  C   -0.18158445630774     -0.34635011156480     -0.47552884732183
  Cl  0.58953769885782      2.11340537101841      0.49421324364006
  H   0.02675155452296     -1.42147735090034     -0.40248162286953
  C   0.41391438863749     -0.13002536113523      1.90398775271661
  N   0.10250548911164     -0.52728719753941      2.96549125052376
  C   2.15417478689379     -0.01614321316555      0.26513831900062
  N   3.25899436409013     -0.32763223401807      0.01171621098869
  C   0.18705945196418      0.09165143292804     -1.82231188004046
  N   0.44213678490681      0.44541912998471     -2.91254671446006
  C   -1.66324844221394     -0.09402820720350     -0.19282569781794
  H   -1.89896613411179      0.96717013328682     -0.26629484218123
  H   -1.92927299117466     -0.45566340272993      0.80172119863418
  H   -2.26322039966164     -0.63265701561763     -0.92763182116293
