14
Coordinates from ORCA-job run
  C   0.71991243571573     -0.07529525819627      0.74392267446526
  C   -0.20986849644712     -0.50701325716164     -0.42701252927157
  Cl  0.31003945771725     -1.03805433093074      2.19939904416565
  H   -0.06330943123755     -1.58718235082588     -0.54367578929220
  C   2.11898404705094     -0.33974577171012      0.40141814144083
  N   3.23202227465026     -0.57593869269804      0.10599066535417
  C   0.53438571897377      1.34550106883727      1.04424154386385
  N   0.35024625643403      2.48516712707152      1.26561108681425
  C   0.25018969787899      0.15602127632251     -1.64943549064165
  N   0.59245133009443      0.70115157634035     -2.63208912011942
  C   -1.68460352358500     -0.19580675431823     -0.16721598312920
  H   -2.03143732825289     -0.69876624181556      0.73525296486963
  H   -2.27769900767062     -0.55057922589207     -1.01147968044185
  H   -1.84131343132224      0.87954083497690     -0.06492752807776
