14
Coordinates from ORCA-job run
  C   0.78004588333903      0.42974773207619      0.45827777348205
  C   -0.19972156513302     -0.40139127210325     -0.41989841461387
  Cl  0.49435574252846      2.18180615642316      0.23537399574999
  H   0.07418451662196     -1.45119546690369     -0.25347816099119
  C   0.56882723966447      0.08735126446075      1.86724625952104
  N   0.37167729101907     -0.21865880324347      2.98487585003933
  C   2.16309522689420      0.12614799649519      0.08300378395606
  N   3.26113554930845     -0.14659747465266     -0.23602678370737
  C   0.04294817089353     -0.09625156405158     -1.83031432431174
  N   0.20473184328247      0.13778730120301     -2.96944653597355
  C   -1.66734668552845     -0.19314072701734     -0.04468868462540
  H   -2.28882634929230     -0.84049959703961     -0.66494879203570
  H   -1.83435088497985     -0.45407324236019      1.00172630831055
  H   -1.97075597861802      0.83996769671350     -0.21170227480021
