14
Coordinates from ORCA-job run
  C   0.77979939190053      0.35807344406432      0.51603694001142
  C   -0.20535272187820     -0.39465051376500     -0.42474844083318
  Cl  0.72265607421190      2.11977237640425      0.20926787883590
  H   -0.07098539042960     -1.46044231794544     -0.19940605916590
  C   0.40177027799198      0.10404151177961      1.90876787552177
  N   0.06805427619067     -0.12793736520830      3.01158293461471
  C   2.14640303252978     -0.11679109132913      0.28635178170888
  N   3.22961513356625     -0.52850710160401      0.08883848592434
  C   0.19816071995541     -0.17707599046719     -1.81434986962278
  N   0.48762081721768     -0.00371170733989     -2.93920440024948
  C   -1.66720351074516     -0.00712982376084     -0.19792017998485
  H   -1.83140639902788      1.04615947426419     -0.42362939429088
  H   -1.95870711243661     -0.20544317090106      0.83494710095314
  H   -2.30042458904675     -0.60435772419151     -0.85553465342311
