14
Coordinates from ORCA-job run
  C   0.72164747001419     -0.11430157352942      0.73671998364297
  C   -0.23035297381988     -0.49068215863513     -0.43538627222106
  Cl  0.28570059128839     -1.08643639087496      2.17860769845461
  H   -0.12187884426044     -1.57247791280346     -0.57507195459118
  C   2.10798467161852     -0.42434884795699      0.38078965001074
  N   3.20912936210702     -0.69940945750535      0.07455778729189
  C   0.59006496988584      1.30693707588058      1.06297291383493
  N   0.44920395874088      2.44826350723847      1.30595054896342
  C   0.24436407360259      0.18148036001535     -1.64703127791476
  N   0.59910169514428      0.73503858265395     -2.62056200080629
  C   -1.69161798277913     -0.13404371963826     -0.15858769538606
  H   -2.30208876072734     -0.44837911174908     -1.00642505195362
  H   -1.81008352802122      0.94339256468503     -0.03103189279275
  H   -2.05017470279370     -0.64503291778072      0.73449756346715
