14
Coordinates from ORCA-job run
  C   0.99429205217315      0.00701714665269      0.41760222006647
  C   -0.07652290663118     -0.41702696138936     -0.62466522928598
  Cl  2.62813770731183     -0.28101269134712     -0.25211712684112
  H   0.12562851617366     -1.46942677854297     -0.85467254060565
  C   0.85005982027665      1.42660188237708      0.74630280813010
  N   0.69705483351513      2.56486727269207      0.99688101793829
  C   0.83691547331178     -0.80267096153449      1.62855737993775
  N   0.68420077189168     -1.47877489653399      2.57773834158498
  C   0.10678577685756      0.36388646387856     -1.84869751677452
  N   0.21333987328687      0.99347352732403     -2.83432078292237
  C   -1.49873305540845     -0.25387462440528     -0.08151584048746
  H   -1.64086878082181     -0.86160520064392      0.81357102197556
  H   -2.21266423576155     -0.58259950530100     -0.83805319170671
  H   -1.70762584617532      0.79114532677371      0.15438943899066
