14
Coordinates from ORCA-job run
  C   0.77832434185949      0.31620254937929      0.54462114263772
  C   -0.20671198244133     -0.37556210348650     -0.44213150198136
  Cl  0.78552546912989      2.08724567497145      0.28965864934142
  H   -0.11008430806464     -1.45162523651136     -0.24865872253761
  C   0.35718527306765      0.03491913116183      1.91950550998999
  N   -0.01172271462442     -0.21634980146070      3.00685383627345
  C   2.13419147379592     -0.19627409491205      0.33343807859728
  N   3.20785267147120     -0.63823793846022      0.14968717720091
  C   0.23579870710679     -0.12584065248276     -1.81431542156043
  N   0.55655286595686      0.07608918002866     -2.92585862993520
  C   -1.66101874979667      0.05007779701923     -0.23616865712112
  H   -1.98343874670175     -0.17333373545643      0.78226339434954
  H   -1.78729839845695      1.11502343086476     -0.42938438716216
  H   -2.29615590230205     -0.50433420065519     -0.92851046809244
