14
Coordinates from ORCA-job run
  C   0.78537757929403     -0.14974115075019      0.72500166237343
  C   -0.39037088205234     -0.62394815901991     -0.17231552619166
  Cl  1.74914777627882     -1.56454448605323      1.24512897472149
  H   -0.95465056606833     -1.34855643041992      0.42582550105124
  C   1.64676877952242      0.77638133696429     -0.01295975991759
  N   2.30695303641788      1.52769652571535     -0.63058188583731
  C   0.24778030150885      0.51307646637630      1.91593109963849
  N   -0.22386296560232      1.03213416816405      2.85910857687851
  C   0.14720294371118     -1.31384993008213     -1.34574849941415
  N   0.54893084301909     -1.84306729533262     -2.31406075321674
  C   -1.29372323251060      0.53886633669612     -0.59236367950235
  H   -2.11152880734784      0.15598813162393     -1.20454673422246
  H   -1.71994450304704      1.03090136409866      0.28343314871046
  H   -0.73808030312381      1.26966312201929     -1.18285212507137
