14

C	-0.553929	-0.139722	-1.401356
C	0.0	0.0	0.0
Br	0.171423	1.365085	-2.547389
H	1.100757	0.0	0.0
H	-0.116777	-1.031587	-1.8449
N	-1.973067	-0.194076	-1.430653
H	-2.310516	-0.332434	-2.375114
H	-2.361639	0.673215	-1.077348
N	-0.322713	-1.22632	0.731327
H	-1.214052	-1.162871	1.206023
H	0.420725	-1.369247	1.410106
C	-0.518109	1.20719	0.643853
N	-0.976172	2.13739	1.203821
H	2.700333	0.0	0.0
