14

C	-0.34389	0.093596	-1.492523
C	0.0	0.0	0.0
Br	-0.105975	-1.760158	-2.339014
H	1.095808	0.0	0.0
H	-1.398157	0.271203	-1.71137
N	0.49749	1.071509	-2.037302
H	1.463427	0.909199	-1.738732
H	0.42599	1.150477	-3.042053
N	-0.494006	-1.177501	0.700172
H	0.308996	-1.619709	1.135599
H	-1.151195	-0.921926	1.424652
C	-0.449675	1.236382	0.63409
N	-0.847185	2.188517	1.199857
H	2.755542	0.0	0.0
