14

C	-0.418716	0.064327	-1.478354
C	0.0	0.0	0.0
Br	-0.085187	-1.675177	-2.328209
H	1.095096	0.0	0.0
H	-1.494931	0.217882	-1.598334
N	0.307817	1.084721	-2.190756
H	-0.052425	1.99123	-1.910455
H	1.283413	1.02678	-1.897049
N	-0.461658	-1.157564	0.752518
H	-1.177665	-0.910153	1.422299
H	0.342304	-1.526594	1.2517
C	-0.429825	1.261576	0.603528
N	-0.815969	2.259602	1.09461
H	2.749202	0.0	0.0
