14

C	-0.330171	0.099821	-1.497183
C	0.0	0.0	0.0
Br	-0.12499	-1.756989	-2.34548
H	1.095702	0.0	0.0
H	-1.376395	0.299847	-1.729618
N	0.538079	1.060305	-2.029095
H	0.485714	1.140769	-3.034209
H	1.495799	0.880578	-1.712819
N	-0.491694	-1.177559	0.697555
H	0.301259	-1.590627	1.178317
H	-1.195353	-0.933733	1.381974
C	-0.449706	1.238659	0.631257
N	-0.847933	2.191281	1.195642
H	2.756894	0.0	0.0
