14

C	-0.445026	-0.014881	-1.415475
C	0.0	0.0	0.0
Br	-2.750809	0.063939	-1.372265
H	1.095916	0.0	0.0
H	-0.347196	0.917574	-1.960514
N	-0.040249	-1.12219	-2.074894
H	-0.357267	-1.237214	-3.02272
H	-0.070142	-1.94614	-1.487896
N	-0.308459	-1.272795	0.639529
H	-1.216371	-1.24577	1.088991
H	0.419981	-1.456367	1.323385
C	-0.446116	1.179297	0.731057
N	-0.771903	2.100948	1.384278
H	2.581738	0.0	0.0
