14

C	-0.4047	-0.01085	-1.432817
C	0.0	0.0	0.0
Br	-2.676557	0.106148	-1.482915
H	1.095938	0.0	0.0
H	-0.251258	0.919003	-1.971672
N	0.01971	-1.12692	-2.073501
H	-0.267595	-1.243943	-3.030328
H	-0.045221	-1.94839	-1.486224
N	-0.341961	-1.267206	0.631002
H	0.354505	-1.456478	1.34508
H	-1.266543	-1.229705	1.043423
C	-0.455875	1.184695	0.71623
N	-0.790132	2.11153	1.358503
H	2.605831	0.0	0.0
