14

C	-0.197188	-0.041087	-1.50872
C	0.0	0.0	0.0
Br	-2.116936	-0.505151	-2.021832
H	1.100143	0.0	0.0
H	-0.124123	0.964827	-1.934573
N	0.693875	-1.011961	-2.041144
H	1.592629	-0.892546	-1.54417
H	0.843477	-0.855973	-3.028172
N	-0.39372	-1.181271	0.746536
H	-1.279975	-1.52892	0.388847
H	0.315918	-1.8883	0.578882
C	-0.555209	1.213061	0.579153
N	-1.005244	2.201658	1.029042
H	2.693293	0.0	0.0
