14
Coordinates from ORCA-job run
  C   0.91265191398184      0.12646006327158      0.01623580695979
  C   -0.45649149578754      0.02718525305996     -0.02179411511643
  C   1.66089974135706     -0.99358335875808     -0.49247544768771
  N   2.30677971295908     -1.89509804232124     -0.88601249587562
  N   1.68825132082887      1.18485920493677      0.38998333810440
  H   1.21820258289095      1.92223978654161      0.89276560006821
  H   2.64810338807121      0.98828458701270      0.62058214411978
  N   -1.26698724988948      1.09300979114748      0.51982795517631
  O   -2.48596631054658      0.91345052212126      0.54366081452012
  O   -0.71528891764570      2.12603449237720      0.93180208766506
  C   -1.22276868320277     -1.15019094067441     -0.53095229589850
  H   -0.55167211383260     -1.90093371308597     -0.94670810550760
  H   -1.92437372948132     -0.83730080425064     -1.30701205896091
  H   -1.81034015970302     -1.60341684137824      0.27009677243310
