14
Coordinates from ORCA-job run
  C   0.86440586132281     -0.00706514778809      0.20492792080908
  C   -0.46464907167487     -0.01789700587561     -0.02713392228965
  C   1.65621261930925     -1.14400560589637     -0.16524248125262
  N   2.37109721396409     -2.04432616217064     -0.42020364067036
  N   1.50040420551173      1.11206663332066      0.79308710258063
  H   2.35187088740065      0.84568281365014      1.27253043828453
  H   1.68343554836671      1.84338031551661      0.11899255189486
  N   -1.18832023469624      1.18604030069646      0.38810424744309
  O   -1.92558656580028      1.06463786970691      1.36211604151781
  O   -1.02124463055856      2.19795108179805     -0.28884206776382
  C   -1.29420831240353     -1.06230188769437     -0.68265100003913
  H   -0.69601856904027     -1.94842837871472     -0.91006391733785
  H   -1.71297803557365     -0.67843126763230     -1.61379024373096
  H   -2.12342091612783     -1.34630355891673     -0.03083102944562
