14
Coordinates from ORCA-job run
  C   0.88758638471220      0.11247390467348     -0.09252339285258
  C   -0.47192772808380      0.16588030772858     -0.09138921563163
  C   1.74732443079566      1.23624388854037     -0.33669430465368
  N   2.59326258804198      2.04034749988165     -0.48855025385521
  N   1.57223511196975     -1.07930539339039      0.08573559824129
  H   2.55176667980640     -0.98007471386382      0.30089514189672
  H   1.10866264214210     -1.77778416729498      0.64534581572457
  N   -1.14829622034684      1.44515153509293     -0.24691897006472
  O   -0.54481991474882      2.37788370696812     -0.77513360217179
  O   -2.30587894532903      1.49990083180828      0.17431921354752
  C   -1.32801418885636     -1.02939889125294      0.16044189786650
  H   -0.89302052552847     -1.90850784167542     -0.32244364437073
  H   -2.32553896688427     -0.87045544251328     -0.24472546596776
  H   -1.44134134769050     -1.23335522470257      1.23064118229151
