14
Coordinates from ORCA-job run
  C   0.87495585660279      0.20241179725035      0.10650553634312
  C   -0.44339546164416      0.07909040378861     -0.21378077065904
  C   1.80238945387432      1.06649023480438     -0.57221984867632
  N   2.70457523433120      1.66929850169495     -1.02800693100145
  N   1.45337652847156     -0.45759748396061      1.17578199010844
  H   0.93977530381225     -1.23690394645785      1.55462576578405
  H   2.44445603765374     -0.62347664974774      1.09147250192263
  N   -1.02222643206721      0.93957291367234     -1.24404184131536
  O   -2.14158982624433      0.63162826795827     -1.65792967533568
  O   -0.37689821339095      1.91016908538137     -1.63522722180541
  C   -1.37370089685086     -0.86231551327410      0.47523769793220
  H   -2.19288318306303     -1.12185135866065     -0.19076118896719
  H   -1.79888719513372     -0.40975660541386      1.37601599929877
  H   -0.86894720635161     -1.78775964703545      0.76132798637124
