14
Coordinates from ORCA-job run
  C   0.91490136160686      0.09899379316312      0.05240751458178
  C   -0.45524973240321      0.00836831468275      0.01745839838901
  C   1.66279575552489     -1.07645027329897     -0.30525289935369
  N   2.32303030076737     -2.00875542308354     -0.58291418802790
  N   1.69502958008573      1.12928977882266      0.50205032754528
  H   2.64916455395436      1.13579254108103      0.18309681923960
  H   1.22775306966340      2.01770604857437      0.61359427908079
  N   -1.25903925331700      1.14988530003632      0.39244465581991
  O   -0.70026349607068      2.19753439047125      0.75594840057031
  O   -2.48386726008089      1.02183446663331      0.32118987452353
  C   -1.23473958660927     -1.19337848419556     -0.40838870786096
  H   -1.89134402563690     -0.94366521635816     -1.24424269955434
  H   -0.56647973521097     -2.00166200773468     -0.70013430154361
  H   -1.88169153227366     -1.53549322879389      0.40274252659028
