14
Coordinates from ORCA-job run
  C   0.91206036057656      0.12836640188614      0.01221418786016
  C   -0.45225316300103     -0.01734163632022      0.06893514259557
  C   1.65356256600890     -0.92743998059452     -0.62702608435402
  N   2.29403676787565     -1.76230225228912     -1.15364523615145
  N   1.69658612176109      1.10202320888594      0.55804914817502
  H   1.21923470169720      1.93367688846050      0.87034200250152
  H   2.62810457747500      1.19825984590339      0.18927988930646
  N   -1.26018167204331      1.02449422491058      0.65909357696775
  O   -0.70363025777767      2.01353070121195      1.16208917872606
  O   -2.48279319173811      0.87106590389403      0.62785766340252
  C   -1.22113765484911     -1.17127082313592     -0.48780733997503
  H   -0.55007840458101     -1.92334136437967     -0.90147664068489
  H   -1.90409638221883     -0.83633883095777     -1.27125924298447
  H   -1.82841436918533     -1.63338228747530      0.29335375461481
