14
Coordinates from ORCA-job run
  C   0.90929794423787      0.11637387952449      0.09438326506242
  C   -0.45363339571874      0.03053598312331     -0.04947596767333
  C   1.68994669527289     -0.96675653353497     -0.44461620697141
  N   2.36076504060469     -1.83889830882710     -0.86165326986204
  N   1.65783627995406      1.13674649862606      0.60458932601932
  H   2.59939769281671      0.91644808593673      0.88383602418959
  H   1.15489965620274      1.83489913251210      1.13086870652240
  N   -1.29927794331530      1.06151677757932      0.50612649499427
  O   -0.77746216969293      2.04618336702199      1.05334099249112
  O   -2.51734686948620      0.90211350007369      0.40505307129160
  C   -1.18376905712785     -1.09656902400380     -0.70465416885943
  H   -1.81032418014621     -0.72102224541731     -1.51637557084008
  H   -0.48683711900304     -1.82936787615690     -1.11004469384851
  H   -1.84449257459871     -1.59220323645762      0.00962199748409
