14
Coordinates from ORCA-job run
  C   0.91142654006128      0.08266981988135      0.10868196151785
  C   -0.45639795700905      0.01197177452852      0.01137675813496
  C   1.65773838934273     -1.04561119367082     -0.38493940602986
  N   2.30355802142699     -1.94279121363206     -0.78785307820392
  N   1.68352898990870      1.04409999234116      0.69251322493827
  H   2.65679608266448      1.06709918847345      0.43723058742085
  H   1.22367024563982      1.91766366038852      0.89880782815628
  N   -1.26545812376519      1.12105054968578      0.46251270992707
  O   -2.48548584638315      1.01782675052500      0.32317227139862
  O   -0.71152414984122      2.11336344560302      0.96175480256754
  C   -1.22417573953164     -1.13014195615020     -0.57042419858376
  H   -1.80871093470193     -0.79998325767067     -1.43160089104704
  H   -1.92864051884829     -1.52696629907219      0.16358522155322
  H   -0.55432499896355     -1.93025126123087     -0.88381779175010
