14
Coordinates from ORCA-job run
  C   0.89241170722400      0.10808740515612     -0.02921500000022
  C   -0.46479948472263      0.20275946876390     -0.04246536370754
  C   1.78453097110475      1.21790486232892      0.15569100002855
  N   2.65148228165356      1.99801023162379      0.31356906004741
  N   1.54438838319003     -1.09311172077325     -0.26365371843705
  H   2.51737700075628     -1.10464664695423     -0.00057402874769
  H   1.04777175983659     -1.92601348803748      0.01164909216896
  N   -1.10536921691947      1.47663183795650      0.24876528185603
  O   -2.27223707080420      1.41708745984909      0.64267018592950
  O   -0.46654095374659      2.51557283098239      0.08919731211485
  C   -1.35674211272003     -0.97640963372916     -0.24077525797737
  H   -0.92420218447496     -1.64881100500769     -0.98627314562348
  H   -2.33576077267080     -0.65449094830880     -0.59056666053489
  H   -1.51231030770652     -1.53257065385009      0.68998124288293
