14
Coordinates from ORCA-job run
  C   0.91131852193680      0.08713929194439      0.10028151944456
  C   -0.45744657006794      0.01402360631335      0.01787302203997
  C   1.65026763204597     -1.08756350460633     -0.28360648573954
  N   2.29015574415039     -2.02265054471381     -0.60117816192587
  N   1.69120715232936      1.09644333868930      0.58387936879537
  H   2.66206290779958      1.09152505293811      0.31884024553452
  H   1.23572423826264      1.98647048829388      0.71494328504005
  N   -1.25795281829882      1.16969464775205      0.34880048363068
  O   -0.69870531327090      2.19773521709062      0.76278258697832
  O   -2.47710934010616      1.06861571010252      0.19874577857803
  C   -1.23164525448379     -1.17458020689208     -0.45170823938685
  H   -0.56715951253268     -2.00926683812846     -0.67233639721252
  H   -1.94764813037996     -1.48695967487214      0.31106024476750
  H   -1.80306925738449     -0.92962658391139     -1.34937725054422
