14
Coordinates from ORCA-job run
  C   0.88456107510680      0.09732042578475      0.10196041808336
  C   -0.46001702083852      0.20939604131929     -0.08981211336123
  C   1.80866814855917      1.19442696198571      0.14778274355924
  N   2.69566114466663      1.96663716227289      0.19290402888378
  N   1.49522324593351     -1.14639296654690      0.15570221146016
  H   2.43893571911256     -1.14194020786704      0.51072984847626
  H   0.93142544086580     -1.89310905213135      0.53128867399582
  N   -1.08857172196936      1.52422571853839     -0.14686861897218
  O   -2.27831613883953      1.56262002505105     -0.46636575590552
  O   -0.40972492156061      2.51053146997045      0.13647586535601
  C   -1.33416165660578     -0.98948494833618     -0.23771849415727
  H   -1.53972728523931     -1.46272123337252      0.72935736464864
  H   -0.85638293931891     -1.72797668213284     -0.88877408799734
  H   -2.28757308987246     -0.70353271453570     -0.67666208406974
