14
Coordinates from ORCA-job run
  C   0.90945068398856      0.07232519139875      0.12793155295569
  C   -0.45739787502680      0.01763949808353      0.00734322108350
  C   1.64751833866935     -1.08833762272926     -0.29823470604247
  N   2.28682476895994     -2.01208546289094     -0.64853503306949
  N   1.68539601321011      1.04736387548469      0.68307372880590
  H   2.66241692587093      1.04721590086239      0.44143674987979
  H   1.23399564192952      1.93405562361874      0.84736765421776
  N   -1.25565977565515      1.16294083328534      0.37718568585903
  O   -2.47128219226711      1.08271057365861      0.19043992439941
  O   -0.69810000607142      2.16250154206351      0.85792187000937
  C   -1.23006821266932     -1.13728650795305     -0.54210612331462
  H   -0.56825150998665     -1.96732129740269     -0.78718415501964
  H   -1.96941015363808     -1.47944788020184      0.18505383497404
  H   -1.77543264731387     -0.84127426727776     -1.44069420473827
