14
Coordinates from ORCA-job run
  C   0.90565609237321      0.09297769670859      0.14257466537170
  C   -0.45014812509085      0.04163824082399     -0.06916940356604
  C   1.69089735057611     -0.98421392075109     -0.40186045141221
  N   2.36501475216133     -1.85347835894546     -0.81983294423247
  N   1.64810473825601      1.07665565262696      0.72845967326879
  H   2.57037771958223      0.82484257735231      1.04344849912427
  H   1.13389637029651      1.76240953161697      1.25988268224261
  N   -1.30151637270827      1.06835627057709      0.48525757936952
  O   -2.51570882371210      0.94122487649107      0.31598256638688
  O   -0.78805682443966      2.01801627235359      1.09800618078793
  C   -1.16884088680691     -1.04251514770922     -0.80453553137607
  H   -1.74538889790632     -0.62177692480608     -1.63093331065419
  H   -1.87508274148509     -1.55082219918915     -0.14496760846134
  H   -0.46720435109620     -1.77431456714955     -1.20331259684938
