14
Coordinates from ORCA-job run
  C   0.87321083950980      0.18633332797002      0.02657206290289
  C   -0.46299600029802      0.08120938374651     -0.20990306034094
  C   1.79441361769785      0.92987713597683     -0.78421003560050
  N   2.67412317953003      1.46672770277724     -1.35270948084257
  N   1.48475509012982     -0.56273206498056      1.01785850155018
  H   0.89605115330434     -0.84499652743418      1.78628514445030
  H   2.39184671997546     -0.23174169104508      1.30762016228014
  N   -1.05804370603683      0.79009353451916     -1.33360722965501
  O   -0.46678673513598      1.77153386505362     -1.78330047959889
  O   -2.13001646561194      0.35685095235890     -1.75942472699573
  C   -1.33366972905894     -0.81070136509994      0.61029117541947
  H   -2.36582434857092     -0.75413515983801      0.27296251562891
  H   -0.99767339949189     -1.85097316952597      0.53464150859240
  H   -1.29939021594279     -0.52734592447855      1.66892394220934
