14
Coordinates from ORCA-job run
  C   0.91610326513571      0.07285619309785      0.06349012124337
  C   -0.45585631216907      0.02059253651646      0.03630027973045
  C   1.62083991164660     -1.10947261773426     -0.35907352728557
  N   2.23232782926617     -2.05145979838644     -0.71038214549453
  N   1.73023234925420      1.06659733368571      0.52290506363696
  H   1.29389748848514      1.96272070479930      0.67629617033171
  H   2.68846919174299      1.05017132659607      0.21529290684575
  N   -1.22496636280672      1.18507782099454      0.40881839784099
  O   -0.63384205288179      2.20187250506364      0.80591779419536
  O   -2.45063950755192      1.10316375661365      0.30817575246569
  C   -1.26647400054950     -1.15326779317401     -0.40847751595667
  H   -1.95562193148468     -1.45920866422475      0.38128240813619
  H   -0.62475477253402     -1.99658849542211     -0.66122579268576
  H   -1.87071509555310     -0.89405480842565     -1.28031991300397
