14
Coordinates from ORCA-job run
  C   0.91067934240763      0.13875543307376      0.02051355750199
  C   -0.45679496071704      0.02071290433162     -0.02286534524191
  C   1.67577916324675     -0.97332140272508     -0.48085643557193
  N   2.33418996056823     -1.86890156376369     -0.86708832634022
  N   1.67037085142668      1.20813821498701      0.39614882775963
  H   2.63221031431020      1.02483096537959      0.62951111449537
  H   1.18903012819819      1.93856157912502      0.89827568172763
  N   -1.28438157541132      1.07879488537141      0.50800787910141
  O   -0.74803826567981      2.11686949064313      0.92739555691021
  O   -2.50216901729765      0.88877755990800      0.51320413494656
  C   -1.20448512806727     -1.16810687293594     -0.53329392015871
  H   -0.52061892880237     -1.91516363309491     -0.93447005703352
  H   -1.79582894391835     -1.62154021405069      0.26492448333869
  H   -1.89994294026387     -0.86940734624924     -1.32040715143520
