14
Coordinates from ORCA-job run
  C   0.91373370064864      0.08744571392302      0.07803857443246
  C   -0.45678827067560      0.01530126927926      0.02531199682764
  C   1.64316835454497     -1.08819976691953     -0.32078185072765
  N   2.27500085771679     -2.02420920404369     -0.65147050202192
  N   1.70410495751786      1.09682362210283      0.54352800320400
  H   1.25188384160229      1.98739781497793      0.68225167741039
  H   2.66998537334917      1.09016991043189      0.26082885904692
  N   -1.24934490560634      1.17063974738082      0.37597419221350
  O   -0.68004773896994      2.20046955440942      0.77116636448597
  O   -2.47214058602351      1.06754307873722      0.26038779705979
  C   -1.24176672517862     -1.17489467392539     -0.42206127208126
  H   -1.93326859079837     -1.49069245475691      0.36210129029632
  H   -1.84198520208172     -0.93010012021976     -1.30085277158756
  H   -0.58253506604561     -2.00769449137712     -0.66442235855860
