14
Coordinates from ORCA-job run
  C   0.91433380718564      0.11215308046863     -0.02208470321412
  C   -0.45647399744939      0.03221122035857     -0.01290635137257
  C   1.63312859891820     -1.07136328581145     -0.41717086058776
  N   2.25583979785497     -2.02332761866149     -0.71819227066659
  N   1.71452632825000      1.19377003515973      0.20749002517185
  H   1.26859456394461      1.98909426058338      0.63875340841280
  H   2.67671136079308      1.00661677657865      0.43689929977312
  N   -1.23728277562414      1.16640167048106      0.42315456135008
  O   -2.45886283904899      1.01485071890676      0.48519449916140
  O   -0.65995565136679      2.22613236571353      0.71396851362854
  C   -1.25256678252997     -1.18195629843209     -0.36630984018861
  H   -1.97033037255215     -0.94740465224722     -1.15495130864089
  H   -1.82428882685605     -1.53196244002544      0.49568571799106
  H   -0.60337321151901     -1.98621583307264     -0.71053069081831
