14
Coordinates from ORCA-job run
  C   0.88174972144409      0.13318889320061      0.01106913018036
  C   -0.46349445035262      0.10907999667921     -0.19732668807124
  C   1.81023359949049      0.97975785368427     -0.68357894365041
  N   2.70048740448206      1.60529742142384     -1.13228688705424
  N   1.46268456931077     -0.60492722929161      1.02845491559748
  H   0.97893007525051     -1.44786133545151      1.29657545844038
  H   2.46217345638071     -0.71588733482408      0.96162331790277
  N   -1.05658964568428      0.94342817463191     -1.23577126849355
  O   -0.31504551482913      1.42904655786924     -2.08885289724193
  O   -2.27746914224356      1.10442814144962     -1.19448986303945
  C   -1.37023555522798     -0.72390680750877      0.64531026608622
  H   -1.25092177147575     -1.79065657350126      0.42333675604172
  H   -1.15627962458968     -0.56749277282145      1.70711803890838
  H   -2.40622312195566     -0.45349498554002      0.45781866439351
