14
Coordinates from ORCA-job run
  C   0.91054286908598      0.14038172827469     -0.02407272605023
  C   -0.45701478652557      0.01835110260787      0.00122053305105
  C   1.65357822303087     -0.97640249839426     -0.54722596492922
  N   2.29543287733099     -1.87389067688773     -0.95626175625247
  N   1.68448905949574      1.21676167524605      0.29948091109398
  H   2.65697990777559      1.03775181078267      0.48782013045997
  H   1.22690758698762      1.95045149838680      0.81891001278895
  N   -1.26151502727523      1.08348194129298      0.55303484913503
  O   -0.70791296732302      2.12616051150452      0.93711976467182
  O   -2.47788866298609      0.89415160861099      0.61267590981445
  C   -1.22594147198130     -1.17784982521856     -0.45807996721344
  H   -1.78684250915648     -1.61542217851555      0.37034179942795
  H   -0.55991187600650     -1.93341258934302     -0.87334362486008
  H   -1.95190322245260     -0.89051410834745     -1.22161987113776
