14
Coordinates from ORCA-job run
  C   0.90437720144751      0.16537748585444     -0.05889508448487
  C   -0.44557394661189     -0.02969119695512      0.10063134107878
  C   1.65160564754334     -0.91125967766096     -0.65547100187441
  N   2.29451246633878     -1.76294504111948     -1.15147674874918
  N   1.67631833098478      1.21306395549727      0.35043869110544
  H   1.18212537111650      2.04775934947746      0.62613559901596
  H   2.57764916361143      1.31455917483238     -0.08578369735779
  N   -1.26139345562566      1.02581498122513      0.65422981344506
  O   -0.71972828164435      2.07501506375819      1.03732754691453
  O   -2.47533054833620      0.82177478294599      0.71628411759488
  C   -1.19493998353922     -1.25613274219733     -0.30788096378945
  H   -0.51751731270878     -2.01339828418600     -0.70112886417434
  H   -1.93892046141940     -1.01568925269869     -1.07024819528352
  H   -1.73218419115684     -1.67424859877325      0.54583744655891
