14
Coordinates from ORCA-job run
  C   0.91362316947413      0.05405967215201      0.10679797240817
  C   -0.45636521688901      0.02976023416498      0.01429856839748
  C   1.61390255075595     -1.14009037682317     -0.28933525379233
  N   2.22249544667860     -2.09270588853417     -0.61612008600589
  N   1.72427459178471      1.02910157420755      0.61003068079188
  H   2.69586788446572      0.99584425175269      0.34948094304569
  H   1.29751263812312      1.93212922671216      0.74975281816408
  N   -1.21863770720003      1.20783425994845      0.35709687689155
  O   -2.43936950021296      1.15177894954449      0.19661004035875
  O   -0.62706448822811      2.20959190362908      0.79012776108950
  C   -1.26861127575586     -1.12513785055087     -0.47460319551313
  H   -2.00006863145154     -1.42061853164217      0.28040755464039
  H   -0.63274364506618     -1.98031442824414     -0.70098098959071
  H   -1.82581581647853     -0.85023299631691     -1.37256369088541
