14
Coordinates from ORCA-job run
  C   0.89755703212414      0.01719899876672     -0.05008028248989
  C   -0.45056471528997      0.09247486002451     -0.21755273209655
  C   1.85734313803366      0.76375860066701     -0.81387178408704
  N   2.77352166660773      1.30413280974265     -1.31763552016786
  N   1.47361105690828     -0.86091722769901      0.85453141913931
  H   0.92009838336951     -1.08740675532208      1.66595643706811
  H   2.44044925661884     -0.67573848435899      1.07067501130450
  N   -1.01330509044808      1.05332393860786     -1.15471845274580
  O   -2.19001113251642      1.36917454888813     -0.96544360557021
  O   -0.30334839679946      1.48705253453473     -2.06087318508567
  C   -1.41202211755914     -0.70925255324815      0.59367644408584
  H   -1.61290941798081     -0.24676127549416      1.56601531998060
  H   -2.36445655773932     -0.79183864231261      0.07346659314877
  H   -1.01596310532894     -1.71520135279660      0.75585433751589
