14
Coordinates from ORCA-job run
  C   0.90877757759402      0.14572759903523     -0.04376300813707
  C   -0.44666241314139     -0.02505675393185      0.09680780455842
  C   1.63238289424760     -0.90790802757046     -0.70652100634343
  N   2.25589039633718     -1.74124670771767     -1.25565740730303
  N   1.70404219838943      1.14476458741215      0.43702096924033
  H   1.22813649269461      1.97182952417651      0.76339509801672
  H   2.60900336267685      1.25339180821679      0.00999788151047
  N   -1.23917852161551      1.01204411145570      0.71536115371476
  O   -0.67374299709449      2.01964435699699      1.16936357394099
  O   -2.45817042649098      0.83515031815221      0.75834038787416
  C   -1.22374864041820     -1.20292580459123     -0.39445894200979
  H   -0.56359441943072     -1.94755859314404     -0.83803360608917
  H   -1.77334675429603     -1.66455096679454      0.42852665792626
  H   -1.95978874945239     -0.89330545169580     -1.13937955689963
