14
Coordinates from ORCA-job run
  C   0.91363415252844      0.05875137326907      0.10426558513380
  C   -0.45650275294730      0.02497986901940      0.01885465861950
  C   1.62155035030465     -1.11853923846517     -0.32695958137186
  N   2.23639039219114     -2.05662691753246     -0.68294719108047
  N   1.71922876695680      1.02702792566793      0.62880128903278
  H   1.28581047880992      1.92270508927500      0.79313032258593
  H   2.68863315097759      1.00947393144804      0.35867133942634
  N   -1.22666632986129      1.18807656342309      0.39328792990732
  O   -2.44754853552272      1.12696698899099      0.23571322797266
  O   -0.64064420583929      2.18391341104369      0.84728732030046
  C   -1.26137405752211     -1.12399961949942     -0.49579902435857
  H   -1.83211177247250     -0.82816193862106     -1.37844308138438
  H   -1.98089587029739     -1.45024930520710      0.25815236240679
  H   -0.61850376730593     -1.96431813281201     -0.75501515719030
