14
Coordinates from ORCA-job run
  C   -0.73607442756929     -0.81648947971930      0.16737884007657
  C   0.49910332091213     -0.15316647804677     -0.45877471175923
  Br  -0.48871443861630     -1.34325015030491      1.99125575913971
  H   0.23206773956213      0.02713495124049     -1.50697071178013
  H   -1.03562690562676     -1.69804803435582     -0.39811171311818
  N   -1.88014007785456      0.16932627544187      0.00563448758946
  O   -2.24148928671751      0.29396112368398     -1.16212705215619
  O   -2.30632073083215      0.78187044125496      0.97212581186160
  C   1.61328688908837     -1.10071728699406     -0.44549218734121
  N   2.52133086530732     -1.84507712738799     -0.44349032046094
  C   0.88180345045170      1.17276752885281      0.20181756780555
  H   0.06999211762355      1.89599878140238      0.10614595808225
  H   1.76454806742859      1.58418359536046     -0.28956025954845
  H   1.10623341684277      1.03150585957191      1.25916853160918
