14
Coordinates from ORCA-job run
  C   -0.97544055450743      0.04350393229295     -0.01921082839461
  C   0.53005204660612     -0.14683053268092     -0.18244564104308
  Br  -1.89039531382527      0.11751386468015     -1.71482260632798
  H   0.68755413878138     -1.08250932138173     -0.72699594930374
  H   -1.22737828147178      0.94419982136198      0.53867228293944
  N   -1.55498420717540     -1.10565941726067      0.76767410615514
  O   -1.19158775509629     -2.23184892828219      0.45029448389389
  O   -2.34139738497231     -0.80730885364831      1.66009470092080
  C   1.10265352145127     -0.30005581235037      1.15967314659710
  N   1.55789629604623     -0.38611670119556      2.23886649070018
  C   1.19717819697048      1.02346402530810     -0.91017578156523
  H   0.83175744658149      1.09548565850980     -1.93386934582340
  H   0.99731430764954      1.96439601244743     -0.39344083920940
  H   2.27677754296197      0.87076625219934     -0.93731421953911
