14
Coordinates from ORCA-job run
  C   -0.72244833823912     -0.84151159062076     -0.06867620904484
  C   0.52184113557082     -0.02888382250896     -0.45619204510706
  Br  -0.54228613820486     -1.78477491401487      1.58726442298356
  H   0.29424550014542      0.39935305682712     -1.43977644939569
  H   -0.97118250632195     -1.56643153417137     -0.84286616725265
  N   -1.88478412968925      0.13512483149536     -0.04925492121080
  O   -2.37261902105106      0.49009078564448      1.01243995456664
  O   -2.19654870728864      0.52964707362671     -1.17040968597944
  C   1.65671021219330     -0.93621760347432     -0.62331944160011
  N   2.58087505326558     -1.64745691940493     -0.75997215442105
  C   0.84582427591722      1.09962014391014      0.52493324914995
  H   1.72890139334373      1.63947432196056      0.18048217146239
  H   1.04556281156742      0.70515062887939      1.52112952319996
  H   0.01590845879139      1.80581554185148      0.58421775264913
