14
Coordinates from ORCA-job run
  C   -0.97500608999736      0.02946027497165     -0.01167446008216
  C   0.53202805336787     -0.13221047651355     -0.19086028534212
  Br  -1.90160721163059      0.14665703314908     -1.69896080526864
  H   0.70012429736630     -1.04462744089680     -0.77054102757249
  H   -1.23660296361581      0.90752069039726      0.57729273177948
  N   -1.53216174460583     -1.15436021376204      0.73935325065061
  O   -1.15472180349783     -2.26349186583180      0.38069941897541
  O   -2.31666841557062     -0.89820917359970      1.64640306645106
  C   1.11582877689389     -0.32540082842464      1.14105898565055
  N   1.57237356186211     -0.44913995257699      2.21609045447191
  C   1.17534785870244      1.07409116726733     -0.88056978121340
  H   0.96007826542361      1.99348007126895     -0.33195287158092
  H   2.25756644108268      0.94264170702076     -0.91627906480886
  H   0.80442097421913      1.17358900753049     -1.90005961211045
