14
Coordinates from ORCA-job run
  C   -0.93186507758366     -0.42788238241781     -0.52575784545128
  C   0.57651148709263     -0.18042557629037     -0.52014438573618
  Br  -1.39397205611614     -2.21539728879073     -1.05291879422414
  H   0.89794942036465     -0.29267131302819     -1.56220878293975
  H   -1.42656282036610      0.26344035278399     -1.20533727564507
  N   -1.49388757246566     -0.11502314516900      0.83648738526541
  O   -2.15407360687035      0.91999638548400      0.90622070588800
  O   -1.19902782518910     -0.86210318180435      1.75960400414330
  C   1.31095095261170     -1.17361401482356      0.26669571588343
  N   1.96623871380903     -1.92737652967362      0.88371018535498
  C   0.89774307322863      1.23994995183246     -0.03601540719983
  H   1.96042713103314      1.44303335827209     -0.17413809883067
  H   0.32343164024220      1.97637509926950     -0.60194512878028
  H   0.66513654020902      1.35369828435557      1.02374772227206
