14
Coordinates from ORCA-job run
  C   -0.95645758579705     -0.42659107455481     -0.47989073931524
  C   0.55453582025660     -0.20167427173308     -0.53569354224449
  Br  -1.46255857408283     -2.21902277432840     -0.94722897952808
  H   0.83540187045315     -0.34530626397384     -1.58565305658071
  H   -1.46611295713428      0.25584330426015     -1.15740661989236
  N   -1.46322755972231     -0.07452062053179      0.89424540411850
  O   -2.10495058147945      0.97206950994610      0.96414990496772
  O   -1.14589889727528     -0.80522491250830      1.82296421563795
  C   1.30329421532997     -1.18545369757384      0.24934843654594
  N   1.97051097801018     -1.93198662195340      0.86241504574197
  C   0.91307022431573      1.22584202176865     -0.10126052183128
  H   1.97259812373346      1.40970173899598     -0.28365457670970
  H   0.32818765261350      1.95542848824286     -0.66529745413835
  H   0.72160727077861      1.37089517394370      0.96296248322814
