14
Coordinates from ORCA-job run
  C   -0.94199288617699     -0.45058062173850     -0.48641277748257
  C   0.56562455913993     -0.20051349283781     -0.52514320628639
  Br  -1.41129689844601     -2.25863461951243     -0.93135192709988
  H   0.86364616036544     -0.35497563961995     -1.56871961491188
  H   -1.45312718735249      0.21234356826068     -1.18203365557257
  N   -1.47403593840860     -0.08515539846849      0.87453740270042
  O   -2.13710566260281      0.94942441201152      0.91796833201072
  O   -1.15523879989075     -0.79378845125414      1.81974857062511
  C   1.32017556542668     -1.15850094199187      0.28561774653257
  N   1.99046359534425     -1.88414833376828      0.92007669943860
  C   0.89315181680380      1.23954782967316     -0.10755171321101
  H   1.95079586078084      1.44072465926697     -0.28277597412876
  H   0.68906150610445      1.39516206176229      0.95285613066936
  H   0.29987830891226      1.95009496821685     -0.68681601328370
