14
Coordinates from ORCA-job run
  C   -0.72665716316239     -0.73569469879128      0.24390570112659
  C   0.50223606067771     -0.08699052406492     -0.41030833335099
  Br  -0.65293986442434     -0.77726547138881      2.16868880108388
  H   0.22162305016539      0.08897734573479     -1.45787898187145
  H   -0.85490709267558     -1.76394499328826     -0.08861090019596
  N   -1.99422604079560     -0.03750587972957     -0.17800040503302
  O   -2.90383090393970     -0.76908916694316     -0.55766781317996
  O   -2.02098135926392      1.18673084711768     -0.12087703527794
  C   1.57385211336363     -1.08702498095263     -0.41166317319189
  N   2.44011624030042     -1.87954215925708     -0.39870876677821
  C   1.00552104922466      1.22637741231425      0.19726395840128
  H   0.20446770656496      1.96091200096483      0.22881396259390
  H   1.81975469447080      1.61023924190596     -0.41982633762360
  H   1.38597150949397      1.06282102637820      1.20486932329736
