13
Coordinates from ORCA-job run
  C   0.30253113195052     -0.58815309368163      0.01637956413208
  C   -0.66003403648767      0.57875644031295     -0.09152544451697
  Cl  0.17724674835087     -1.29944687113064      1.66868004817074
  H   -0.50268454865234      1.03567451936818     -1.07453092315060
  H   -0.03100860236834     -1.37498773841438     -0.66228461116345
  H   -0.38616980723080      1.32427981712005      0.67087230792923
  C   1.74211889959999     -0.19596049562249     -0.24743938095325
  H   2.40738667500544     -1.05314480126863     -0.13767060530277
  H   2.06474379298483      0.57953476230581      0.45039510690113
  H   1.83841811473467      0.18726313939375     -1.26727160731263
  N   -2.04262245598670      0.12203936104089     -0.02454404995855
  H   -2.24239856088288     -0.20900904607157      0.91139487927350
  H   -2.66852735101760      0.89515400664771     -0.21145528404846
