13
Coordinates from ORCA-job run
  C   0.27683725480445     -0.81117351413812     -0.12766265820211
  C   -0.95927184314397      0.02780345380865     -0.41295037541878
  Cl  0.05279425625857     -1.66313194764819      1.44807680896767
  H   -1.83302821838352     -0.63904053424790     -0.43995685384265
  H   0.33813463725055     -1.60932158081087     -0.87116239657545
  H   -0.83563671064852      0.44829943780251     -1.41720255487020
  C   1.56085403573587     -0.00911529372478     -0.09231431739219
  H   2.41703398961870     -0.65504048895626      0.10707606858407
  H   1.50238527883551      0.76422244821339      0.67110493179713
  H   1.70851844297594      0.47589576237703     -1.06194059537455
  N   -1.07695073247048      1.13171221797424      0.53162163467260
  H   -1.80251442324450      1.76780902258524      0.22743607078875
  H   -1.34915596758861      0.77108101676506      1.43787423686572
