13
Coordinates from ORCA-job run
  C   0.29679053250590     -0.85039262495383     -0.13597535189797
  C   -0.98434414349169     -0.04955982314625     -0.33656636927134
  Cl  0.17244614046687     -1.80450908015047      1.37866890045097
  H   -0.95911339381086      0.34322352160413     -1.36279129564189
  H   0.37803900378563     -1.58919074557206     -0.93803214655251
  H   -1.83152184209358     -0.73760061213436     -0.28011152061297
  C   1.53257679104514      0.02306427743051     -0.08545792283762
  H   1.62555650941875      0.58524445951399     -1.02045237305388
  H   2.43305191194371     -0.57792239589777      0.04596270742854
  H   1.45154415780175      0.72363813742495      0.74532436486171
  N   -1.11730829891895      1.01073290647285      0.65585222654526
  H   -2.02883247827460      1.00207451764826      1.08663619559712
  H   -0.96888489037806      1.92019746176005      0.24494258498458
