14
Coordinates from ORCA-job run
  C   0.66980980488053     -0.38130944148229      0.11507839078465
  C   -0.59822450989170     -0.06170558053149      0.90107970874959
  Cl  1.75146612017989     -1.18405808669161      1.28881334674520
  H   -1.01904020487715     -0.97061527993298      1.32850364510826
  H   -0.39991058130461      0.66407910077703      1.68920728888695
  N   0.56840582301582     -1.17545654479915     -1.04456701703048
  H   0.10555939546642     -2.05501137743666     -0.86265826143115
  H   0.14679741895699     -0.67150463566642     -1.81250764332162
  N   1.34934731889662      0.95153406973294     -0.26660286738268
  O   1.42070968668171      1.77810978718684      0.63215972281260
  O   1.76073671306220      1.06842634916406     -1.40875557557343
  N   -1.65572416666530      0.52543602432820      0.02578198417068
  O   -1.28171055339853      1.15752538894341     -0.96114562917743
  O   -2.81722226500289      0.35355022640812      0.37561290665887
