14
Coordinates from ORCA-job run
  C   0.58045569658781     -0.34118858481639      0.05920391071973
  C   -0.59699270404103     -0.03279244293450      0.96146986652852
  Cl  1.79743977487960     -1.21951282377917      1.10821958524507
  H   -0.98296662297891     -0.94563784461922      1.41067206391549
  H   -0.31239146162592      0.69246001482962      1.72084032915530
  N   0.19177398671455     -0.99901272059061     -1.10361179111015
  H   -0.26235198932583     -1.88312607169601     -0.92050263086723
  H   0.94174525846048     -1.08883339817335     -1.77517578787340
  N   1.32135848293234      0.94671891094901     -0.33386592098255
  O   1.80424085869009      0.97056537485003     -1.45764751140484
  O   1.41357038622659      1.80797390245344      0.52517986392214
  N   -1.69689932886927      0.55350966903432      0.14122771070898
  O   -2.74479581500809     -0.08301942462916      0.07545184965992
  O   -1.45518652264241      1.62089543912200     -0.41146153761698
