14
Coordinates from ORCA-job run
  C   0.58223425911082     -0.46139921866052      0.14325486909863
  C   -0.68478949368159     -0.11687116334198      0.90172850197720
  Cl  1.70944687499265     -1.18547834382712      1.31453957386243
  H   -1.19311366112795     -1.03984348518265      1.18166289854648
  H   -0.47025778936899      0.47814323517187      1.78455272611102
  N   0.38702325224498     -1.34803534960997     -0.92593292652927
  H   1.26934930718215     -1.59336440139947     -1.35683501223966
  H   -0.22280016204677     -0.92235240767139     -1.61369891781522
  N   1.27485202764375      0.87521529238655     -0.27685422302710
  O   1.97439099076285      0.82180571643019     -1.27811834602231
  O   1.08472908974108      1.85088543313579      0.43788238182921
  N   -1.65648978707999      0.68470855697699      0.09179399575635
  O   -1.43436396044010      0.83516919328742     -1.10909899334037
  O   -2.62021094793288      1.12241694230429      0.70412347179261
