14
Coordinates from ORCA-job run
  C   0.52766754530360     -0.22142232947025      0.11910413520004
  C   -0.62729219266486      0.75220926372293      0.31872632500004
  Cl  1.23479162875122     -0.73031143657048      1.66755881944192
  H   -0.86259368226040      1.24896839853900     -0.62268204824510
  H   -0.39412749662147      1.47651307058134      1.09249411397626
  N   0.16065016903970     -1.34043984359571     -0.62740501121200
  H   0.95244087560348     -1.92431986422930     -0.85936136217411
  H   -0.38812835109971     -1.11119143624984     -1.44552889916996
  N   1.67233482000706      0.62004856129554     -0.54989236242738
  O   1.75472595848153      1.80146291075401     -0.23694869734098
  O   2.40318141201469      0.01091926066963     -1.31901449746906
  N   -1.84413896177975     -0.00321303127352      0.72437546499449
  O   -2.57134129376376     -0.39508040848670     -0.18655402718116
  O   -2.01817043101134     -0.18314311568664      1.92512804660699
