14
Coordinates from ORCA-job run
  C   0.54444769197276     -0.18421250444116      0.10986006158567
  C   -0.65259451032806      0.74092019253872      0.28888810059789
  Cl  1.35083923448962     -0.52504391801678      1.65593557149532
  H   -0.96032337539648      1.14282633233004     -0.67670245569202
  H   -0.42400198196259      1.53964752482324      0.98710412131658
  N   0.20676047859568     -1.37858805597269     -0.52542940289355
  H   1.01922768197877     -1.93461828549276     -0.75460968123744
  H   -0.39259245720051     -1.24510418154910     -1.32928031118310
  N   1.60650654497802      0.65965943915775     -0.68241984606808
  O   2.31862717004314      0.03360537863910     -1.45562837496821
  O   1.64953852880859      1.86195375268660     -0.45262541812959
  N   -1.80435451019447     -0.04033737471061      0.81739003409823
  O   -2.55215092892736     -0.54251615078791     -0.01970108176013
  O   -1.90992956685711     -0.12819214920444      2.03621868283842
