14
Coordinates from ORCA-job run
  C   0.56891204593086     -0.32736459241781      0.10242999208160
  C   -0.94390286469255     -0.14367891525497      0.16060974263386
  Cl  1.23558301807010     -0.26620572895591      1.72313910188682
  H   -1.33426976461471     -0.06275556446578     -0.85496918408618
  H   -1.39229569018776     -0.98186034135014      0.69038547261980
  N   0.98530949621540     -1.53768111292731     -0.53869526463023
  H   0.54827573728107     -1.63062004820517     -1.44768779041497
  H   0.79249759174355     -2.34375560063804      0.04040277749268
  N   1.16748684484415      0.78745600844794     -0.77934923971205
  O   2.04184904270708      1.51066927217450     -0.34571207461217
  O   0.69569931747786      0.78475495470229     -1.91249513043424
  N   -1.35218283776701      1.09516039214719      0.88193162019578
  O   -0.79233853591935      2.13271055463447      0.53874318282599
  O   -2.22062340108869      0.98417072210875      1.74126679415333
