14
Coordinates from ORCA-job run
  C   0.47932716413134     -0.41672496564516      0.04611096391011
  C   -1.00530110426116     -0.16462558212610      0.23592164775308
  Cl  1.27262169286329     -0.65245793127619      1.59312253126074
  H   -1.46876840304063      0.06829895202131     -0.72396955787254
  H   -1.45673824128275     -1.04607166559472      0.68373525770041
  N   0.63501869655896     -1.57991814323704     -0.75880963477091
  H   1.60436212458626     -1.87196658694407     -0.79431791062268
  H   0.29407930083309     -1.40143239017920     -1.69694001009787
  N   1.11203245978033      0.81520450826684     -0.67718763311746
  O   0.53505812563466      1.08326366763296     -1.72776668003880
  O   2.11803059440472      1.34082685373429     -0.23905693763229
  N   -1.29264796853051      0.98652524583344      1.13822251643128
  O   -0.58492458697490      1.98185947972725      1.01624961807832
  O   -2.24114985470269      0.85721855778639      1.90468582901861
