14
Coordinates from ORCA-job run
  C   0.61899778618899     -0.16975576337853      0.08638771510663
  C   -0.68490589453378      0.64205542611226      0.16422567978582
  Cl  1.15038629917836     -0.54826990642765      1.71594577334524
  H   -1.05033383920656      0.83611144078844     -0.84457510520438
  H   -0.53735992786308      1.56674483107325      0.72027900691881
  N   0.65845231105109     -1.34143344106712     -0.71880604746407
  H   0.04347942233545     -2.04603852036009     -0.33210133928311
  H   0.35802431348040     -1.11805410846824     -1.66061064859387
  N   1.60298510753255      0.81573493085035     -0.58492862524571
  O   2.52561424416630      1.29255843107393      0.05117449153526
  O   1.31896370705162      1.04225532310551     -1.75881513184115
  N   -1.73804279250483     -0.12894267453789      0.87857117172987
  O   -2.05826910419918     -1.20952701912720      0.38480350311219
  O   -2.20999163267733      0.36656105036298      1.89644955609848
