14
Coordinates from ORCA-job run
  C   0.58311283151459     -0.28121055862432     -0.02458198356321
  C   -0.55042241287351      0.66433293356533      0.40703308487773
  Cl  1.11624873312954     -1.20409147390416      1.36966550591952
  H   -0.21572133065556      1.34473671610224      1.18870939075301
  H   -0.92065276594671      1.20534867829018     -0.46415076599738
  N   0.37403913022532     -1.15234796248955     -1.12894586304333
  H   0.06616940955691     -0.61768622267896     -1.93287958437946
  H   -0.33050970923108     -1.84123885041066     -0.89869215544260
  N   1.69338889116439      0.69230378842068     -0.48183346984724
  O   2.71611486352557      0.80816163891847      0.16943652392119
  O   1.39790370998000      1.30010749578776     -1.50806932489067
  N   -1.69044856245877     -0.11126619257280      0.96597040486883
  O   -2.22995338432364     -0.91716716942431      0.20859072516473
  O   -2.00926940360707      0.10901717902009      2.12974751165888
