14
Coordinates from ORCA-job run
  C   0.56649251906923     -0.36739578473717     -0.02952041960303
  C   -0.48728380754054     -0.07460234801568      1.01912822974694
  Cl  1.84789225501262     -1.36611425502056      0.81461347636192
  H   -0.08528190300399      0.58379922685465      1.78629691760288
  H   -0.86429185788750     -1.00004770393015      1.44981062873024
  N   0.01912979012013     -0.92641950759768     -1.18029472791209
  H   -0.45420066578432     -1.80166199224822     -1.00316403876461
  H   0.68464871177948     -1.00133579550868     -1.93727780657001
  N   1.32107778774964      0.91268094474325     -0.42082712530068
  O   1.54824883129390      1.70892077579545      0.47507132934230
  O   1.67882263262649      0.99296012860198     -1.58799329692079
  N   -1.64209049121332      0.61158416287604      0.36942444791322
  O   -2.72075355935647      0.02528644209256      0.38430121877555
  O   -1.41141024286536      1.70334570609421     -0.13856883340186
