14
Coordinates from ORCA-job run
  C   0.48411633336384     -0.19321216361066     -0.15889148205986
  C   -0.56296764344658      0.70035637399036      0.48418897716221
  Cl  1.16033111239356     -1.27546096252185      1.14859233282617
  H   -0.12928851369471      1.29493181714335      1.28017922287339
  H   -1.01860836161425      1.33475192655444     -0.27779129676552
  N   0.04868088510035     -0.83188479838662     -1.31774989554256
  H   -0.82831446084212     -1.31374724855260     -1.17104052311376
  H   0.76015834992710     -1.43482848791097     -1.70935482676861
  N   1.68345960046027      0.67447469312903     -0.57000998893958
  O   2.50848933412398      0.12167103402662     -1.28096416635205
  O   1.71619729616859      1.83094005227332     -0.16764214868173
  N   -1.65920270308706     -0.10910607975880      1.09729180525377
  O   -1.94373758110426      0.13646962638790      2.26342239535659
  O   -2.22031364774868     -0.93735578276353      0.38076959475154
