14
Coordinates from ORCA-job run
  C   0.51331894572063     -0.27798944149389      0.03516319832870
  C   -0.51390007652925      0.76345473716290      0.46128479203037
  Cl  1.32711617302914     -1.01146079634555      1.43413074512580
  H   -0.79781659999768      1.37764050619660     -0.39347665328922
  H   -0.13042594704625      1.37682030509979      1.27027687837581
  N   -0.03727093892828     -1.27271736288529     -0.77143607800682
  H   0.66404962167117     -1.89340741378367     -1.15143739515708
  H   -0.64734799783220     -0.91025304572383     -1.49209082509731
  N   1.65773741951639      0.53101306736925     -0.67406051838878
  O   2.23614686080168     -0.04752374876238     -1.58372933649959
  O   1.89102299921670      1.65710913056896     -0.25227413856082
  N   -1.74885817692761      0.07621868312397      0.92846241901981
  O   -1.81137699873424     -0.21784069514233      2.11763349080926
  O   -2.60339528396022     -0.15006392538453      0.07355342130986
