14
Coordinates from ORCA-job run
  C   0.51220748985018     -0.16004288009009     -0.09381658942907
  C   -0.67108217627100      0.71887317458262      0.27522335126957
  Cl  1.24378078076744     -0.77933285724980      1.46103030214351
  H   -0.35879473906237      1.54877154415286      0.89884741879366
  H   -1.15999859799544      1.07099988022179     -0.63448358631129
  N   0.22222682465009     -1.12162290742641     -1.05954163380467
  H   1.02247658900305     -1.70472476654579     -1.26637607133486
  H   -0.59589860894063     -1.66245407222841     -0.81213407312623
  N   1.61620772984149      0.72763477112840     -0.68796418671191
  O   1.48433957872811      1.94191217464996     -0.59524219843202
  O   2.54063486501125      0.12864606384873     -1.21553781799062
  N   -1.68864086560374     -0.04937962885151      1.05410909233096
  O   -2.10878810102081     -1.09467468161110      0.55891941519979
  O   -2.05667076895761      0.43639418541874      2.11696657740319
