14
Coordinates from ORCA-job run
  C   0.57982319656251     -0.33451705687249      0.09247947494552
  C   -0.61902136396293      0.02143756893033      0.94786627359313
  Cl  1.77473334967893     -1.14513526637662      1.21775564743689
  H   -1.01277071062762     -0.86493193008621      1.44117215914725
  H   -0.35419168346399      0.79145720737514      1.66936278511961
  N   0.21931633284009     -1.06089492517316     -1.03858855947625
  H   0.98548699568276     -1.18675904244383     -1.68575996645199
  H   -0.23380084728758     -1.93575275077810     -0.81304687968492
  N   1.32624435294230      0.93101883595515     -0.35860030797448
  O   1.83716726344274      0.88916014058106     -1.46940065838262
  O   1.39482823570558      1.84253114886288      0.44921607635794
  N   -1.70165424579825      0.55320846563684      0.06919992288044
  O   -1.45095253194381      1.58771745806708     -0.53914477249594
  O   -2.74520834377074     -0.09153985367809      0.01648880498543
