14
Coordinates from ORCA-job run
  C   0.59182900815268     -0.26379623870377     -0.00870217818306
  C   -0.56653732049172      0.68433223024182      0.34374463033789
  Cl  1.18246745876247     -1.01060583075338      1.46611546734366
  H   -0.24053774769554      1.45955319556806      1.03571551937691
  H   -0.97476199229926      1.11196642217045     -0.57247081422242
  N   0.39410354603218     -1.25711059683885     -1.00721480357816
  H   0.05970196784327     -0.82199946359875     -1.85925551894533
  H   -0.28808700520855     -1.93381828729548     -0.68966927003677
  N   1.65793999588244      0.69081484594595     -0.59272707800113
  O   2.68822882663995      0.91002967227549      0.01861973939124
  O   1.32107726175890      1.17286676681677     -1.67171492579138
  N   -1.66602374242351     -0.06003653270789      1.01530468619124
  O   -2.17949517248656     -0.97725875800496      0.37567771646186
  O   -1.98090508446673      0.29406257488454      2.14657682965546
