14
Coordinates from ORCA-job run
  C   0.56433302540228     -0.24754075521389      0.15272216831497
  C   -0.93558610195120     -0.26482471106864      0.38859333635430
  Cl  1.40863704701810      0.35859402679870      1.56580638610299
  H   -1.45172767480341     -0.54375590318435     -0.53139669567286
  H   -1.15699243029855     -0.96291764173668      1.19159316829014
  N   0.98758367224173     -1.57584345280890     -0.13121430213367
  H   1.99828421482279     -1.63913052218412     -0.15733086824139
  H   0.59997492893366     -1.88202196276108     -1.01674733548106
  N   0.86954746309267      0.67898360713636     -1.06868998229304
  O   0.24957868653546      0.34063772621908     -2.07332665098412
  O   1.70433159355478      1.56024343240829     -0.98472958551172
  N   -1.47161850469675      1.06459578889291      0.79476491598782
  O   -1.07216151302160      2.03943443457209      0.16458303198343
  O   -2.29318440682995      1.07354593293022      1.70537241328420
