14
Coordinates from ORCA-job run
  C   0.54372649080314     -0.29446170413193      0.01885567963645
  C   -0.95005426972637     -0.18862826802279      0.29901561560881
  Cl  1.55464887888476      0.06447786964439      1.46644310122146
  H   -1.20992136748335     -0.95194000400420      1.03530295530357
  H   -1.47770548331091     -0.36398933467692     -0.63562576396368
  N   0.78724802632004     -1.56226112526934     -0.55551440306524
  H   1.73539409741546     -1.60755711236116     -0.91098710399051
  H   0.64126170409696     -2.29951324041396      0.12233846197092
  N   0.97192459771801      0.74068238752646     -1.02253262854694
  O   0.29145878030440      1.75462336197104     -1.10220463967857
  O   1.97862269719212      0.47698282370795     -1.66502788366089
  N   -1.47370544483300      1.10351110212099      0.84246625459694
  O   -2.36507154635527      1.63787153907686      0.19151656039018
  O   -1.02682716102600      1.48920170483260      1.91595379417750
