14
Coordinates from ORCA-job run
  C   0.61217488757822     -0.22479077768308      0.12812461124966
  C   -0.90778953869587     -0.22373206409711      0.25005342311354
  Cl  1.32818732156368      0.25805403608744      1.65438491377212
  H   -1.34687966135307     -0.40916210721176     -0.73136756103331
  H   -1.21562286611690     -0.98003315238274      0.96947156292333
  N   1.16388759707170     -1.48082659550760     -0.28081885900993
  H   1.10307544757722     -2.16610971537979      0.46014968115334
  H   0.70933521101833     -1.81472576489857     -1.12215778996577
  N   1.01731019687047      0.74582506101174     -0.99989108987870
  O   1.80250385739722      1.64674354579565     -0.78245824534066
  O   0.50395088109524      0.44657351094051     -2.07388466964266
  N   -1.45282101991145      1.07815119180498      0.72987019024607
  O   -2.26570408290137      1.04169412906984      1.64792774512442
  O   -1.05260823119342      2.08233870245048      0.14759608728855
