14
Coordinates from ORCA-job run
  C   0.56517779724516     -0.36958786628050     -0.01731562760341
  C   -0.49509834076172     -0.05102868821607      1.01703526230849
  Cl  1.83633034863789     -1.35578297476893      0.85816518125422
  H   -0.87721635479572     -0.96600527261254      1.46520310547838
  H   -0.09684691471627      0.62353993660417      1.77193565468317
  N   0.02495980571381     -0.94874518663094     -1.16079348383518
  H   0.69711217481017     -1.04737819590070     -1.90908778652166
  H   -0.46234792341772     -1.81346042748917     -0.97054598983988
  N   1.32923738108415      0.89934928599335     -0.42867482404495
  O   1.55114088518696      1.71396919076691      0.45193422734432
  O   1.69856047215329      0.95260361358167     -1.59380058980845
  N   -1.64318497371447      0.62281423940580      0.34316578433970
  O   -1.41047114821550      1.71100759788151     -0.17166762850014
  O   -2.71835320921004      0.02970474766544      0.34544671474538
