14
Coordinates from ORCA-job run
  C   0.53424078025451     -0.33689847702038      0.06554758676878
  C   -0.92067929420704     -0.17237850748333      0.46785164317899
  Cl  1.59583886856039     -0.00133216210892      1.42101301233938
  H   -1.16090419632404     -0.91175107186305      1.22730232768394
  H   -1.56151227430470     -0.28260525604693     -0.40835629592905
  N   0.72597365436667     -1.67452533489984     -0.37977378539418
  H   1.70862711474506     -1.87379593836207     -0.52426069665770
  H   0.21249654857862     -1.83110884494205     -1.23999157884659
  N   0.84953833765625      0.65958502002697     -1.09675535644825
  O   0.08872266664006      0.51544789719164     -2.04998777374085
  O   1.80996568542232      1.40378435783190     -1.03174560746537
  N   -1.21280237642432      1.16939857749973      1.04592340707437
  O   -0.73397353666914      2.13957207173107      0.46581532270174
  O   -1.93553197829463      1.19760766844527      2.03641779473479
