14
Coordinates from ORCA-job run
  C   0.48905537507294     -0.30867611613730     -0.07916491137716
  C   -0.98692825886517     -0.14624380762815      0.21363574005422
  Cl  1.39787323739232     -0.50242782387370      1.46001884549886
  H   -1.50814700709864      0.13947562401225     -0.69886715033995
  H   -1.39012016320636     -1.08029812894725      0.60256044000298
  N   0.66777235276701     -1.37439129757329     -0.99491917716723
  H   1.65081299888504     -1.48816081024918     -1.21723269911231
  H   0.30967398305585     -2.24446249029831     -0.62170235040235
  N   1.05080211077594      0.91216125272679     -0.82536980535925
  O   0.23886951173457      1.63438029238597     -1.38446438257056
  O   2.26904286910538      0.98672575125381     -0.88715515512850
  N   -1.30232494313568      0.89681572539506      1.23571312996529
  O   -0.54597870563386      1.85539147044005      1.33436595037466
  O   -2.34140336084935      0.71971035849326      1.86358152556131
