14
Coordinates from ORCA-job run
  C   0.51007548931989     -0.36987898400684      0.07866006939438
  C   -0.93876478873233     -0.10903996232887      0.45076759098323
  Cl  1.56472173392599     -0.08922435828713      1.45205518805562
  H   -1.56873760584982     -0.18586815762315     -0.43678926875308
  H   -1.24057956271879     -0.82403734562724      1.21159572543659
  N   0.62504127174891     -1.72084792411705     -0.35178943534367
  H   0.11748606530676     -1.85347020979159     -1.21954380437547
  H   1.59544742027174     -1.98308216543972     -0.47734265225071
  N   0.91031402683036      0.59375249420859     -1.08529707385097
  O   0.15960388963702      0.49052795229380     -2.05168820119688
  O   1.91571125033119      1.27470719523639     -1.00799720223086
  N   -1.15435910269146      1.25396266721112      1.01262647430417
  O   -0.60600722451064      2.18653130588153      0.43247817675282
  O   -1.88895286286882      1.33696749239017      1.99126441307484
