14
Coordinates from ORCA-job run
  C   0.56216135233529     -0.35418983039374      0.00575557886451
  C   -0.93922249383550     -0.15037683500628      0.17779500060533
  Cl  1.30486646102768     -0.63088805504584      1.57001689776781
  H   -1.38942451172247     -1.06581827454742      0.55665417777586
  H   -1.37446738317400      0.13808425152735     -0.78016132693389
  N   0.90730409842259     -1.42344440048052     -0.88138298779874
  H   0.42400122264082     -1.32547877219305     -1.76608075894223
  H   0.71616900129598     -2.32306084769744     -0.46135492107694
  N   1.15598699958092      0.89851382244303     -0.66948928238289
  O   2.07311916862239      1.50099854586195     -0.14837600080580
  O   0.63239846904290      1.13089432709092     -1.75512995986960
  N   -1.27302488439987      0.93070593225366      1.14862762598861
  O   -0.69559486811832      2.00239776778348      0.98822799892694
  O   -2.10427263171842      0.67166236840390      2.01289795788103
