14
Coordinates from ORCA-job run
  C   0.57773844536448     -0.34484112383856      0.06493030987199
  C   -0.61472187729064     -0.04297732650664      0.94954673159150
  Cl  1.77080235017812     -1.24371189363720      1.12350028790278
  H   -0.34016083007807      0.67037840619348      1.72379731203540
  H   -1.01338583180589     -0.95964444534830      1.37941572494767
  N   0.20736414741859     -0.98495103266306     -1.11388959124412
  H   -0.25396960151459     -1.86921961606253     -0.95037393114269
  H   0.96959975923518     -1.07066966614315     -1.77207903589228
  N   1.33180508060587      0.94454518030541     -0.29676264006958
  O   1.41145715126433      1.79398798774786      0.57524265681253
  O   1.83620903488889      0.98069989854488     -1.41071412242679
  N   -1.69660263155339      0.56070967497986      0.11811872473926
  O   -1.43916559578933      1.63411661345200     -0.41553090176372
  O   -2.74696960092355     -0.06842265702404      0.02579847463805
