14
Coordinates from ORCA-job run
  C   0.50819317599646     -0.28982858999310      0.00022334369302
  C   -0.51390953304407      0.68655729687671      0.56915445869290
  Cl  1.27306370057077     -1.26004862866635      1.27735068384130
  H   -0.14244850085890      1.15032990093730      1.47721249114736
  H   -0.76610571850249      1.43870252778835     -0.17860757030923
  N   -0.03575272660338     -1.12644431496305     -0.97323850662723
  H   -0.62349796907520     -0.63823112224198     -1.63587314110247
  H   0.66706268807589     -1.68613129202472     -1.43620983921603
  N   1.68281299397660      0.60277953660122     -0.53776019225151
  O   1.92149143976795      1.63936766179616      0.06960414979455
  O   2.27674303647836      0.17128221334867     -1.51645729814769
  N   -1.77088987737220     -0.04459666698325      0.88715685497354
  O   -1.86980705394223     -0.52737481940075      2.01036105497486
  O   -2.60495565546754     -0.11236370307520     -0.01391648946338
