14
Coordinates from ORCA-job run
  C   0.54664609625393     -0.31714455837431      0.06099840851096
  C   -0.88426212340383     -0.14937598362385      0.54069469964241
  Cl  1.68108545082870      0.16775156028709      1.30794430699263
  H   -1.05521496824493     -0.82064336514971      1.37815787160778
  H   -1.57559938201889     -0.35456509480518     -0.27816884423826
  N   0.74900460149585     -1.68537749053326     -0.27183140866390
  H   1.72567785265958     -1.87397716838511     -0.46353126633626
  H   0.18562802071423     -1.93402117392148     -1.07738822439091
  N   0.75892907330926      0.57426337822344     -1.20567301159166
  O   -0.05574172299707      0.32446595466745     -2.09002271250222
  O   1.69984125107205      1.34288204522343     -1.27173073683541
  N   -1.17759500223865      1.23310875564117      1.01224962889260
  O   -1.83612332266000      1.33665668399556      2.04174226663482
  O   -0.76527582477023      2.15597645675475      0.31555902227743
