14
Coordinates from ORCA-job run
  C   0.52711991930376     -0.25244551127745      0.02193235283215
  C   -0.53860932155281      0.73806472886552      0.47445043201634
  Cl  1.41133410806894     -0.94271972706276      1.39970483264084
  H   -0.16509155302189      1.37042870329992      1.27338371289512
  H   -0.87455010237088      1.33661560003822     -0.37249001134962
  N   0.00514100894563     -1.27483639554292     -0.76978476858062
  H   0.72755792237253     -1.85964859003524     -1.16713182026666
  H   -0.63705175467888     -0.94180750873803     -1.47677880312154
  N   1.61135606139618      0.61001819389201     -0.71759536611469
  O   1.79950172872983      1.74733508150939     -0.30339188046145
  O   2.19386731630667      0.05858877710959     -1.64133348928415
  N   -1.72591488487425     -0.00878009717849      0.97327017632591
  O   -2.58994992259628     -0.27806467921840      0.14080099492969
  O   -1.74371052602855     -0.30274857566137      2.16396363753868
