14
Coordinates from ORCA-job run
  C   0.55025799768058     -0.17612145177722      0.09052336764380
  C   -0.66106386456302      0.71562956045890      0.33397954150456
  Cl  1.39607251282828     -0.56507593093194      1.60387100309823
  H   -0.43363109835479      1.48722054730575      1.06240751521051
  H   -0.99576297609215      1.15360030642234     -0.60654679942947
  N   0.22204705571487     -1.35003743317838     -0.58707230682397
  H   -0.39698627895250     -1.19608475889048     -1.37211837964762
  H   1.04004689529758     -1.87995087125555     -0.85511808065206
  N   1.57865037261850      0.71951965159683     -0.68698100466736
  O   1.59241580099703      1.91514891123790     -0.42083543023880
  O   2.29861652220410      0.13624221534707     -1.48588218295142
  N   -1.78608945271622     -0.11140126350432      0.85044498811596
  O   -2.54056191830980     -0.59290987240393      0.00725379356923
  O   -1.86401156835246     -0.25477961042697      2.06607397526842
