14
Coordinates from ORCA-job run
  C   0.57300036632435     -0.23887758815621      0.13247038852071
  C   -0.90741444792061     -0.23004052908652      0.47002051139388
  Cl  1.51171400759475      0.46529832414637      1.43622504023345
  H   -1.07406801858363     -0.86466902858970      1.33640834145038
  H   -1.48495078505878     -0.57396586820665     -0.38946436468130
  N   0.97508905619453     -1.58694699260943     -0.08026238295775
  H   0.52966578033018     -1.95496380752132     -0.91351640741918
  H   1.98181524599096     -1.65809648636960     -0.16782088650848
  N   0.79558559600079      0.59328624819595     -1.17222304585999
  O   1.63572889335678      1.47266988007292     -1.20980632483520
  O   0.10948154471473      0.18510858973941     -2.10541722945073
  N   -1.41418498438875      1.12904718063607      0.81046873175462
  O   -1.05655647010891      2.05238385899286      0.08473557328905
  O   -2.17490578444639      1.20976621875583      1.76918205507053
