14
Coordinates from ORCA-job run
  C   0.51782578417529     -0.25392114382739     -0.09635796426236
  C   -0.86839149120603     -0.17507161595027      0.50581034667979
  Cl  1.74009006946914      0.26122899182367      1.11720939540846
  H   -1.61168070448550     -0.32718003276966     -0.27543153234632
  H   -0.97655517679324     -0.93134974398796      1.28216414365683
  N   0.72812190329924     -1.55598430755948     -0.61285944509196
  H   1.64667036462714     -1.62335214636782     -1.03767087422921
  H   0.64650282973380     -2.25724669645566      0.11249006725925
  N   0.64457498301730      0.65378913479869     -1.33042181757681
  O   1.78081387182667      0.85204442072299     -1.73460616217625
  O   -0.39850672123918      1.00193002058971     -1.86396892338160
  N   -1.18647597877447      1.13182785550271      1.15582739295405
  O   -0.63876840759323      2.13985259677484      0.72581850275331
  O   -2.02522132605693      1.08243266670565      2.04999687035283
