14
Coordinates from ORCA-job run
  C   0.66451310301503     -0.46274736950721      0.02919532706868
  C   -0.47201314942332     -0.06630828223168      0.98417269120788
  Cl  1.86650107573385     -1.30464880011432      1.01442746016472
  H   -0.09620879128013      0.54716109724632      1.80012677776321
  H   -0.97162146009303     -0.96481233833701      1.34426704849528
  N   0.37109826938867     -1.24011179447438     -1.11429119552045
  H   -0.33278940959193     -0.79843424769809     -1.69175420760718
  H   0.07219459534893     -2.16844426707195     -0.84689913795889
  N   1.25323199712766      0.88313256424745     -0.45135237169406
  O   1.89621121164089      1.53052259795747      0.36012894835056
  O   0.93788833706749      1.22022058142671     -1.58589215993544
  N   -1.48386093789804      0.74159000328337      0.24548505191847
  O   -2.22238215760124      0.12758552664073     -0.52461001169522
  O   -1.48276268343483      1.95529472863257      0.43599577944243
