16

C	-0.54957	0.015006	-1.424201
C	0.0	0.0	0.0
Br	-0.027326	-1.615324	-2.402409
H	1.100021	0.0	0.0
H	-0.040979	0.819952	-1.954599
C	-2.056403	0.166649	-1.498592
H	-2.328745	1.109216	-1.02
H	-2.550642	-0.653322	-0.976129
H	-2.396708	0.186476	-2.535682
N	-0.557502	-1.125744	0.764687
H	-0.341592	-1.981716	0.262102
H	-0.017075	-1.175291	1.623423
N	-0.404122	1.267851	0.61096
H	0.354396	1.598761	1.194264
H	-1.214237	1.090682	1.193865
Cl	3.518762	0.0	0.0
