16

C	-0.315057	-0.006262	-1.49319
C	0.0	0.0	0.0
Br	-2.255567	-0.202437	-1.854587
H	1.10655	0.0	0.0
H	0.120495	-0.912035	-1.92078
C	0.212297	1.223982	-2.202492
H	-0.322607	2.114131	-1.866407
H	1.27605	1.31827	-1.959007
H	0.098703	1.140903	-3.285287
N	-0.450885	-1.161716	0.738892
H	-1.39492	-1.402003	0.452244
H	0.164976	-1.941193	0.539943
N	-0.558475	1.189756	0.642679
H	-0.490467	1.00424	1.637617
H	0.06483	1.971585	0.458516
Cl	3.506336	0.0	0.0
