16

C	-0.490514	0.01249	-1.454676
C	0.0	0.0	0.0
Br	0.133938	-1.602696	-2.398265
H	1.101174	0.0	0.0
H	0.020897	0.825712	-1.973226
C	-1.997954	0.100898	-1.621994
H	-2.367781	1.046261	-1.214619
H	-2.277768	0.062335	-2.675883
H	-2.477251	-0.719037	-1.089719
N	-0.597568	-1.12451	0.718865
H	-0.179273	-1.978571	0.364983
H	-0.281289	-1.023017	1.676972
N	-0.384073	1.206729	0.720558
H	-1.363648	1.422816	0.588215
H	0.190825	1.983773	0.420302
Cl	3.570821	0.0	0.0
