16

C	-0.566217	0.020375	-1.416909
C	0.0	0.0	0.0
Br	0.069783	-1.511437	-2.457748
H	1.093256	0.0	0.0
H	-0.156516	0.892818	-1.924457
C	-2.084085	0.031006	-1.446624
H	-2.450739	0.910685	-0.9088
H	-2.457193	0.075525	-2.47167
H	-2.474444	-0.876574	-0.98158
N	-0.432082	-1.192562	0.721874
H	0.302348	-1.468413	1.36254
H	-1.272988	-1.008634	1.257187
N	-0.373668	1.29601	0.601716
H	-1.208466	1.196011	1.165922
H	0.38012	1.579918	1.213797
Cl	3.475107	0.0	0.0
