16

C	-0.520128	-0.064066	-1.433927
C	0.0	0.0	0.0
Br	-0.241674	1.647826	-2.384735
H	1.101268	0.0	0.0
H	-1.607389	-0.178341	-1.414219
C	0.16312	-1.163767	-2.222239
H	1.243113	-1.004443	-2.215793
H	-0.19764	-1.195552	-3.25272
H	-0.052187	-2.112945	-1.729826
N	-0.431824	-1.244115	0.636982
H	0.292122	-1.550132	1.278458
H	-1.275593	-1.037866	1.16516
N	-0.568083	1.140192	0.731419
H	-0.349753	1.990328	0.222177
H	-0.046206	1.204449	1.601423
Cl	3.541867	0.0	0.0
