16

C	-0.326974	-0.027382	-1.486144
C	0.0	0.0	0.0
Br	-2.298359	0.072248	-1.780122
H	1.098814	0.0	0.0
H	-0.064237	-1.01206	-1.870812
C	0.354725	1.076982	-2.262323
H	0.172967	0.983269	-3.334978
H	1.429681	1.00016	-2.06251
H	0.006322	2.05821	-1.935019
N	-0.479811	-1.216604	0.631385
H	-1.462366	-1.087841	0.855494
H	0.012477	-1.295687	1.515059
N	-0.408011	1.221012	0.695395
H	0.329273	1.910642	0.626039
H	-1.255417	1.602317	0.289824
Cl	3.467084	0.0	0.0
