16

C	-0.558967	0.088149	-1.41616
C	0.0	0.0	0.0
Br	-0.027043	-1.480051	-2.488907
H	1.094136	0.0	0.0
H	-0.062129	0.926267	-1.905279
C	-2.068429	0.229518	-1.47271
H	-2.417724	0.302957	-2.50462
H	-2.347397	1.142579	-0.940779
H	-2.552531	-0.622569	-0.993998
N	-0.546933	-1.168232	0.70944
H	-0.399467	-1.987063	0.123769
H	0.054632	-1.304426	1.519889
N	-0.405321	1.232138	0.679911
H	0.35459	1.531233	1.281123
H	-1.208102	1.013631	1.259076
Cl	3.513614	0.0	0.0
