16

C	-0.551245	0.074935	-1.421203
C	0.0	0.0	0.0
Br	-0.017146	-1.505888	-2.472189
H	1.094135	0.0	0.0
H	-0.048432	0.906277	-1.914916
C	-2.059852	0.219959	-1.488929
H	-2.548479	-0.629742	-1.011154
H	-2.33898	1.134559	-0.960757
H	-2.400209	0.291952	-2.523907
N	-0.554202	-1.157967	0.717294
H	-0.001211	-1.254051	1.56421
H	-0.353779	-1.989428	0.169851
N	-0.407182	1.239589	0.665365
H	0.358128	1.555715	1.248021
H	-1.204149	1.03145	1.256497
Cl	3.515767	0.0	0.0
