13

C	-0.269981	0.109931	-1.50428
C	0.0	0.0	0.0
Cl	-2.028138	0.26826	-1.865367
H	1.098472	0.0	0.0
H	0.016704	-0.847594	-1.953854
N	0.435852	1.261395	-1.985634
H	0.436803	1.270002	-2.99802
H	1.40068	1.199389	-1.657597
C	-0.50939	-1.245486	0.558928
N	-0.909921	-2.256677	1.000939
C	-0.494522	1.157736	0.737786
N	-0.883769	2.082485	1.347033
Cl	3.186036	0.0	0.0
