13

C	-0.342834	-0.09937	-1.501602
C	0.0	0.0	0.0
Cl	-0.095523	1.564475	-2.256751
H	1.097502	0.0	0.0
H	-1.402004	-0.298811	-1.671142
N	0.468323	-1.118112	-2.037975
H	1.44907	-0.958101	-1.809539
H	0.346733	-1.219385	-3.035737
C	-0.473309	-1.211213	0.671678
N	-0.888969	-2.167781	1.211432
C	-0.544384	1.176795	0.666557
N	-1.004695	2.098179	1.230471
Cl	3.202635	0.0	0.0
