13

C	-0.350879	-0.095373	-1.499287
C	0.0	0.0	0.0
Cl	-0.083617	1.563258	-2.257203
H	1.097549	0.0	0.0
H	-1.413234	-0.279631	-1.661922
N	0.44047	-1.126595	-2.039723
H	0.310411	-1.22723	-3.036987
H	1.42463	-0.978624	-1.819516
C	-0.471539	-1.210295	0.674904
N	-0.857008	-2.168579	1.23383
C	-0.542087	1.177411	0.668004
N	-1.003991	2.096193	1.234852
Cl	3.197831	0.0	0.0
