13

C	-0.397848	-0.03885	-1.479122
C	0.0	0.0	0.0
Cl	-2.214121	-0.447736	-1.617855
H	1.09678	0.0	0.0
H	0.096573	-0.890392	-1.944399
N	-0.040767	1.154738	-2.123031
H	-0.513898	1.963319	-1.741052
H	-0.170569	1.106694	-3.122721
C	-0.447505	-1.185311	0.727374
N	-0.787797	-2.148381	1.306179
C	-0.500446	1.216687	0.633464
N	-0.884844	2.225516	1.096196
Cl	3.178245	0.0	0.0
