13

C	-0.34208	-0.088666	-1.502309
C	0.0	0.0	0.0
Cl	-0.092937	1.582196	-2.242979
H	1.097526	0.0	0.0
H	-1.400441	-0.287219	-1.673733
N	0.469932	-1.102045	-2.046754
H	1.450776	-0.943458	-1.817677
H	0.347614	-1.197667	-3.045142
C	-0.47332	-1.215205	0.664751
N	-0.889013	-2.175041	1.198994
C	-0.544022	1.173234	0.672774
N	-1.005778	2.092179	1.239036
Cl	3.20242	0.0	0.0
