13

C	-0.270303	0.055449	-1.507228
C	0.0	0.0	0.0
Cl	-2.02972	0.19768	-1.872464
H	1.098439	0.0	0.0
H	0.016576	-0.91743	-1.922301
N	0.432738	1.189435	-2.030827
H	1.396986	1.144416	-1.697951
H	0.435365	1.159939	-3.042772
C	-0.508954	-1.224767	0.603801
N	-0.910617	-2.221392	1.077325
C	-0.494563	1.183645	0.695271
N	-0.884438	2.126172	1.276376
Cl	3.187007	0.0	0.0
