13

C	-0.33193	0.030618	-1.493226
C	0.0	0.0	0.0
Cl	-2.09927	0.126312	-1.778785
H	1.098479	0.0	0.0
H	-0.030239	-0.936236	-1.914055
N	0.306476	1.186583	-2.056284
H	0.116194	1.236306	-3.050036
H	1.311436	1.102493	-1.903377
C	-0.487	-1.21734	0.637643
N	-0.869232	-2.208447	1.137333
C	-0.488169	1.189226	0.690513
N	-0.869734	2.136885	1.26838
Cl	3.224962	0.0	0.0
