13

C	-0.442866	0.02297	-1.471833
C	0.0	0.0	0.0
Cl	0.024621	-1.505607	-2.255824
H	1.09703	0.0	0.0
H	0.161258	0.793954	-1.964446
N	-1.875788	0.180554	-1.586001
H	-2.144632	1.067204	-1.171799
H	-2.13689	0.19637	-2.564961
C	-0.534308	-1.148873	0.725989
N	-0.952218	-2.07056	1.320842
C	-0.448185	1.244031	0.628658
N	-0.851103	2.257006	1.067062
Cl	3.187201	0.0	0.0
