13

C	-0.533062	0.076783	-1.459875
C	0.0	0.0	0.0
Cl	-0.020778	1.651998	-2.188718
H	1.097159	0.0	0.0
H	-1.628232	0.155771	-1.429736
N	-0.055311	-1.015872	-2.20705
H	-0.597722	-1.273044	-3.017347
H	0.356672	-1.778173	-1.687964
C	-0.501565	-1.23482	0.58089
N	-0.92228	-2.242005	1.001481
C	-0.539362	1.125453	0.759794
N	-1.064677	1.98503	1.352307
Cl	3.207924	0.0	0.0
