13

C	-0.56049	0.048919	-1.434144
C	0.0	0.0	0.0
Cl	0.038826	1.542859	-2.228426
H	1.095745	0.0	0.0
H	-1.646801	0.200963	-1.376426
N	-0.156005	-1.095729	-2.184021
H	-0.757348	-1.234048	-2.98626
H	-0.130058	-1.930769	-1.613626
C	-0.476623	-1.224433	0.646523
N	-0.907818	-2.219033	1.099741
C	-0.465235	1.151096	0.771461
N	-0.854	2.073002	1.386004
Cl	3.177703	0.0	0.0
