13

C	-0.481118	0.06059	-1.456634
C	0.0	0.0	0.0
Cl	0.224106	-1.373648	-2.331115
H	1.094923	0.0	0.0
H	-0.018317	0.928407	-1.9264
N	-1.897777	0.144036	-1.542455
H	-2.325843	-0.689889	-1.155926
H	-2.193053	0.239962	-2.505499
C	-0.520448	-1.193327	0.665239
N	-0.966535	-2.161316	1.158768
C	-0.454075	1.201081	0.705781
N	-0.809532	2.175039	1.256854
Cl	3.190605	0.0	0.0
