13

C	-0.249769	-0.005036	-1.527534
C	0.0	0.0	0.0
Cl	-2.008013	0.056539	-1.88376
H	1.097988	0.0	0.0
H	0.112519	-0.963043	-1.903873
N	0.431315	1.051882	-2.215602
H	0.140159	1.948323	-1.838681
H	1.427063	0.941814	-2.022557
C	-0.524763	-1.180049	0.671729
N	-0.932888	-2.146557	1.199787
C	-0.483303	1.232798	0.609151
N	-0.853316	2.247652	1.070366
Cl	3.177707	0.0	0.0
