13

C	-0.341737	-0.096725	-1.501835
C	0.0	0.0	0.0
Cl	-0.099918	1.570049	-2.253326
H	1.097537	0.0	0.0
H	-1.399845	-0.300063	-1.671626
N	0.473965	-1.109956	-2.040787
H	1.453512	-0.945728	-1.810973
H	0.354344	-1.209451	-3.038764
C	-0.473284	-1.21271	0.668919
N	-0.890912	-2.170274	1.205453
C	-0.544831	1.174971	0.668689
N	-1.005921	2.094136	1.235356
Cl	3.203738	0.0	0.0
