19

C	0.0	0.0	0.0
C	-0.694454	-0.237851	-1.305873
F	1.347602	0.0	0.0
H	-1.728629	0.099377	-1.131606
N	-0.337692	1.362482	0.63213
O	0.200287	1.56406	1.716247
O	-1.030318	2.14621	-0.000596
N	-0.390821	-1.026062	1.062963
O	0.315196	-2.029559	1.092073
O	-1.361725	-0.776957	1.758666
C	-0.75606	-1.723991	-1.656149
H	0.231273	-2.192603	-1.652019
H	-1.187667	-1.81994	-2.655144
H	-1.414518	-2.25471	-0.968208
C	-0.024488	0.570063	-2.416647
H	-0.637362	0.497388	-3.317834
H	0.970032	0.175471	-2.644157
H	0.062313	1.626114	-2.160498
Cl	-3.951553	0.0	0.0
