19

C	0.0	0.0	0.0
C	-0.547842	-0.134905	-1.417382
F	1.389383	0.0	0.0
H	-1.639762	-0.012677	-1.384275
C	-0.460985	1.324169	0.579891
H	-1.551434	1.36855	0.550169
H	-0.123075	1.37266	1.617335
H	-0.034153	2.165895	0.034126
C	-0.485051	-1.15984	0.851652
H	-0.201257	-0.963869	1.887583
H	-0.020142	-2.090122	0.531645
H	-1.573906	-1.224312	0.792409
N	-0.263089	-1.433001	-2.112416
O	-0.976019	-1.656258	-3.088377
O	0.649385	-2.150808	-1.712476
N	0.033761	0.906148	-2.324479
O	1.05739	0.61865	-2.939829
O	-0.542266	1.98681	-2.354156
Cl	-3.721221	0.0	0.0
