19

C	0.0	0.0	0.0
C	-0.284735	-0.431358	-1.467668
F	1.398942	0.0	0.0
H	-0.26348	-1.512863	-1.560947
C	-0.490925	1.374723	0.375271
H	-1.582368	1.381375	0.367476
H	-0.132396	1.591477	1.385243
H	-0.106556	2.125438	-0.313067
C	-0.506073	-1.073925	0.931549
H	-0.044095	-2.036055	0.695558
H	-1.594604	-1.136145	0.836372
H	-0.257314	-0.806687	1.961427
N	0.815813	0.056456	-2.376867
O	1.428479	-0.815658	-2.992249
O	1.019077	1.261427	-2.446688
N	-1.54549	0.011877	-2.159627
O	-2.171662	-0.886521	-2.713734
O	-1.767154	1.21246	-2.216922
Cl	-3.878604	0.0	0.0
