19

C	0.0	0.0	0.0
C	-0.553383	-0.064032	-1.420009
F	1.388476	0.0	0.0
H	-1.648242	0.026637	-1.372451
C	-0.448059	1.304646	0.639118
H	-1.53723	1.373982	0.622214
H	-0.099074	1.306593	1.674202
H	-0.010588	2.162893	0.127038
C	-0.494242	-1.187581	0.806067
H	-0.075124	-2.11692	0.42479
H	-0.167351	-1.05494	1.840331
H	-1.58613	-1.210142	0.779032
N	-0.234807	-1.303498	-2.203367
O	0.641967	-2.06595	-1.809511
O	-0.887569	-1.433778	-3.236146
N	-0.006697	1.051369	-2.259139
O	1.067719	0.854905	-2.822301
O	-0.656158	2.091635	-2.284452
Cl	-3.727486	0.0	0.0
