19

C	0.0	0.0	0.0
C	-0.385399	-0.085426	-1.514314
F	1.38344	0.0	0.0
H	-0.647026	0.890106	-1.915408
C	-0.481225	1.333846	0.524732
H	-0.190562	1.439155	1.571521
H	-0.02794	2.147834	-0.049073
H	-1.571039	1.365781	0.44529
C	-0.465145	-1.154264	0.854596
H	-0.087385	-0.977482	1.865662
H	-1.555624	-1.176867	0.868116
H	-0.07237	-2.098104	0.481246
N	-1.472441	-1.008635	-2.01058
O	-1.586972	-2.118009	-1.514092
O	-2.061183	-0.583264	-3.000843
N	0.825465	-0.534941	-2.2939
O	1.144607	-1.715979	-2.213061
O	1.416423	0.33296	-2.931669
Cl	-3.724113	0.0	0.0
