19

C	0.0	0.0	0.0
C	-0.473507	0.060949	-1.487965
F	1.383914	0.0	0.0
H	-1.010304	-0.837504	-1.77085
C	-0.437134	1.159082	0.868179
H	-0.010536	2.092996	0.505459
H	-1.525704	1.218096	0.883088
H	-0.061786	0.960397	1.876271
C	-0.440125	-1.337024	0.562997
H	-0.020832	-2.147512	-0.040193
H	-0.064731	-1.432813	1.584857
H	-1.530873	-1.387253	0.564146
N	0.752132	0.132249	-2.356723
O	1.195511	-0.936317	-2.762172
O	1.232232	1.241665	-2.556622
N	-1.336851	1.176941	-2.020906
O	-1.91965	0.868569	-3.056825
O	-1.322612	2.280383	-1.499167
Cl	-3.606688	0.0	0.0
