14

C	-0.464628	-0.047703	-1.465438
C	0.0	0.0	0.0
F	0.07206	1.038095	-2.116853
H	1.101416	0.0	0.0
C	-0.0336	-1.279588	-2.150527
N	0.24684	-2.260774	-2.731592
C	-1.935816	0.053098	-1.547201
N	-3.105758	0.124534	-1.616301
C	-0.494433	-1.174331	0.709207
N	-0.916126	-2.093481	1.307746
N	-0.478788	1.253549	0.581424
H	-0.90065	1.092241	1.486244
H	0.334268	1.839429	0.727749
Br	3.35748	0.0	0.0
