14

C	-0.492324	0.073996	-1.447674
C	0.0	0.0	0.0
F	-1.885417	0.114704	-1.449266
H	1.095191	0.0	0.0
C	-0.01479	1.307991	-2.092079
N	0.319155	2.282911	-2.654296
C	-0.086529	-1.099509	-2.239838
N	0.182424	-2.033327	-2.898897
C	-0.492832	-1.242278	0.607249
N	-0.950049	-2.193889	1.124022
N	-0.4274	1.20275	0.689922
H	-1.29577	1.070621	1.189686
H	0.302979	1.487634	1.329281
Br	3.341891	0.0	0.0
