14

C	-0.487878	0.065377	-1.457665
C	0.0	0.0	0.0
F	-0.13372	-1.081451	-2.13181
H	1.094753	0.0	0.0
C	-1.962587	0.181402	-1.485407
N	-3.133973	0.268395	-1.477502
C	0.086984	1.236359	-2.140417
N	0.522213	2.18049	-2.686491
C	-0.488689	-1.237866	0.614373
N	-0.912236	-2.188689	1.160243
N	-0.439506	1.212027	0.668539
H	-1.259821	1.061721	1.240841
H	0.318945	1.564297	1.23975
Br	3.350718	0.0	0.0
