14

C	-0.457766	-0.003772	-1.466862
C	0.0	0.0	0.0
F	0.043789	1.134833	-2.063131
H	1.101393	0.0	0.0
C	0.032846	-1.183951	-2.200632
N	0.378297	-2.123389	-2.815492
C	-1.931137	0.043301	-1.561724
N	-3.101695	0.053648	-1.654527
C	-0.509361	-1.194086	0.664657
N	-0.922935	-2.143999	1.218649
N	-0.536207	1.219345	0.614026
H	0.152786	1.948174	0.447082
H	-0.577019	1.084507	1.617901
Br	3.387216	0.0	0.0
