14

C	-0.421802	0.008623	-1.48079
C	0.0	0.0	0.0
F	-1.81479	0.10214	-1.55289
H	1.095969	0.0	0.0
C	0.121165	1.200073	-2.153642
N	0.525782	2.149915	-2.712712
C	-0.020898	-1.209986	-2.198097
N	0.258117	-2.178924	-2.80072
C	-0.53228	-1.21428	0.624955
N	-0.981133	-2.178675	1.12293
N	-0.430185	1.183767	0.710305
H	0.28315	1.897056	0.632841
H	-1.32194	1.52973	0.38225
Br	3.340432	0.0	0.0
