14

C	-0.489647	0.051503	-1.457523
C	0.0	0.0	0.0
F	-0.131778	-1.099746	-2.122784
H	1.094713	0.0	0.0
C	-1.964209	0.163266	-1.486311
N	-3.135905	0.247564	-1.480886
C	0.081793	1.218325	-2.150271
N	0.507333	2.158041	-2.711184
C	-0.490554	-1.228544	0.627882
N	-0.916434	-2.177728	1.174742
N	-0.438271	1.220951	0.65628
H	0.333431	1.595499	1.19364
H	-1.234509	1.070043	1.259675
Br	3.352364	0.0	0.0
