14

C	-0.460771	0.060036	-1.470728
C	0.0	0.0	0.0
F	0.128496	1.142016	-2.072079
H	1.095095	0.0	0.0
C	-0.101627	-1.160883	-2.21545
N	0.136568	-2.136282	-2.824643
C	-1.926607	0.242523	-1.52942
N	-3.091948	0.386735	-1.555054
C	-0.499863	-1.230698	0.616752
N	-0.943579	-2.174852	1.158861
N	-0.4394	1.211231	0.669581
H	-1.210612	1.042842	1.300916
H	0.344236	1.595148	1.181591
Br	3.35507	0.0	0.0
