14

C	0.0	0.0	0.0
C	-0.701779	0.17387	-1.325529
F	1.356386	0.0	0.0
H	-0.404197	1.148476	-1.730872
H	-1.774332	0.213765	-1.079911
C	-0.438306	0.976976	1.006769
N	-0.676156	1.810648	1.798884
N	-0.348754	-1.419726	0.53628
O	0.595654	-2.154261	0.788694
O	-1.53528	-1.667623	0.645167
N	-0.394061	-0.951027	-2.193975
H	-1.255575	-1.342188	-2.5504
H	0.186478	-0.672251	-2.970351
Cl	-4.169897	0.0	0.0
