14

C	0.0	0.0	0.0
C	-0.597425	0.017329	-1.388712
F	1.355421	0.0	0.0
H	-1.66952	-0.168421	-1.252195
H	-0.147839	-0.812717	-1.936855
C	-0.440194	1.12817	0.832157
N	-0.685686	2.097088	1.448281
N	-0.372592	-1.315439	0.689145
O	-0.851818	-1.278071	1.812899
O	-0.072762	-2.322156	0.050414
N	-0.327372	1.313522	-1.999698
H	-1.202057	1.790187	-2.167378
H	0.160684	1.206564	-2.875052
Cl	-3.713066	0.0	0.0
