14

C	0.0	0.0	0.0
C	-0.470356	0.482014	-1.390428
F	1.36425	0.0	0.0
H	0.288666	0.076286	-2.065867
H	-0.35087	1.571447	-1.377019
C	-0.479948	0.791208	1.131442
N	-0.745067	1.5377	1.998836
N	-0.369579	-1.465806	0.207234
O	-0.794865	-1.807723	1.303717
O	-0.126939	-2.196966	-0.747531
N	-1.77142	0.127038	-1.85767
H	-2.542329	0.36458	-1.226969
H	-1.832554	-0.868682	-2.017105
Cl	-4.343661	0.0	0.0
