14

C	0.0	0.0	0.0
C	-0.682948	0.17859	-1.332009
F	1.356417	0.0	0.0
H	-1.761699	0.119455	-1.114987
H	-0.470422	1.19672	-1.68499
C	-0.440049	0.968407	1.013855
N	-0.674499	1.803471	1.805271
N	-0.339188	-1.432745	0.523144
O	-1.516612	-1.735622	0.530682
O	0.610701	-2.120523	0.870935
N	-0.26035	-0.881021	-2.229162
H	0.488098	-0.577212	-2.83748
H	-1.0416	-1.186472	-2.793706
Cl	-4.146867	0.0	0.0
