10
Coordinates from ORCA-job run
  C   -1.07737870766758     -0.08139620010070     -0.36496293856154
  C   0.11835228756946      0.59372485687312      0.25861832963203
  Br  -0.67677785169695     -0.68803314604143     -2.16345083260332
  H   0.52009893451494      1.39835295653926     -0.35305247278906
  H   -1.37502354079609     -0.95267003044946      0.21338467877875
  H   -1.90590769413916      0.62194317536169     -0.43915465273872
  H   -0.13962310374189      0.96586221451240      1.25430875251570
  N   1.23516440053391     -0.38053849856500      0.46872983211737
  O   0.93813053351894     -1.45387984508680      0.98500321993147
  O   2.36196474190441     -0.02336548304309      0.14057608371733
