15

C	-0.542697	0.300389	-1.389118
C	0.0	0.0	0.0
F	-0.230838	-0.755591	-2.196395
H	1.090269	0.0	0.0
H	-0.308131	-1.027992	0.220499
C	-2.028696	0.559125	-1.473766
H	-2.305031	0.709231	-2.519844
H	-2.564203	-0.310029	-1.086387
H	-2.299348	1.439011	-0.890628
N	0.14612	1.525151	-1.973882
O	0.138971	2.517198	-1.253372
O	0.560468	1.456265	-3.121175
C	-0.543563	0.870759	1.033988
N	-1.008269	1.563107	1.861023
Cl	3.303106	0.0	0.0
