15

C	-0.526097	0.038247	-1.426904
C	0.0	0.0	0.0
F	-1.904943	0.035801	-1.422072
H	1.091185	0.0	0.0
H	-0.351597	-0.917672	0.482299
C	-0.025066	1.20717	-2.237088
H	-0.384618	1.12398	-3.266847
H	-0.418756	2.127803	-1.800848
H	1.06849	1.224415	-2.214431
N	-0.089835	-1.246983	-2.133634
O	-0.950337	-2.074672	-2.411861
O	1.104751	-1.341076	-2.358784
C	-0.50992	1.150048	0.738102
N	-0.918912	2.084843	1.320018
Cl	3.299852	0.0	0.0
