15

C	-0.406562	0.083555	-1.460947
C	0.0	0.0	0.0
F	-0.137212	1.354177	-1.901195
H	1.093221	0.0	0.0
H	-0.374734	0.88188	0.523174
C	0.280797	-0.918312	-2.340965
H	-0.015403	-0.772035	-3.380277
H	0.033718	-1.934409	-2.03673
H	1.355181	-0.758698	-2.220122
N	-1.932035	-0.0296	-1.553257
O	-2.56951	0.874442	-1.020334
O	-2.413382	-1.006567	-2.122484
C	-0.510339	-1.213636	0.621729
N	-0.929785	-2.195853	1.109564
Cl	3.313508	0.0	0.0
