15

C	-0.494874	0.162681	-1.428591
C	0.0	0.0	0.0
F	-1.801024	0.590183	-1.433236
H	1.090991	0.0	0.0
H	-0.301868	0.910515	0.528799
C	0.366656	1.10864	-2.223379
H	1.40612	0.783152	-2.179578
H	0.012527	1.159003	-3.255995
H	0.291506	2.100084	-1.772719
N	-0.50378	-1.201491	-2.115525
O	0.59748	-1.662071	-2.395491
O	-1.591031	-1.733202	-2.319024
C	-0.574561	-1.148461	0.685838
N	-1.041094	-2.072723	1.240006
Cl	3.322889	0.0	0.0
