15

C	-0.425467	0.071197	-1.4521
C	0.0	0.0	0.0
F	-1.803563	0.142132	-1.560819
H	1.09321	0.0	0.0
H	-0.36915	-0.92079	0.452962
C	0.216116	1.195069	-2.209488
H	-0.098796	2.134284	-1.751165
H	-0.092215	1.17605	-3.253764
H	1.301094	1.105834	-2.132191
N	-0.096021	-1.279773	-2.097019
O	-0.504482	-2.272859	-1.501723
O	0.478553	-1.28269	-3.181042
C	-0.510503	1.152291	0.72906
N	-0.936676	2.079568	1.309149
Cl	3.298298	0.0	0.0
