15

C	-0.423551	0.158647	-1.445835
C	0.0	0.0	0.0
F	-1.801964	0.227272	-1.552793
H	1.091181	0.0	0.0
H	-0.369541	-0.946837	0.395412
C	0.212787	1.331265	-2.130506
H	-0.110836	2.238629	-1.617221
H	-0.090842	1.373994	-3.175401
H	1.298047	1.244519	-2.054333
N	-0.082987	-1.148269	-2.171071
O	0.500963	-1.081768	-3.248324
O	-0.489533	-2.178267	-1.640277
C	-0.512134	1.105849	0.797102
N	-0.941265	1.995384	1.431792
Cl	3.297803	0.0	0.0
