15

C	-0.5263	0.016752	-1.424823
C	0.0	0.0	0.0
F	-0.048141	-1.053315	-2.112652
H	1.094253	0.0	0.0
H	-0.324533	0.909306	0.510251
C	-2.031286	0.056363	-1.569603
H	-2.438702	0.93263	-1.066395
H	-2.289411	0.089503	-2.630544
H	-2.451583	-0.848902	-1.12984
N	0.013021	1.270518	-2.107385
O	0.581537	1.142698	-3.1806
O	-0.241187	2.327157	-1.53477
C	-0.524668	-1.163048	0.702848
N	-0.992578	-2.088921	1.252801
Cl	3.298943	0.0	0.0
