12
Coordinates from ORCA-job run
  C   -0.36827069586749     -0.02801036505455     -0.16726529734636
  C   0.96693468382784     -0.15521722037485     -0.24743353763162
  H   1.45585385342308     -0.96952481244824     -0.76657257463575
  C   -1.02153175031879      1.07223504142482      0.47897117894296
  N   -1.69128448533007      1.91448415503381      0.95552268428495
  C   -1.28448937837234     -1.05553453181894     -0.77545460467061
  H   -1.93068751049879     -0.58692901576148     -1.52154466602657
  H   -0.71739705099120     -1.85667728503332     -1.25069497992355
  H   -1.92843345415733     -1.48420776442284     -0.00404221765223
  N   1.91927043440953      0.81093273454980      0.28626144641407
  O   1.53751773246330      1.62245183573842      1.12391579402115
  O   3.06051762141226      0.71599722816737     -0.16766322577645
