12
Coordinates from ORCA-job run
  C   -0.36752274389907     -0.03307009479255     -0.16069052622522
  C   0.96786808489049     -0.11618339507632     -0.28556309622701
  H   1.46370955627542     -0.90281617268396     -0.83988148019731
  C   -1.03895345322985      1.01933602479542      0.54379854839694
  N   -1.73243197463804      1.81026827511236      1.07169188034162
  C   -1.26863791705098     -1.07116582954610     -0.77380043664002
  H   -1.87130636272397     -1.54769655005358      0.00300500818211
  H   -1.95577328733095     -0.59969001494662     -1.48038964784432
  H   -0.69207580776188     -1.83578927992012     -1.29554456069544
  N   1.91268480409911      0.85267997986933      0.25674137802944
  O   1.50848789379863      1.70627394097499      1.04005457472563
  O   3.07295120757109      0.71785311626717     -0.13542164184643
