12
Coordinates from ORCA-job run
  C   -0.36859172174522     -0.01488657946326     -0.19946676395664
  C   0.96742758000570     -0.15807018195934     -0.17180341136773
  H   1.46871050748026     -1.08267915143218     -0.42797804638201
  C   -1.05088840401617      1.19807450467130      0.14441542307342
  N   -1.75321542886032      2.10865513532046      0.39500239140356
  C   -1.25999431138427     -1.15749365413054     -0.60674606721426
  H   -1.94997033885193     -1.39995157476641      0.20491666293241
  H   -0.67628530636049     -2.04491933193373     -0.85384315331287
  H   -1.85941910004762     -0.87215190033792     -1.47444163992449
  N   1.90903596211330      0.88571617641544      0.21464933142330
  O   3.08933113707275      0.53261841864963      0.24121861098497
  O   1.48385942459401      2.00608813896655      0.47807666234033
