12
Coordinates from ORCA-job run
  C   -0.36414651846680     -0.03675911280706     -0.12601987950634
  C   0.95233149151806     -0.12939440321963     -0.37901600730070
  H   1.37851765022147     -0.87303438757172     -1.04029238353750
  C   -0.93971531752917      0.97711164716142      0.70775703081532
  N   -1.54982293573527      1.75406631614668      1.34754547730327
  C   -1.34227643445637     -1.00914124163429     -0.72777703487570
  H   -2.07103111722941     -0.47586517857584     -1.34273239154585
  H   -0.83242012314565     -1.75046206778895     -1.34411697088448
  H   -1.89238033686401     -1.52273354405460      0.06415672659249
  N   1.95511652210725      0.79210517854795      0.13994003431728
  O   3.02155681962025      0.79609786729330     -0.47659072214181
  O   1.68227029995965      1.47700892650274      1.12114612076404
