12
Coordinates from ORCA-job run
  C   -0.48867152020671      0.30853718082765     -0.06672710588233
  C   0.76875904117607      0.64734163060817      0.28035557779312
  H   1.03165908984052      1.57634669763650      0.77070940068760
  C   -1.50358188707150      1.24325086564232      0.32939740818900
  N   -2.35942899806479      1.98814170040113      0.64299651610202
  C   -0.95008192473873     -0.92752528434087     -0.78997842422177
  H   -1.90389781809874     -0.73300055326089     -1.28025105416962
  H   -0.21771259863868     -1.25777999909695     -1.52375888470351
  H   -1.08586456412985     -1.74357616431989     -0.07580600689724
  N   1.93062796861616     -0.16737736490727     -0.03701039161908
  O   1.78150989263337     -1.37910157518620     -0.19154648859798
  O   2.99568331868287      0.44474286599629     -0.11538054668021
