12
Coordinates from ORCA-job run
  C   -0.46356448603432      0.33758072165835     -0.15007394159805
  C   0.81510167326866      0.75686854352243     -0.18667408531602
  H   1.10917790703666      1.79710853460736     -0.24751942816060
  C   -1.45933469226836      1.37138931327888     -0.11108478097709
  N   -2.32251771575050      2.17056866851499     -0.07790148768838
  C   -0.99452480554516     -1.06846410324999     -0.14224039011495
  H   -1.85352509391739     -1.12967401166512     -0.81290867464292
  H   -1.33602659278355     -1.31739750301343      0.86547574111067
  H   -0.24151672747065     -1.79501138398374     -0.43432560721129
  N   1.94949789773241     -0.15252566050553     -0.23978280058928
  O   1.87277670671376     -1.22788774646210      0.35276459798827
  O   2.92345592901841      0.25744462729789     -0.87172914280035
