12
Coordinates from ORCA-job run
  C   -0.47133655973745      0.27260226516126      0.01225714107418
  C   0.78702154201586      0.51329220818038      0.42483246716952
  H   1.04398903210954      1.21582579560918      1.20766879470194
  C   -1.49474582949112      1.07429571271065      0.62234645699659
  N   -2.37909059961706      1.69653232726143      1.08660866849537
  C   -0.95433077232299     -0.72339480259596     -1.00494669628160
  H   -1.19880923831502     -0.19922651760691     -1.93184125791383
  H   -0.20648853496966     -1.47906146175607     -1.22907852177517
  H   -1.86575007019072     -1.19725593455890     -0.63540613110682
  N   1.94245144753730     -0.21212114557299     -0.08143722058702
  O   2.85438571690067     -0.37900649336510      0.72926275413611
  O   1.94270386608065     -0.57948195346698     -1.25526645490928
