12
Coordinates from ORCA-job run
  C   -0.36652757228847     -0.01932435458143     -0.21563415638943
  C   0.95087788167989     -0.15916593771164      0.01034910054906
  H   1.42075956875270     -1.11550041062874      0.20145252924061
  C   -0.99875769445852      1.23574869960823     -0.49836401382862
  N   -1.65699506877178      2.17870053233225     -0.74867607054860
  C   -1.28716549396130     -1.20964099743792     -0.18941032808055
  H   -1.78864780295265     -1.31494161954741     -1.15439331251919
  H   -2.06065761566771     -1.06747476642658      0.56906866570729
  H   -0.74041719919604     -2.12758308935972      0.02881112237005
  N   1.91741074193545      0.93189465971215     -0.01479145304817
  O   1.51117491081080      2.08825201734897     -0.07347677802224
  O   3.09694534411762      0.57803526669184      0.02906469456978
