12
Coordinates from ORCA-job run
  C   -0.49591334914841      0.30017803461922     -0.07475552916150
  C   0.75519224429570      0.70144361618562      0.22392980289853
  H   0.98914313229149      1.62715326115405      0.73470389081608
  C   -1.53519388197908      1.23047645160337      0.26393836567405
  N   -2.41247891565080      1.96961797453985      0.52866898287742
  C   -0.92460739830338     -0.98490193173145     -0.72935298542468
  H   -1.95092277757201     -1.21779499961843     -0.44547715517488
  H   -0.27027272259427     -1.81030646483203     -0.45625836941533
  H   -0.87975311402659     -0.87838009345383     -1.81608559604652
  N   1.93282655408721     -0.11100196469145     -0.03563605251024
  O   2.88508098898319      0.08832758317511      0.71824266323613
  O   1.90489923961695     -0.91381146695003     -0.96791801776905
