12
Coordinates from ORCA-job run
  C   -0.34717827268307     -0.04300586770122     -0.28926974281966
  C   0.91380445258997     -0.11985970375371      0.16852711289045
  H   1.28315020676176     -0.95655642813247      0.74744290945062
  C   -0.87025345733565      1.07727820211715     -1.01377851881690
  N   -1.43196460062073      1.92636244931951     -1.60378245023919
  C   -1.32404959880642     -1.16426055563569     -0.05172000306073
  H   -0.85614190995210     -1.98429145142822      0.49519949875128
  H   -1.69465645075051     -1.54014834645202     -1.00541894745624
  H   -2.17911309765729     -0.79492320327456      0.51673038531510
  N   1.90867888462311      0.93665940983049      0.02000983229604
  O   2.88110477286361      0.84115596830943      0.76719651179180
  O   1.71661907096732      1.82058952680132     -0.80813658810257
