12
Coordinates from ORCA-job run
  C   -0.36279267989748      0.00140526073629     -0.24251855656990
  C   0.92358418596052     -0.20923714315207      0.08457205968405
  H   1.31579758950197     -1.18384203535075      0.34586924811604
  C   -0.89191674403495      1.27982939123896     -0.61729733441514
  N   -1.46872052109845      2.25019317322263     -0.95022582495790
  C   -1.35706390065369     -1.12862741916651     -0.23959860271897
  H   -0.88615423663835     -2.06815062867205      0.05163931432957
  H   -1.79525480212036     -1.24333362672832     -1.23386251714557
  H   -2.17071649440602     -0.90777402840859      0.45532363134799
  N   1.95738438391677      0.81842493838038      0.09189985447492
  O   1.63204879052683      1.99338604790416     -0.04669098743850
  O   3.10480442894323      0.39572606999588      0.24388971529341
