12
Coordinates from ORCA-job run
  C   -0.49890187149034      0.30054053756624     -0.08203725567799
  C   0.73253715729593      0.63256541148023      0.35454649083314
  H   0.95866747300155      1.54396788507786      0.89287748508449
  C   -1.54464420203996      1.21154232401960      0.28724256140704
  N   -2.42047897793874      1.94242783402987      0.57796775553405
  C   -0.89982068843724     -0.90764225442101     -0.88527468480428
  H   -1.81826188486750     -0.69545742948219     -1.43406711274478
  H   -0.11626789534019     -1.19974216175182     -1.58131588084026
  H   -1.08056752752030     -1.75549287250421     -0.21927228235318
  N   1.91810697632788     -0.16204956206408      0.07775580640310
  O   1.78890989023176     -1.36942823786556     -0.11966876684527
  O   2.98072155077716      0.45976852591509      0.07624588400392
