12
Coordinates from ORCA-job run
  C   -0.34515366167365     -0.05525526146123     -0.29196979399899
  C   0.90520814576271     -0.06597696328953      0.20075095465160
  H   1.31276620802436     -0.89766062140418      0.76125215862752
  C   -0.90912433319922      1.04825197771872     -1.01233232463139
  N   -1.51262073401399      1.86470559265282     -1.60764578585445
  C   -1.25972749586738     -1.23632504152108     -0.10776095791642
  H   -1.57209834408778     -1.62191477563334     -1.08114977697538
  H   -0.76679229243752     -2.03414981129800      0.44883961524319
  H   -2.16063667246443     -0.93143516214257      0.42993331075226
  N   1.85171600283717      1.03682714771839      0.08729049863653
  O   2.87671962569287      0.90910190961011      0.75905723015217
  O   1.57874355142686      1.98483100904988     -0.64226512868664
