12
Coordinates from ORCA-job run
  C   -0.36199465331328     -0.02844812581112     -0.24224759497353
  C   0.94591394850502     -0.14020608250136      0.04587581892079
  H   1.39257194122135     -1.05011735037021      0.42599747040459
  C   -0.97390440624155      1.17583042317489     -0.72195022784491
  N   -1.61884191688454      2.08055107306452     -1.11019083726390
  C   -1.29462510353360     -1.19730530039708     -0.06998154838642
  H   -1.76763063249756     -1.44086019957309     -1.02428543076410
  H   -2.08890962839234     -0.94093974697255      0.63506171347304
  H   -0.76294613550978     -2.07553491273482      0.29778699100387
  N   1.91811255911830      0.93945843468732     -0.07364903324138
  O   3.02930320493664      0.68821209993842      0.39590593257013
  O   1.58195082259134      1.98835968749510     -0.61432325389819
