12
Coordinates from ORCA-job run
  C   -0.47065690573234      0.35131134584027     -0.14283519717581
  C   0.81963776408990      0.72077752815202     -0.02009967452818
  H   1.14238938010803      1.73184496692031      0.19454504203631
  C   -1.42347481607968      1.42056838741316     -0.04748466853023
  N   -2.22926722812663      2.27589139756460      0.02247715726597
  C   -1.01984544776571     -1.02781615039164     -0.38948595341276
  H   -0.99969423860459     -1.24699251261539     -1.45980679896656
  H   -2.05142716688520     -1.08134710256228     -0.04205699007727
  H   -0.42341339843577     -1.78943660869786      0.10876274254213
  N   1.92698579099132     -0.21973141072195     -0.08112190893101
  O   2.94668722874477      0.13058529498452      0.51286221417488
  O   1.78307903769590     -1.26665513588578     -0.71175596439748
