12
Coordinates from ORCA-job run
  C   -0.36463753510938     -0.00048546735067     -0.23481427607472
  C   0.92823690617577     -0.19725361658759      0.07506342595256
  H   1.32250030915690     -1.15603136556781      0.38681933453089
  C   -0.89780648491134      1.25515697575438     -0.67511076008430
  N   -1.47929331382570      2.20607872923368     -1.05289231365715
  C   -1.36223908876623     -1.12356743290606     -0.13927226902300
  H   -0.88751103314692     -2.04565079901941      0.19775067465463
  H   -1.82418565711920     -1.29720211933465     -1.11406573348194
  H   -2.15872124632475     -0.85734535423061      0.55965987758827
  N   1.96640149587858      0.82302221694165     -0.00339296186483
  O   1.64383012827503      1.98801806627878     -0.21468773054285
  O   3.11442551971723      0.40526016678830      0.15794273200244
