12
Coordinates from ORCA-job run
  C   -0.36588948686669     -0.03544714365327     -0.13166589910461
  C   0.95377415081325     -0.09986420556737     -0.37738470841980
  H   1.39839124778901     -0.83691181172874     -1.03390238696622
  C   -0.97336438495747      0.95054095852579      0.71315260510894
  N   -1.61589510308274      1.69065596564647      1.36472389776318
  C   -1.31766244532091     -1.02295484764385     -0.75171693527656
  H   -1.85528196658736     -1.56443804252112      0.03029020554689
  H   -2.05949877090521     -0.49719286180706     -1.35752617608060
  H   -0.78867649124787     -1.73972865151328     -1.38078332159107
  N   1.94480787247360      0.82308024061449      0.16215541570691
  O   1.60628377978792      1.62298572269824      1.02880050193313
  O   3.07301159810447      0.70927467694969     -0.32014319862018
