12
Coordinates from ORCA-job run
  C   -0.36731671509394      0.02956761954624     -0.20616713089603
  C   0.94775172893989     -0.24720895145909     -0.21461049492264
  H   1.35984725207168     -1.14869681517274     -0.64985832837782
  C   -0.93204650060236      1.20504971984220      0.38893100745940
  N   -1.54199339330171      2.10695141770754      0.83578773309310
  C   -1.35957009175452     -0.91037643450766     -0.83683727649024
  H   -1.91506592644585     -0.39410611127755     -1.62336181425728
  H   -2.08243261268151     -1.24698818370604     -0.08992942135030
  H   -0.86128913676041     -1.78034424394495     -1.26612938151071
  N   1.97752623890931      0.59255548764107      0.38503963106110
  O   1.67323659220836      1.70735740083590      0.79762220233714
  O   3.10035256451106      0.08623909449507      0.42151327385428
