12
Coordinates from ORCA-job run
  C   -0.48421592847936      0.30050186422653     -0.04982755502135
  C   0.76940088194042      0.59955319870087      0.34359769505578
  H   1.02322176958195      1.48614065785096      0.91104155809354
  C   -1.50072299194395      1.20224164583537      0.40999410417191
  N   -2.35817350829344      1.91943513247432      0.77845419381067
  C   -0.94364371724554     -0.86287431456125     -0.88554990215247
  H   -1.19217379561414     -1.70678315260052     -0.23462243554422
  H   -1.84710621778784     -0.58339643038549     -1.42628607927136
  H   -0.17573371924089     -1.19304061620543     -1.57991473970916
  N   1.93165758263976     -0.19282896309195     -0.01621034457609
  O   2.99241440758894      0.42878640354511     -0.07697659136778
  O   1.78507523685410     -1.39573542578851     -0.23069990348946
