14

C	0.0	0.0	0.0
C	-0.547614	0.195099	-1.416521
F	1.367249	0.0	0.0
H	-1.666589	0.166226	-1.292468
C	-0.421805	1.153268	0.823896
N	-0.547024	2.104836	1.502277
C	-0.445909	-1.250215	0.645511
N	-0.604958	-2.244507	1.250964
N	-0.160155	-0.920755	-2.346059
O	-0.408392	-0.731818	-3.531465
O	0.326644	-1.935985	-1.86031
C	-0.094024	1.451824	-1.987928
N	0.272319	2.474901	-2.434821
Cl	-3.240883	0.0	0.0
