14

C	0.0	0.0	0.0
C	-0.557911	-0.031139	-1.422845
F	1.377926	0.0	0.0
H	-1.678039	-0.029115	-1.279039
C	-0.412111	1.269653	0.633079
N	-0.547428	2.315025	1.152998
C	-0.437747	-1.129331	0.843129
N	-0.590412	-1.999433	1.617909
N	-0.198084	-1.290309	-2.160772
O	0.293559	-2.214486	-1.522328
O	-0.47642	-1.300353	-3.355138
C	-0.099426	1.107969	-2.198704
N	0.281393	2.031115	-2.817547
Cl	-3.255345	0.0	0.0
