14

C	0.0	0.0	0.0
C	-0.286107	-0.033592	-1.530171
F	1.371471	0.0	0.0
H	0.475111	-0.728807	-1.898298
C	-0.453809	1.118439	0.833276
N	-0.515005	1.978944	1.633153
C	-0.424496	-1.296842	0.560575
N	-0.439805	-2.399536	0.971512
N	0.099496	1.277481	-2.193058
O	0.103277	2.296693	-1.516301
O	0.382643	1.191121	-3.382514
C	-1.548291	-0.480472	-2.120995
N	-2.17984	-0.926631	-3.013213
Cl	-2.941542	0.0	0.0
