14

C	0.0	0.0	0.0
C	-0.565749	0.085364	-1.419314
F	1.360916	0.0	0.0
H	-1.683082	0.103515	-1.278077
C	-0.416857	1.213444	0.738782
N	-0.531305	2.205208	1.359268
C	-0.445747	-1.193935	0.745903
N	-0.599218	-2.125143	1.445878
N	-0.240976	-1.126222	-2.250048
O	-0.595288	-1.069668	-3.421706
O	0.309933	-2.074881	-1.701789
C	-0.073206	1.262061	-2.114817
N	0.341702	2.210172	-2.670601
Cl	-3.267931	0.0	0.0
