15

C	0.0	0.0	0.0
C	-0.541548	0.232708	-1.396288
Br	1.934015	0.0	0.0
H	-0.022783	-0.453052	-2.068975
H	-1.601065	-0.047012	-1.335361
C	-0.429279	0.980577	0.988977
N	-0.618037	1.843478	1.764273
N	-0.377227	-1.409017	0.49738
O	-0.549162	-1.544073	1.69925
O	-0.395507	-2.286551	-0.352862
C	-0.422052	1.684391	-1.837644
H	-0.75848	1.772253	-2.873352
H	-1.070937	2.312594	-1.225082
H	0.603354	2.059029	-1.778107
Br	-3.654771	0.0	0.0
