17

C	-0.178234	0.006607	-1.530582
C	0.0	0.0	0.0
F	0.039843	1.385994	-1.907544
H	1.103257	0.0	0.0
N	0.845862	-0.820318	-2.036353
H	0.947882	-0.706571	-3.036398
H	1.72344	-0.605155	-1.530986
C	-1.556653	-0.314132	-2.058374
H	-1.810176	-1.349733	-1.829225
H	-1.584365	-0.167796	-3.142578
H	-2.283897	0.351839	-1.591499
C	-0.514538	-1.239291	0.561514
N	-0.92166	-2.228908	1.048992
N	-0.657406	1.157803	0.628047
H	-0.360564	1.163472	1.599485
H	-0.214949	1.964093	0.200342
F	2.676036	0.0	0.0
