17

C	-0.117963	0.01695	-1.528877
C	0.0	0.0	0.0
F	-1.457469	0.217092	-1.914776
H	1.094886	0.0	0.0
N	0.665211	1.116822	-2.043773
H	0.331107	1.933671	-1.535332
H	1.598251	0.939625	-1.651104
C	0.389737	-1.281689	-2.107931
H	0.405459	-1.202774	-3.196567
H	1.403607	-1.424768	-1.724143
H	-0.242928	-2.119332	-1.806623
C	-0.575629	-1.179733	0.632164
N	-1.049962	-2.105463	1.183393
N	-0.469926	1.258795	0.574431
H	0.065175	1.446591	1.412132
H	-1.450161	1.201531	0.820175
F	2.633469	0.0	0.0
