17

C	-0.39087	-0.072403	-1.474372
C	0.0	0.0	0.0
F	-1.765566	-0.496637	-1.585108
H	1.096326	0.0	0.0
N	-0.250584	1.218192	-2.045582
H	-0.719783	1.240865	-2.94142
H	-0.661222	1.885482	-1.402246
C	0.470981	-1.097972	-2.175954
H	1.501015	-0.889063	-1.879174
H	0.349479	-1.028288	-3.261214
H	0.196407	-2.105045	-1.853271
C	-0.452367	-1.190874	0.707439
N	-0.80321	-2.126422	1.328389
N	-0.465693	1.237813	0.64454
H	0.32	1.604718	1.167986
H	-1.224814	1.057337	1.289158
F	2.605292	0.0	0.0
