17

C	-0.399078	0.147342	-1.462197
C	0.0	0.0	0.0
F	0.021489	-1.043649	-2.110551
H	1.0924	0.0	0.0
N	-1.818877	0.281989	-1.622002
H	-2.245222	-0.613368	-1.393947
H	-2.027246	0.479784	-2.595149
C	0.381751	1.281143	-2.079359
H	0.002254	2.233533	-1.711961
H	1.417782	1.147499	-1.759399
H	0.303307	1.234602	-3.170034
C	-0.541246	-1.244827	0.55014
N	-1.001845	-2.216041	1.029507
N	-0.406761	1.192203	0.738382
H	-1.373067	1.135093	1.033026
H	0.192767	1.273731	1.548478
F	2.610612	0.0	0.0
