17

C	-0.393522	-0.098639	-1.471133
C	0.0	0.0	0.0
F	-1.78158	-0.490821	-1.564602
H	1.09368	0.0	0.0
N	-0.222966	1.170328	-2.073119
H	-0.67895	1.185005	-2.975103
H	-0.621197	1.865885	-1.450017
C	0.436781	-1.163772	-2.150857
H	1.476107	-0.96631	-1.876708
H	0.143949	-2.153882	-1.792336
H	0.30324	-1.126558	-3.235934
C	-0.457828	-1.176272	0.730571
N	-0.808916	-2.107806	1.357068
N	-0.462443	1.253112	0.613396
H	-1.244988	1.09761	1.232374
H	0.310856	1.615457	1.155887
F	2.602932	0.0	0.0
