15

C	-0.495488	-0.007977	-1.424462
C	0.0	0.0	0.0
Br	0.185361	1.600098	-2.368595
H	1.092911	0.0	0.0
H	-0.380777	0.912926	0.469315
C	0.059545	-1.152454	-2.172379
N	0.381757	-2.125172	-2.750448
N	-1.944825	0.043246	-1.52991
H	-2.232498	-0.126984	-2.486435
H	-2.320387	-0.696593	-0.946376
C	-0.433784	-1.244036	0.77416
H	0.05673	-1.213896	1.749956
H	-0.076823	-2.149877	0.274902
H	-1.514887	-1.338352	0.949067
F	2.635835	0.0	0.0
