15

C	-0.076097	-0.040868	-1.526072
C	0.0	0.0	0.0
Br	-1.846977	-0.927305	-2.160978
H	1.098133	0.0	0.0
H	-0.331108	-0.975022	0.365905
C	-0.205236	1.294842	-2.129702
N	-0.222461	2.366109	-2.618021
N	1.034954	-0.773913	-1.996937
H	1.242583	-0.590837	-2.969117
H	1.857698	-0.580189	-1.360741
C	-0.699619	1.151514	0.683781
H	-0.271581	2.108691	0.379836
H	-0.575011	1.066422	1.766599
H	-1.773608	1.16939	0.466967
F	2.735421	0.0	0.0
