15

C	-0.09963	0.211344	-1.526511
C	0.0	0.0	0.0
Br	-0.334179	-1.718701	-2.361717
H	1.095152	0.0	0.0
H	-0.465193	-0.923757	0.33488
C	-1.336369	0.847759	-1.983749
N	-2.345689	1.383349	-2.274253
N	1.069651	0.804386	-2.013952
H	0.961817	1.756087	-2.350302
H	1.859862	0.628213	-1.35649
C	-0.493527	1.234674	0.744869
H	-1.573857	1.395003	0.659182
H	-0.242361	1.141657	1.804624
H	0.023998	2.123475	0.373223
F	2.730852	0.0	0.0
