15

C	-0.027013	-0.122862	-1.527851
C	0.0	0.0	0.0
Br	-1.770468	-0.821161	-2.262361
H	1.09755	0.0	0.0
H	-0.4426	0.937882	0.343016
C	0.103655	1.214903	-2.124705
N	0.230164	2.289179	-2.585068
N	1.051258	-0.95395	-2.040059
H	0.845199	-1.908923	-1.763315
H	1.873128	-0.65914	-1.457119
C	-0.515676	-1.208527	0.755149
H	-0.240227	-1.120398	1.809413
H	-1.601167	-1.324869	0.684505
H	-0.048194	-2.123	0.38099
F	2.714778	0.0	0.0
