15

C	-0.518183	-0.033678	-1.417632
C	0.0	0.0	0.0
Br	0.292668	1.568007	-2.398758
H	1.091808	0.0	0.0
H	-0.356789	0.936981	0.450098
C	-0.029851	-1.19268	-2.172188
N	0.313656	-2.15714	-2.748768
N	-1.944162	-0.000504	-1.509085
H	-2.286573	0.784812	-0.967865
H	-2.250825	0.101087	-2.469637
C	-0.471221	-1.213484	0.79723
H	-0.047858	-1.143385	1.802626
H	-0.071038	-2.128473	0.351967
H	-1.559116	-1.308847	0.871591
F	2.641489	0.0	0.0
