15

C	-0.016628	-0.113019	-1.522384
C	0.0	0.0	0.0
Br	-1.793854	-0.711671	-2.275449
H	1.097497	0.0	0.0
H	-0.437957	0.940288	0.341522
C	0.189821	1.21963	-2.108188
N	0.36059	2.296645	-2.546701
N	1.018225	-0.995938	-2.033086
H	1.849957	-0.725163	-1.45436
H	0.772558	-1.941478	-1.756988
C	-0.531834	-1.20766	0.743642
H	-0.058873	-2.12267	0.377508
H	-0.279127	-1.123143	1.803725
H	-1.616189	-1.321695	0.649968
F	2.689968	0.0	0.0
