15

C	-0.148245	0.189113	-1.358544
C	0.050299	0.292902	0.170388
Br	0.2463	1.879753	-2.288904
H	1.086934	0.619966	0.302421
H	0.585069	-0.536278	-1.738406
C	-1.507302	-0.209703	-1.690991
N	-2.616968	-0.537925	-1.899911
N	-0.068484	-1.016699	0.787202
H	0.626728	-1.63017	0.358886
H	-0.988887	-1.402336	0.599782
C	-0.903507	1.273121	0.833697
H	-1.939936	0.944612	0.703721
H	-0.689065	1.299894	1.90364
H	-0.807814	2.279146	0.421763
Cl	2.256461	-2.131311	-1.320867
